MODEL 1
REMARK VINA RESULT:      -9.7      0.000      0.000
REMARK  Name = Aprepitant
REMARK  9 active torsions:
REMARK  status: ('A' for Active; 'I' for Inactive)
REMARK    1  A    between atoms: C_1  and  C_2
REMARK    2  A    between atoms: C_2  and  O_3
REMARK    3  A    between atoms: C_2  and  C_24
REMARK    4  A    between atoms: O_3  and  C_4
REMARK    5  A    between atoms: N_8  and  C_9
REMARK    6  A    between atoms: C_9  and  C_10
REMARK    7  A    between atoms: C_16  and  C_17
REMARK    8  A    between atoms: C_26  and  C_34
REMARK    9  A    between atoms: C_28  and  C_30
REMARK                            x       y       z     vdW  Elec       q    Type
REMARK                         _______ _______ _______ _____ _____    ______ ____
ROOT
ATOM      1  C   UNL     1      -6.317   1.619 125.809  0.00  0.00    +0.000 C 
ATOM      2  O   UNL     1      -7.268   2.136 126.757  0.00  0.00    +0.000 OA
ATOM      3  C   UNL     1      -8.172   3.066 126.131  0.00  0.00    +0.000 C 
ATOM      4  C   UNL     1      -7.476   4.206 125.339  0.00  0.00    +0.000 C 
ATOM      5  N   UNL     1      -6.467   3.715 124.369  0.00  0.00    +0.000 NA
ATOM      6  C   UNL     1      -5.546   2.790 125.111  0.00  0.00    +0.000 C 
ENDROOT
BRANCH   6   7
ATOM      7  C   UNL     1      -4.602   3.476 126.104  0.00  0.00    +0.000 A 
ATOM      8  C   UNL     1      -3.361   2.909 126.435  0.00  0.00    +0.000 A 
ATOM      9  C   UNL     1      -2.519   3.483 127.365  0.00  0.00    +0.000 A 
ATOM     10  C   UNL     1      -2.856   4.712 127.891  0.00  0.00    +0.000 A 
ATOM     11  F   UNL     1      -2.024   5.290 128.764  0.00  0.00    +0.000 F 
ATOM     12  C   UNL     1      -4.026   5.363 127.510  0.00  0.00    +0.000 A 
ATOM     13  C   UNL     1      -4.913   4.740 126.632  0.00  0.00    +0.000 A 
ENDBRANCH   6   7
BRANCH   1  14
ATOM     14  O   UNL     1      -5.438   0.675 126.415  0.00  0.00    +0.000 OA
BRANCH  14  16
ATOM     15  C   UNL     1      -5.373  -1.174 128.010  0.00  0.00    +0.000 C 
ATOM     16  C   UNL     1      -6.118  -0.501 126.862  0.00  0.00    +0.000 C 
BRANCH  16  17
ATOM     17  C   UNL     1      -6.269  -1.480 125.727  0.00  0.00    +0.000 A 
ATOM     18  C   UNL     1      -5.287  -2.414 125.398  0.00  0.00    +0.000 A 
ATOM     19  C   UNL     1      -5.454  -3.241 124.283  0.00  0.00    +0.000 A 
ATOM     20  C   UNL     1      -6.672  -3.224 123.592  0.00  0.00    +0.000 A 
ATOM     21  C   UNL     1      -7.659  -2.285 123.904  0.00  0.00    +0.000 A 
ATOM     22  C   UNL     1      -7.435  -1.403 124.955  0.00  0.00    +0.000 A 
BRANCH  21  23
ATOM     23  C   UNL     1      -8.910  -2.186 123.082  0.00  0.00    +0.000 C 
ATOM     24  F   UNL     1      -9.589  -1.033 123.325  0.00  0.00    +0.000 F 
ATOM     25  F   UNL     1      -8.657  -2.211 121.748  0.00  0.00    +0.000 F 
ATOM     26  F   UNL     1      -9.792  -3.197 123.321  0.00  0.00    +0.000 F 
ENDBRANCH  21  23
BRANCH  19  27
ATOM     27  C   UNL     1      -4.296  -4.046 123.762  0.00  0.00    +0.000 C 
ATOM     28  F   UNL     1      -3.674  -4.739 124.757  0.00  0.00    +0.000 F 
ATOM     29  F   UNL     1      -4.651  -4.958 122.822  0.00  0.00    +0.000 F 
ATOM     30  F   UNL     1      -3.328  -3.272 123.198  0.00  0.00    +0.000 F 
ENDBRANCH  19  27
ENDBRANCH  16  17
ENDBRANCH  14  16
ENDBRANCH   1  14
BRANCH   5  31
ATOM     31  C   UNL     1      -7.191   3.007 123.273  0.00  0.00    +0.000 C 
BRANCH  31  32
ATOM     32  C   UNL     1      -6.822   3.510 121.898  0.00  0.00    +0.000 A 
ATOM     33  N   UNL     1      -5.601   3.687 121.472  0.00  0.00    +0.000 NA
ATOM     34  N   UNL     1      -5.749   4.154 120.207  0.00  0.00    +0.000 N 
ATOM     35  C   UNL     1      -7.094   4.212 119.870  0.00  0.00    +0.000 A 
ATOM     36  O   UNL     1      -7.573   4.568 118.820  0.00  0.00    +0.000 OA
ATOM     37  N   UNL     1      -7.762   3.774 120.979  0.00  0.00    +0.000 N 
ATOM     38  H   UNL     1      -4.972   4.446 119.630  0.00  0.00    +0.000 HD
ATOM     39  H   UNL     1      -8.760   3.690 121.048  0.00  0.00    +0.000 HD
ENDBRANCH  31  32
ENDBRANCH   5  31
TORSDOF 8
ENDMDL
MODEL 2
REMARK VINA RESULT:      -9.7      0.412      2.862
REMARK  Name = Aprepitant
REMARK  9 active torsions:
REMARK  status: ('A' for Active; 'I' for Inactive)
REMARK    1  A    between atoms: C_1  and  C_2
REMARK    2  A    between atoms: C_2  and  O_3
REMARK    3  A    between atoms: C_2  and  C_24
REMARK    4  A    between atoms: O_3  and  C_4
REMARK    5  A    between atoms: N_8  and  C_9
REMARK    6  A    between atoms: C_9  and  C_10
REMARK    7  A    between atoms: C_16  and  C_17
REMARK    8  A    between atoms: C_26  and  C_34
REMARK    9  A    between atoms: C_28  and  C_30
REMARK                            x       y       z     vdW  Elec       q    Type
REMARK                         _______ _______ _______ _____ _____    ______ ____
ROOT
ATOM      1  C   UNL     1      -6.282   1.739 125.826  0.00  0.00    +0.000 C 
ATOM      2  O   UNL     1      -7.230   2.270 126.768  0.00  0.00    +0.000 OA
ATOM      3  C   UNL     1      -8.137   3.189 126.130  0.00  0.00    +0.000 C 
ATOM      4  C   UNL     1      -7.445   4.316 125.317  0.00  0.00    +0.000 C 
ATOM      5  N   UNL     1      -6.439   3.810 124.351  0.00  0.00    +0.000 NA
ATOM      6  C   UNL     1      -5.515   2.898 125.105  0.00  0.00    +0.000 C 
ENDROOT
BRANCH   6   7
ATOM      7  C   UNL     1      -4.568   3.601 126.083  0.00  0.00    +0.000 A 
ATOM      8  C   UNL     1      -3.294   3.082 126.359  0.00  0.00    +0.000 A 
ATOM      9  C   UNL     1      -2.446   3.671 127.275  0.00  0.00    +0.000 A 
ATOM     10  C   UNL     1      -2.817   4.871 127.841  0.00  0.00    +0.000 A 
ATOM     11  F   UNL     1      -1.980   5.464 128.700  0.00  0.00    +0.000 F 
ATOM     12  C   UNL     1      -4.025   5.479 127.516  0.00  0.00    +0.000 A 
ATOM     13  C   UNL     1      -4.915   4.839 126.652  0.00  0.00    +0.000 A 
ENDBRANCH   6   7
BRANCH   1  14
ATOM     14  O   UNL     1      -5.400   0.806 126.444  0.00  0.00    +0.000 OA
BRANCH  14  16
ATOM     15  C   UNL     1      -5.262  -1.082 127.989  0.00  0.00    +0.000 C 
ATOM     16  C   UNL     1      -6.078  -0.358 126.924  0.00  0.00    +0.000 C 
BRANCH  16  17
ATOM     17  C   UNL     1      -6.361  -1.304 125.786  0.00  0.00    +0.000 A 
ATOM     18  C   UNL     1      -7.608  -1.394 125.169  0.00  0.00    +0.000 A 
ATOM     19  C   UNL     1      -7.828  -2.348 124.171  0.00  0.00    +0.000 A 
ATOM     20  C   UNL     1      -6.750  -3.109 123.699  0.00  0.00    +0.000 A 
ATOM     21  C   UNL     1      -5.499  -3.037 124.317  0.00  0.00    +0.000 A 
ATOM     22  C   UNL     1      -5.324  -2.151 125.374  0.00  0.00    +0.000 A 
BRANCH  21  23
ATOM     23  C   UNL     1      -4.381  -3.942 123.891  0.00  0.00    +0.000 C 
ATOM     24  F   UNL     1      -3.443  -3.284 123.159  0.00  0.00    +0.000 F 
ATOM     25  F   UNL     1      -3.730  -4.494 124.947  0.00  0.00    +0.000 F 
ATOM     26  F   UNL     1      -4.798  -4.983 123.116  0.00  0.00    +0.000 F 
ENDBRANCH  21  23
BRANCH  19  27
ATOM     27  C   UNL     1      -9.227  -2.638 123.702  0.00  0.00    +0.000 C 
ATOM     28  F   UNL     1      -9.251  -3.627 122.765  0.00  0.00    +0.000 F 
ATOM     29  F   UNL     1     -10.060  -3.031 124.699  0.00  0.00    +0.000 F 
ATOM     30  F   UNL     1      -9.818  -1.562 123.111  0.00  0.00    +0.000 F 
ENDBRANCH  19  27
ENDBRANCH  16  17
ENDBRANCH  14  16
ENDBRANCH   1  14
BRANCH   5  31
ATOM     31  C   UNL     1      -7.167   3.083 123.270  0.00  0.00    +0.000 C 
BRANCH  31  32
ATOM     32  C   UNL     1      -6.781   3.542 121.884  0.00  0.00    +0.000 A 
ATOM     33  N   UNL     1      -5.555   3.649 121.450  0.00  0.00    +0.000 NA
ATOM     34  N   UNL     1      -5.686   4.101 120.177  0.00  0.00    +0.000 N 
ATOM     35  C   UNL     1      -7.028   4.221 119.846  0.00  0.00    +0.000 A 
ATOM     36  O   UNL     1      -7.495   4.583 118.792  0.00  0.00    +0.000 OA
ATOM     37  N   UNL     1      -7.712   3.838 120.966  0.00  0.00    +0.000 N 
ATOM     38  H   UNL     1      -4.899   4.343 119.591  0.00  0.00    +0.000 HD
ATOM     39  H   UNL     1      -8.712   3.805 121.041  0.00  0.00    +0.000 HD
ENDBRANCH  31  32
ENDBRANCH   5  31
TORSDOF 8
ENDMDL
MODEL 3
REMARK VINA RESULT:      -9.7      4.332      6.125
REMARK  Name = Aprepitant
REMARK  9 active torsions:
REMARK  status: ('A' for Active; 'I' for Inactive)
REMARK    1  A    between atoms: C_1  and  C_2
REMARK    2  A    between atoms: C_2  and  O_3
REMARK    3  A    between atoms: C_2  and  C_24
REMARK    4  A    between atoms: O_3  and  C_4
REMARK    5  A    between atoms: N_8  and  C_9
REMARK    6  A    between atoms: C_9  and  C_10
REMARK    7  A    between atoms: C_16  and  C_17
REMARK    8  A    between atoms: C_26  and  C_34
REMARK    9  A    between atoms: C_28  and  C_30
REMARK                            x       y       z     vdW  Elec       q    Type
REMARK                         _______ _______ _______ _____ _____    ______ ____
ROOT
ATOM      1  C   UNL     1      -7.339   1.580 129.082  0.00  0.00    +0.000 C 
ATOM      2  O   UNL     1      -7.718   1.614 130.469  0.00  0.00    +0.000 OA
ATOM      3  C   UNL     1      -6.778   2.378 131.246  0.00  0.00    +0.000 C 
ATOM      4  C   UNL     1      -5.296   1.947 131.069  0.00  0.00    +0.000 C 
ATOM      5  N   UNL     1      -4.873   1.874 129.649  0.00  0.00    +0.000 NA
ATOM      6  C   UNL     1      -5.881   1.030 128.925  0.00  0.00    +0.000 C 
ENDROOT
BRANCH   6   7
ATOM      7  C   UNL     1      -5.834  -0.465 129.261  0.00  0.00    +0.000 A 
ATOM      8  C   UNL     1      -5.133  -1.369 128.448  0.00  0.00    +0.000 A 
ATOM      9  C   UNL     1      -5.121  -2.726 128.704  0.00  0.00    +0.000 A 
ATOM     10  C   UNL     1      -5.715  -3.185 129.860  0.00  0.00    +0.000 A 
ATOM     11  F   UNL     1      -5.672  -4.494 130.130  0.00  0.00    +0.000 F 
ATOM     12  C   UNL     1      -6.330  -2.310 130.751  0.00  0.00    +0.000 A 
ATOM     13  C   UNL     1      -6.410  -0.951 130.447  0.00  0.00    +0.000 A 
ENDBRANCH   6   7
BRANCH   1  14
ATOM     14  O   UNL     1      -8.282   0.850 128.302  0.00  0.00    +0.000 OA
BRANCH  14  16
ATOM     15  C   UNL     1      -8.501   1.731 126.033  0.00  0.00    +0.000 C 
ATOM     16  C   UNL     1      -7.864   0.687 126.944  0.00  0.00    +0.000 C 
BRANCH  16  17
ATOM     17  C   UNL     1      -8.224  -0.690 126.449  0.00  0.00    +0.000 A 
ATOM     18  C   UNL     1      -8.358  -0.996 125.095  0.00  0.00    +0.000 A 
ATOM     19  C   UNL     1      -8.771  -2.273 124.705  0.00  0.00    +0.000 A 
ATOM     20  C   UNL     1      -8.907  -3.277 125.672  0.00  0.00    +0.000 A 
ATOM     21  C   UNL     1      -8.786  -2.981 127.033  0.00  0.00    +0.000 A 
ATOM     22  C   UNL     1      -8.470  -1.680 127.409  0.00  0.00    +0.000 A 
BRANCH  21  23
ATOM     23  C   UNL     1      -9.055  -4.028 128.072  0.00  0.00    +0.000 C 
ATOM     24  F   UNL     1      -8.232  -5.103 127.936  0.00  0.00    +0.000 F 
ATOM     25  F   UNL     1      -8.877  -3.563 129.335  0.00  0.00    +0.000 F 
ATOM     26  F   UNL     1     -10.325  -4.521 128.024  0.00  0.00    +0.000 F 
ENDBRANCH  21  23
BRANCH  19  27
ATOM     27  C   UNL     1      -9.184  -2.528 123.281  0.00  0.00    +0.000 C 
ATOM     28  F   UNL     1      -8.108  -2.733 122.472  0.00  0.00    +0.000 F 
ATOM     29  F   UNL     1      -9.986  -3.615 123.138  0.00  0.00    +0.000 F 
ATOM     30  F   UNL     1      -9.859  -1.480 122.732  0.00  0.00    +0.000 F 
ENDBRANCH  19  27
ENDBRANCH  16  17
ENDBRANCH  14  16
ENDBRANCH   1  14
BRANCH   5  31
ATOM     31  C   UNL     1      -4.833   3.265 129.110  0.00  0.00    +0.000 C 
BRANCH  31  32
ATOM     32  C   UNL     1      -3.621   3.532 128.249  0.00  0.00    +0.000 A 
ATOM     33  N   UNL     1      -3.098   4.710 128.045  0.00  0.00    +0.000 NA
ATOM     34  N   UNL     1      -2.052   4.474 127.213  0.00  0.00    +0.000 N 
ATOM     35  C   UNL     1      -1.937   3.115 126.958  0.00  0.00    +0.000 A 
ATOM     36  O   UNL     1      -1.111   2.564 126.270  0.00  0.00    +0.000 OA
ATOM     37  N   UNL     1      -2.957   2.530 127.655  0.00  0.00    +0.000 N 
ATOM     38  H   UNL     1      -1.480   5.209 126.821  0.00  0.00    +0.000 HD
ATOM     39  H   UNL     1      -3.138   1.544 127.682  0.00  0.00    +0.000 HD
ENDBRANCH  31  32
ENDBRANCH   5  31
TORSDOF 8
ENDMDL
MODEL 4
REMARK VINA RESULT:      -9.6      1.853      2.991
REMARK  Name = Aprepitant
REMARK  9 active torsions:
REMARK  status: ('A' for Active; 'I' for Inactive)
REMARK    1  A    between atoms: C_1  and  C_2
REMARK    2  A    between atoms: C_2  and  O_3
REMARK    3  A    between atoms: C_2  and  C_24
REMARK    4  A    between atoms: O_3  and  C_4
REMARK    5  A    between atoms: N_8  and  C_9
REMARK    6  A    between atoms: C_9  and  C_10
REMARK    7  A    between atoms: C_16  and  C_17
REMARK    8  A    between atoms: C_26  and  C_34
REMARK    9  A    between atoms: C_28  and  C_30
REMARK                            x       y       z     vdW  Elec       q    Type
REMARK                         _______ _______ _______ _____ _____    ______ ____
ROOT
ATOM      1  C   UNL     1      -6.067   2.012 126.073  0.00  0.00    +0.000 C 
ATOM      2  O   UNL     1      -7.031   2.643 126.934  0.00  0.00    +0.000 OA
ATOM      3  C   UNL     1      -7.889   3.528 126.192  0.00  0.00    +0.000 C 
ATOM      4  C   UNL     1      -7.140   4.567 125.315  0.00  0.00    +0.000 C 
ATOM      5  N   UNL     1      -6.117   3.958 124.430  0.00  0.00    +0.000 NA
ATOM      6  C   UNL     1      -5.244   3.088 125.287  0.00  0.00    +0.000 C 
ENDROOT
BRANCH   6   7
ATOM      7  C   UNL     1      -4.311   3.845 126.238  0.00  0.00    +0.000 A 
ATOM      8  C   UNL     1      -4.734   5.012 126.894  0.00  0.00    +0.000 A 
ATOM      9  C   UNL     1      -3.893   5.737 127.713  0.00  0.00    +0.000 A 
ATOM     10  C   UNL     1      -2.641   5.231 127.988  0.00  0.00    +0.000 A 
ATOM     11  F   UNL     1      -1.837   5.912 128.812  0.00  0.00    +0.000 F 
ATOM     12  C   UNL     1      -2.216   4.022 127.444  0.00  0.00    +0.000 A 
ATOM     13  C   UNL     1      -3.040   3.335 126.552  0.00  0.00    +0.000 A 
ENDBRANCH   6   7
BRANCH   1  14
ATOM     14  O   UNL     1      -5.233   1.111 126.796  0.00  0.00    +0.000 OA
BRANCH  14  16
ATOM     15  C   UNL     1      -5.077  -0.056 128.936  0.00  0.00    +0.000 C 
ATOM     16  C   UNL     1      -5.958   0.339 127.756  0.00  0.00    +0.000 C 
BRANCH  16  17
ATOM     17  C   UNL     1      -6.515  -0.905 127.113  0.00  0.00    +0.000 A 
ATOM     18  C   UNL     1      -7.564  -1.638 127.668  0.00  0.00    +0.000 A 
ATOM     19  C   UNL     1      -7.982  -2.827 127.063  0.00  0.00    +0.000 A 
ATOM     20  C   UNL     1      -7.440  -3.195 125.825  0.00  0.00    +0.000 A 
ATOM     21  C   UNL     1      -6.381  -2.476 125.265  0.00  0.00    +0.000 A 
ATOM     22  C   UNL     1      -5.911  -1.350 125.931  0.00  0.00    +0.000 A 
BRANCH  21  23
ATOM     23  C   UNL     1      -5.720  -2.945 124.003  0.00  0.00    +0.000 C 
ATOM     24  F   UNL     1      -6.367  -2.499 122.893  0.00  0.00    +0.000 F 
ATOM     25  F   UNL     1      -4.435  -2.514 123.900  0.00  0.00    +0.000 F 
ATOM     26  F   UNL     1      -5.675  -4.302 123.891  0.00  0.00    +0.000 F 
ENDBRANCH  21  23
BRANCH  19  27
ATOM     27  C   UNL     1      -8.910  -3.757 127.795  0.00  0.00    +0.000 C 
ATOM     28  F   UNL     1      -8.443  -5.037 127.799  0.00  0.00    +0.000 F 
ATOM     29  F   UNL     1      -9.104  -3.414 129.094  0.00  0.00    +0.000 F 
ATOM     30  F   UNL     1     -10.147  -3.822 127.228  0.00  0.00    +0.000 F 
ENDBRANCH  19  27
ENDBRANCH  16  17
ENDBRANCH  14  16
ENDBRANCH   1  14
BRANCH   5  31
ATOM     31  C   UNL     1      -6.828   3.163 123.386  0.00  0.00    +0.000 C 
BRANCH  31  32
ATOM     32  C   UNL     1      -6.558   3.651 121.983  0.00  0.00    +0.000 A 
ATOM     33  N   UNL     1      -5.382   3.980 121.522  0.00  0.00    +0.000 NA
ATOM     34  N   UNL     1      -5.617   4.364 120.242  0.00  0.00    +0.000 N 
ATOM     35  C   UNL     1      -6.962   4.217 119.935  0.00  0.00    +0.000 A 
ATOM     36  O   UNL     1      -7.505   4.456 118.883  0.00  0.00    +0.000 OA
ATOM     37  N   UNL     1      -7.542   3.740 121.077  0.00  0.00    +0.000 N 
ATOM     38  H   UNL     1      -4.899   4.737 119.636  0.00  0.00    +0.000 HD
ATOM     39  H   UNL     1      -8.517   3.519 121.173  0.00  0.00    +0.000 HD
ENDBRANCH  31  32
ENDBRANCH   5  31
TORSDOF 8
ENDMDL
MODEL 5
REMARK VINA RESULT:      -9.6      3.785      6.509
REMARK  Name = Aprepitant
REMARK  9 active torsions:
REMARK  status: ('A' for Active; 'I' for Inactive)
REMARK    1  A    between atoms: C_1  and  C_2
REMARK    2  A    between atoms: C_2  and  O_3
REMARK    3  A    between atoms: C_2  and  C_24
REMARK    4  A    between atoms: O_3  and  C_4
REMARK    5  A    between atoms: N_8  and  C_9
REMARK    6  A    between atoms: C_9  and  C_10
REMARK    7  A    between atoms: C_16  and  C_17
REMARK    8  A    between atoms: C_26  and  C_34
REMARK    9  A    between atoms: C_28  and  C_30
REMARK                            x       y       z     vdW  Elec       q    Type
REMARK                         _______ _______ _______ _____ _____    ______ ____
ROOT
ATOM      1  C   UNL     1      -7.444   2.610 128.160  0.00  0.00    +0.000 C 
ATOM      2  O   UNL     1      -8.151   1.892 129.187  0.00  0.00    +0.000 OA
ATOM      3  C   UNL     1      -7.255   1.455 130.225  0.00  0.00    +0.000 C 
ATOM      4  C   UNL     1      -6.020   0.661 129.719  0.00  0.00    +0.000 C 
ATOM      5  N   UNL     1      -5.279   1.357 128.639  0.00  0.00    +0.000 NA
ATOM      6  C   UNL     1      -6.277   1.739 127.585  0.00  0.00    +0.000 C 
ENDROOT
BRANCH   6   7
ATOM      7  C   UNL     1      -6.835   0.568 126.769  0.00  0.00    +0.000 A 
ATOM      8  C   UNL     1      -8.090   0.011 127.064  0.00  0.00    +0.000 A 
ATOM      9  C   UNL     1      -8.588  -1.076 126.375  0.00  0.00    +0.000 A 
ATOM     10  C   UNL     1      -7.885  -1.547 125.287  0.00  0.00    +0.000 A 
ATOM     11  F   UNL     1      -8.384  -2.576 124.594  0.00  0.00    +0.000 F 
ATOM     12  C   UNL     1      -6.688  -0.957 124.892  0.00  0.00    +0.000 A 
ATOM     13  C   UNL     1      -6.148   0.089 125.641  0.00  0.00    +0.000 A 
ENDBRANCH   6   7
BRANCH   1  14
ATOM     14  O   UNL     1      -8.330   3.072 127.144  0.00  0.00    +0.000 OA
BRANCH  14  16
ATOM     15  C   UNL     1      -8.458   5.326 126.210  0.00  0.00    +0.000 C 
ATOM     16  C   UNL     1      -7.707   4.000 126.251  0.00  0.00    +0.000 C 
BRANCH  16  17
ATOM     17  C   UNL     1      -7.642   3.423 124.861  0.00  0.00    +0.000 A 
ATOM     18  C   UNL     1      -6.626   3.738 123.958  0.00  0.00    +0.000 A 
ATOM     19  C   UNL     1      -6.666   3.231 122.656  0.00  0.00    +0.000 A 
ATOM     20  C   UNL     1      -7.649   2.293 122.314  0.00  0.00    +0.000 A 
ATOM     21  C   UNL     1      -8.678   1.978 123.205  0.00  0.00    +0.000 A 
ATOM     22  C   UNL     1      -8.678   2.568 124.464  0.00  0.00    +0.000 A 
BRANCH  21  23
ATOM     23  C   UNL     1      -9.798   1.070 122.791  0.00  0.00    +0.000 C 
ATOM     24  F   UNL     1     -10.919   1.273 123.534  0.00  0.00    +0.000 F 
ATOM     25  F   UNL     1     -10.157   1.248 121.493  0.00  0.00    +0.000 F 
ATOM     26  F   UNL     1      -9.495  -0.252 122.924  0.00  0.00    +0.000 F 
ENDBRANCH  21  23
BRANCH  19  27
ATOM     27  C   UNL     1      -5.741   3.780 121.606  0.00  0.00    +0.000 C 
ATOM     28  F   UNL     1      -6.414   4.503 120.667  0.00  0.00    +0.000 F 
ATOM     29  F   UNL     1      -4.781   4.601 122.107  0.00  0.00    +0.000 F 
ATOM     30  F   UNL     1      -5.087   2.805 120.916  0.00  0.00    +0.000 F 
ENDBRANCH  19  27
ENDBRANCH  16  17
ENDBRANCH  14  16
ENDBRANCH   1  14
BRANCH   5  31
ATOM     31  C   UNL     1      -4.622   2.558 129.234  0.00  0.00    +0.000 C 
BRANCH  31  32
ATOM     32  C   UNL     1      -3.523   3.123 128.367  0.00  0.00    +0.000 A 
ATOM     33  N   UNL     1      -3.147   4.373 128.361  0.00  0.00    +0.000 NA
ATOM     34  N   UNL     1      -2.157   4.423 127.435  0.00  0.00    +0.000 N 
ATOM     35  C   UNL     1      -1.921   3.158 126.915  0.00  0.00    +0.000 A 
ATOM     36  O   UNL     1      -1.102   2.848 126.082  0.00  0.00    +0.000 OA
ATOM     37  N   UNL     1      -2.810   2.336 127.549  0.00  0.00    +0.000 N 
ATOM     38  H   UNL     1      -1.701   5.282 127.157  0.00  0.00    +0.000 HD
ATOM     39  H   UNL     1      -2.882   1.347 127.395  0.00  0.00    +0.000 HD
ENDBRANCH  31  32
ENDBRANCH   5  31
TORSDOF 8
ENDMDL
MODEL 6
REMARK VINA RESULT:      -9.6      3.783      5.734
REMARK  Name = Aprepitant
REMARK  9 active torsions:
REMARK  status: ('A' for Active; 'I' for Inactive)
REMARK    1  A    between atoms: C_1  and  C_2
REMARK    2  A    between atoms: C_2  and  O_3
REMARK    3  A    between atoms: C_2  and  C_24
REMARK    4  A    between atoms: O_3  and  C_4
REMARK    5  A    between atoms: N_8  and  C_9
REMARK    6  A    between atoms: C_9  and  C_10
REMARK    7  A    between atoms: C_16  and  C_17
REMARK    8  A    between atoms: C_26  and  C_34
REMARK    9  A    between atoms: C_28  and  C_30
REMARK                            x       y       z     vdW  Elec       q    Type
REMARK                         _______ _______ _______ _____ _____    ______ ____
ROOT
ATOM      1  C   UNL     1      -8.194   2.511 127.764  0.00  0.00    +0.000 C 
ATOM      2  O   UNL     1      -8.903   3.316 128.722  0.00  0.00    +0.000 OA
ATOM      3  C   UNL     1      -8.081   4.394 129.204  0.00  0.00    +0.000 C 
ATOM      4  C   UNL     1      -6.693   3.954 129.743  0.00  0.00    +0.000 C 
ATOM      5  N   UNL     1      -5.940   3.099 128.794  0.00  0.00    +0.000 NA
ATOM      6  C   UNL     1      -6.852   1.983 128.376  0.00  0.00    +0.000 C 
ENDROOT
BRANCH   6   7
ATOM      7  C   UNL     1      -7.135   0.938 129.461  0.00  0.00    +0.000 A 
ATOM      8  C   UNL     1      -8.357   0.920 130.151  0.00  0.00    +0.000 A 
ATOM      9  C   UNL     1      -8.611   0.021 131.166  0.00  0.00    +0.000 A 
ATOM     10  C   UNL     1      -7.683  -0.965 131.423  0.00  0.00    +0.000 A 
ATOM     11  F   UNL     1      -7.943  -1.862 132.380  0.00  0.00    +0.000 F 
ATOM     12  C   UNL     1      -6.503  -1.053 130.690  0.00  0.00    +0.000 A 
ATOM     13  C   UNL     1      -6.214  -0.091 129.721  0.00  0.00    +0.000 A 
ENDBRANCH   6   7
BRANCH   1  14
ATOM     14  O   UNL     1      -9.011   1.458 127.259  0.00  0.00    +0.000 OA
BRANCH  14  16
ATOM     15  C   UNL     1      -9.738   1.154 124.946  0.00  0.00    +0.000 C 
ATOM     16  C   UNL     1      -8.606   1.020 125.959  0.00  0.00    +0.000 C 
BRANCH  16  17
ATOM     17  C   UNL     1      -8.152  -0.415 126.011  0.00  0.00    +0.000 A 
ATOM     18  C   UNL     1      -8.538  -1.295 127.023  0.00  0.00    +0.000 A 
ATOM     19  C   UNL     1      -8.018  -2.592 127.058  0.00  0.00    +0.000 A 
ATOM     20  C   UNL     1      -7.226  -3.043 125.994  0.00  0.00    +0.000 A 
ATOM     21  C   UNL     1      -6.823  -2.169 124.980  0.00  0.00    +0.000 A 
ATOM     22  C   UNL     1      -7.271  -0.853 125.014  0.00  0.00    +0.000 A 
BRANCH  21  23
ATOM     23  C   UNL     1      -5.875  -2.622 123.910  0.00  0.00    +0.000 C 
ATOM     24  F   UNL     1      -6.279  -2.230 122.672  0.00  0.00    +0.000 F 
ATOM     25  F   UNL     1      -4.623  -2.125 124.083  0.00  0.00    +0.000 F 
ATOM     26  F   UNL     1      -5.741  -3.977 123.849  0.00  0.00    +0.000 F 
ENDBRANCH  21  23
BRANCH  19  27
ATOM     27  C   UNL     1      -8.206  -3.445 128.281  0.00  0.00    +0.000 C 
ATOM     28  F   UNL     1      -8.847  -4.612 127.990  0.00  0.00    +0.000 F 
ATOM     29  F   UNL     1      -7.038  -3.788 128.885  0.00  0.00    +0.000 F 
ATOM     30  F   UNL     1      -8.966  -2.840 129.235  0.00  0.00    +0.000 F 
ENDBRANCH  19  27
ENDBRANCH  16  17
ENDBRANCH  14  16
ENDBRANCH   1  14
BRANCH   5  31
ATOM     31  C   UNL     1      -5.539   3.946 127.632  0.00  0.00    +0.000 C 
BRANCH  31  32
ATOM     32  C   UNL     1      -4.048   3.956 127.393  0.00  0.00    +0.000 A 
ATOM     33  N   UNL     1      -3.247   4.930 127.728  0.00  0.00    +0.000 NA
ATOM     34  N   UNL     1      -2.022   4.517 127.315  0.00  0.00    +0.000 N 
ATOM     35  C   UNL     1      -2.106   3.248 126.760  0.00  0.00    +0.000 A 
ATOM     36  O   UNL     1      -1.203   2.584 126.307  0.00  0.00    +0.000 OA
ATOM     37  N   UNL     1      -3.427   2.906 126.838  0.00  0.00    +0.000 N 
ATOM     38  H   UNL     1      -1.193   5.091 127.381  0.00  0.00    +0.000 HD
ATOM     39  H   UNL     1      -3.810   2.033 126.525  0.00  0.00    +0.000 HD
ENDBRANCH  31  32
ENDBRANCH   5  31
TORSDOF 8
ENDMDL
MODEL 7
REMARK VINA RESULT:      -9.5      2.651      3.578
REMARK  Name = Aprepitant
REMARK  9 active torsions:
REMARK  status: ('A' for Active; 'I' for Inactive)
REMARK    1  A    between atoms: C_1  and  C_2
REMARK    2  A    between atoms: C_2  and  O_3
REMARK    3  A    between atoms: C_2  and  C_24
REMARK    4  A    between atoms: O_3  and  C_4
REMARK    5  A    between atoms: N_8  and  C_9
REMARK    6  A    between atoms: C_9  and  C_10
REMARK    7  A    between atoms: C_16  and  C_17
REMARK    8  A    between atoms: C_26  and  C_34
REMARK    9  A    between atoms: C_28  and  C_30
REMARK                            x       y       z     vdW  Elec       q    Type
REMARK                         _______ _______ _______ _____ _____    ______ ____
ROOT
ATOM      1  C   UNL     1      -6.339   1.473 126.291  0.00  0.00    +0.000 C 
ATOM      2  O   UNL     1      -7.296   2.228 127.055  0.00  0.00    +0.000 OA
ATOM      3  C   UNL     1      -8.122   3.037 126.197  0.00  0.00    +0.000 C 
ATOM      4  C   UNL     1      -7.336   3.941 125.210  0.00  0.00    +0.000 C 
ATOM      5  N   UNL     1      -6.319   3.203 124.422  0.00  0.00    +0.000 NA
ATOM      6  C   UNL     1      -5.480   2.424 125.392  0.00  0.00    +0.000 C 
ENDROOT
BRANCH   6   7
ATOM      7  C   UNL     1      -4.537   3.269 126.256  0.00  0.00    +0.000 A 
ATOM      8  C   UNL     1      -3.239   2.829 126.559  0.00  0.00    +0.000 A 
ATOM      9  C   UNL     1      -2.394   3.550 127.377  0.00  0.00    +0.000 A 
ATOM     10  C   UNL     1      -2.796   4.796 127.808  0.00  0.00    +0.000 A 
ATOM     11  F   UNL     1      -1.963   5.514 128.570  0.00  0.00    +0.000 F 
ATOM     12  C   UNL     1      -4.033   5.320 127.445  0.00  0.00    +0.000 A 
ATOM     13  C   UNL     1      -4.916   4.553 126.685  0.00  0.00    +0.000 A 
ENDBRANCH   6   7
BRANCH   1  14
ATOM     14  O   UNL     1      -5.537   0.647 127.131  0.00  0.00    +0.000 OA
BRANCH  14  16
ATOM     15  C   UNL     1      -5.030   0.869 129.511  0.00  0.00    +0.000 C 
ATOM     16  C   UNL     1      -6.071   0.522 128.452  0.00  0.00    +0.000 C 
BRANCH  16  17
ATOM     17  C   UNL     1      -6.566  -0.882 128.683  0.00  0.00    +0.000 A 
ATOM     18  C   UNL     1      -6.143  -1.666 129.757  0.00  0.00    +0.000 A 
ATOM     19  C   UNL     1      -6.580  -2.989 129.871  0.00  0.00    +0.000 A 
ATOM     20  C   UNL     1      -7.553  -3.470 128.985  0.00  0.00    +0.000 A 
ATOM     21  C   UNL     1      -7.975  -2.699 127.899  0.00  0.00    +0.000 A 
ATOM     22  C   UNL     1      -7.456  -1.419 127.744  0.00  0.00    +0.000 A 
BRANCH  21  23
ATOM     23  C   UNL     1      -8.923  -3.263 126.882  0.00  0.00    +0.000 C 
ATOM     24  F   UNL     1      -9.860  -4.068 127.450  0.00  0.00    +0.000 F 
ATOM     25  F   UNL     1      -9.600  -2.295 126.212  0.00  0.00    +0.000 F 
ATOM     26  F   UNL     1      -8.304  -4.021 125.932  0.00  0.00    +0.000 F 
ENDBRANCH  21  23
BRANCH  19  27
ATOM     27  C   UNL     1      -5.921  -3.917 130.854  0.00  0.00    +0.000 C 
ATOM     28  F   UNL     1      -5.920  -5.205 130.410  0.00  0.00    +0.000 F 
ATOM     29  F   UNL     1      -4.626  -3.598 131.112  0.00  0.00    +0.000 F 
ATOM     30  F   UNL     1      -6.555  -3.946 132.058  0.00  0.00    +0.000 F 
ENDBRANCH  19  27
ENDBRANCH  16  17
ENDBRANCH  14  16
ENDBRANCH   1  14
BRANCH   5  31
ATOM     31  C   UNL     1      -7.039   2.304 123.473  0.00  0.00    +0.000 C 
BRANCH  31  32
ATOM     32  C   UNL     1      -7.510   3.014 122.226  0.00  0.00    +0.000 A 
ATOM     33  N   UNL     1      -8.754   3.308 121.962  0.00  0.00    +0.000 NA
ATOM     34  N   UNL     1      -8.705   3.920 120.751  0.00  0.00    +0.000 N 
ATOM     35  C   UNL     1      -7.391   4.021 120.316  0.00  0.00    +0.000 A 
ATOM     36  O   UNL     1      -6.994   4.520 119.290  0.00  0.00    +0.000 OA
ATOM     37  N   UNL     1      -6.640   3.440 121.299  0.00  0.00    +0.000 N 
ATOM     38  H   UNL     1      -9.530   4.213 120.246  0.00  0.00    +0.000 HD
ATOM     39  H   UNL     1      -5.640   3.365 121.284  0.00  0.00    +0.000 HD
ENDBRANCH  31  32
ENDBRANCH   5  31
TORSDOF 8
ENDMDL
MODEL 8
REMARK VINA RESULT:      -9.5      4.121      5.713
REMARK  Name = Aprepitant
REMARK  9 active torsions:
REMARK  status: ('A' for Active; 'I' for Inactive)
REMARK    1  A    between atoms: C_1  and  C_2
REMARK    2  A    between atoms: C_2  and  O_3
REMARK    3  A    between atoms: C_2  and  C_24
REMARK    4  A    between atoms: O_3  and  C_4
REMARK    5  A    between atoms: N_8  and  C_9
REMARK    6  A    between atoms: C_9  and  C_10
REMARK    7  A    between atoms: C_16  and  C_17
REMARK    8  A    between atoms: C_26  and  C_34
REMARK    9  A    between atoms: C_28  and  C_30
REMARK                            x       y       z     vdW  Elec       q    Type
REMARK                         _______ _______ _______ _____ _____    ______ ____
ROOT
ATOM      1  C   UNL     1      -8.243   2.776 128.131  0.00  0.00    +0.000 C 
ATOM      2  O   UNL     1      -9.025   3.411 129.159  0.00  0.00    +0.000 OA
ATOM      3  C   UNL     1      -8.284   4.467 129.797  0.00  0.00    +0.000 C 
ATOM      4  C   UNL     1      -6.884   4.045 130.322  0.00  0.00    +0.000 C 
ATOM      5  N   UNL     1      -6.056   3.362 129.299  0.00  0.00    +0.000 NA
ATOM      6  C   UNL     1      -6.887   2.256 128.716  0.00  0.00    +0.000 C 
ENDROOT
BRANCH   6   7
ATOM      7  C   UNL     1      -7.130   1.067 129.653  0.00  0.00    +0.000 A 
ATOM      8  C   UNL     1      -6.112   0.140 129.928  0.00  0.00    +0.000 A 
ATOM      9  C   UNL     1      -6.325  -0.965 130.727  0.00  0.00    +0.000 A 
ATOM     10  C   UNL     1      -7.538  -1.092 131.369  0.00  0.00    +0.000 A 
ATOM     11  F   UNL     1      -7.734  -2.141 132.174  0.00  0.00    +0.000 F 
ATOM     12  C   UNL     1      -8.540  -0.140 131.210  0.00  0.00    +0.000 A 
ATOM     13  C   UNL     1      -8.349   0.932 130.337  0.00  0.00    +0.000 A 
ENDBRANCH   6   7
BRANCH   1  14
ATOM     14  O   UNL     1      -8.981   1.750 127.474  0.00  0.00    +0.000 OA
BRANCH  14  16
ATOM     15  C   UNL     1      -8.799   1.925 125.044  0.00  0.00    +0.000 C 
ATOM     16  C   UNL     1      -8.310   1.243 126.317  0.00  0.00    +0.000 C 
BRANCH  16  17
ATOM     17  C   UNL     1      -8.524  -0.243 126.199  0.00  0.00    +0.000 A 
ATOM     18  C   UNL     1      -8.453  -1.107 127.293  0.00  0.00    +0.000 A 
ATOM     19  C   UNL     1      -8.583  -2.486 127.104  0.00  0.00    +0.000 A 
ATOM     20  C   UNL     1      -8.928  -2.976 125.838  0.00  0.00    +0.000 A 
ATOM     21  C   UNL     1      -8.991  -2.124 124.733  0.00  0.00    +0.000 A 
ATOM     22  C   UNL     1      -8.762  -0.765 124.921  0.00  0.00    +0.000 A 
BRANCH  21  23
ATOM     23  C   UNL     1      -9.237  -2.669 123.357  0.00  0.00    +0.000 C 
ATOM     24  F   UNL     1     -10.020  -3.781 123.383  0.00  0.00    +0.000 F 
ATOM     25  F   UNL     1      -9.863  -1.774 122.549  0.00  0.00    +0.000 F 
ATOM     26  F   UNL     1      -8.094  -3.031 122.710  0.00  0.00    +0.000 F 
ENDBRANCH  21  23
BRANCH  19  27
ATOM     27  C   UNL     1      -8.234  -3.434 128.218  0.00  0.00    +0.000 C 
ATOM     28  F   UNL     1      -8.515  -4.726 127.888  0.00  0.00    +0.000 F 
ATOM     29  F   UNL     1      -6.921  -3.402 128.563  0.00  0.00    +0.000 F 
ATOM     30  F   UNL     1      -8.935  -3.188 129.359  0.00  0.00    +0.000 F 
ENDBRANCH  19  27
ENDBRANCH  16  17
ENDBRANCH  14  16
ENDBRANCH   1  14
BRANCH   5  31
ATOM     31  C   UNL     1      -5.681   4.370 128.264  0.00  0.00    +0.000 C 
BRANCH  31  32
ATOM     32  C   UNL     1      -4.209   4.356 127.930  0.00  0.00    +0.000 A 
ATOM     33  N   UNL     1      -3.399   5.368 128.089  0.00  0.00    +0.000 NA
ATOM     34  N   UNL     1      -2.198   4.911 127.653  0.00  0.00    +0.000 N 
ATOM     35  C   UNL     1      -2.302   3.581 127.267  0.00  0.00    +0.000 A 
ATOM     36  O   UNL     1      -1.422   2.870 126.844  0.00  0.00    +0.000 OA
ATOM     37  N   UNL     1      -3.611   3.247 127.472  0.00  0.00    +0.000 N 
ATOM     38  H   UNL     1      -1.373   5.491 127.593  0.00  0.00    +0.000 HD
ATOM     39  H   UNL     1      -4.003   2.340 127.296  0.00  0.00    +0.000 HD
ENDBRANCH  31  32
ENDBRANCH   5  31
TORSDOF 8
ENDMDL
MODEL 9
REMARK VINA RESULT:      -9.5      3.852      5.613
REMARK  Name = Aprepitant
REMARK  9 active torsions:
REMARK  status: ('A' for Active; 'I' for Inactive)
REMARK    1  A    between atoms: C_1  and  C_2
REMARK    2  A    between atoms: C_2  and  O_3
REMARK    3  A    between atoms: C_2  and  C_24
REMARK    4  A    between atoms: O_3  and  C_4
REMARK    5  A    between atoms: N_8  and  C_9
REMARK    6  A    between atoms: C_9  and  C_10
REMARK    7  A    between atoms: C_16  and  C_17
REMARK    8  A    between atoms: C_26  and  C_34
REMARK    9  A    between atoms: C_28  and  C_30
REMARK                            x       y       z     vdW  Elec       q    Type
REMARK                         _______ _______ _______ _____ _____    ______ ____
ROOT
ATOM      1  C   UNL     1      -8.224   2.531 127.858  0.00  0.00    +0.000 C 
ATOM      2  O   UNL     1      -8.987   3.349 128.762  0.00  0.00    +0.000 OA
ATOM      3  C   UNL     1      -8.212   4.468 129.229  0.00  0.00    +0.000 C 
ATOM      4  C   UNL     1      -6.830   4.090 129.827  0.00  0.00    +0.000 C 
ATOM      5  N   UNL     1      -6.022   3.223 128.935  0.00  0.00    +0.000 NA
ATOM      6  C   UNL     1      -6.889   2.066 128.531  0.00  0.00    +0.000 C 
ENDROOT
BRANCH   6   7
ATOM      7  C   UNL     1      -7.176   1.053 129.644  0.00  0.00    +0.000 A 
ATOM      8  C   UNL     1      -8.418   1.026 130.298  0.00  0.00    +0.000 A 
ATOM      9  C   UNL     1      -8.679   0.156 131.337  0.00  0.00    +0.000 A 
ATOM     10  C   UNL     1      -7.732  -0.792 131.658  0.00  0.00    +0.000 A 
ATOM     11  F   UNL     1      -7.998  -1.661 132.640  0.00  0.00    +0.000 F 
ATOM     12  C   UNL     1      -6.528  -0.872 130.966  0.00  0.00    +0.000 A 
ATOM     13  C   UNL     1      -6.236   0.061 129.971  0.00  0.00    +0.000 A 
ENDBRANCH   6   7
BRANCH   1  14
ATOM     14  O   UNL     1      -8.995   1.437 127.368  0.00  0.00    +0.000 OA
BRANCH  14  16
ATOM     15  C   UNL     1      -9.808   0.987 125.108  0.00  0.00    +0.000 C 
ATOM     16  C   UNL     1      -8.609   1.038 126.049  0.00  0.00    +0.000 C 
BRANCH  16  17
ATOM     17  C   UNL     1      -7.948  -0.315 126.086  0.00  0.00    +0.000 A 
ATOM     18  C   UNL     1      -7.077  -0.758 125.091  0.00  0.00    +0.000 A 
ATOM     19  C   UNL     1      -6.557  -2.055 125.143  0.00  0.00    +0.000 A 
ATOM     20  C   UNL     1      -6.802  -2.848 126.272  0.00  0.00    +0.000 A 
ATOM     21  C   UNL     1      -7.681  -2.420 127.270  0.00  0.00    +0.000 A 
ATOM     22  C   UNL     1      -8.267  -1.164 127.153  0.00  0.00    +0.000 A 
BRANCH  21  23
ATOM     23  C   UNL     1      -8.038  -3.321 128.414  0.00  0.00    +0.000 C 
ATOM     24  F   UNL     1      -6.937  -3.741 129.094  0.00  0.00    +0.000 F 
ATOM     25  F   UNL     1      -8.844  -2.712 129.322  0.00  0.00    +0.000 F 
ATOM     26  F   UNL     1      -8.692  -4.452 128.025  0.00  0.00    +0.000 F 
ENDBRANCH  21  23
BRANCH  19  27
ATOM     27  C   UNL     1      -5.851  -2.631 123.947  0.00  0.00    +0.000 C 
ATOM     28  F   UNL     1      -5.923  -3.992 123.925  0.00  0.00    +0.000 F 
ATOM     29  F   UNL     1      -6.355  -2.200 122.762  0.00  0.00    +0.000 F 
ATOM     30  F   UNL     1      -4.521  -2.336 123.927  0.00  0.00    +0.000 F 
ENDBRANCH  19  27
ENDBRANCH  16  17
ENDBRANCH  14  16
ENDBRANCH   1  14
BRANCH   5  31
ATOM     31  C   UNL     1      -5.609   4.038 127.755  0.00  0.00    +0.000 C 
BRANCH  31  32
ATOM     32  C   UNL     1      -4.116   4.034 127.526  0.00  0.00    +0.000 A 
ATOM     33  N   UNL     1      -3.313   5.017 127.831  0.00  0.00    +0.000 NA
ATOM     34  N   UNL     1      -2.088   4.584 127.442  0.00  0.00    +0.000 N 
ATOM     35  C   UNL     1      -2.172   3.295 126.933  0.00  0.00    +0.000 A 
ATOM     36  O   UNL     1      -1.270   2.612 126.511  0.00  0.00    +0.000 OA
ATOM     37  N   UNL     1      -3.495   2.962 127.015  0.00  0.00    +0.000 N 
ATOM     38  H   UNL     1      -1.256   5.156 127.492  0.00  0.00    +0.000 HD
ATOM     39  H   UNL     1      -3.880   2.079 126.731  0.00  0.00    +0.000 HD
ENDBRANCH  31  32
ENDBRANCH   5  31
TORSDOF 8
ENDMDL
