MODEL 1
REMARK VINA RESULT:      -7.8      0.000      0.000
REMARK  Name = Apremilast
REMARK  12 active torsions:
REMARK  status: ('A' for Active; 'I' for Inactive)
REMARK    1  A    between atoms: C_1  and  C_2
REMARK    2  A    between atoms: C_2  and  O_3
REMARK    3  A    between atoms: O_3  and  C_4
REMARK    4  A    between atoms: C_6  and  C_12
REMARK    5  A    between atoms: C_9  and  O_10
REMARK    6  A    between atoms: O_10  and  C_11
REMARK    7  A    between atoms: C_12  and  C_13
REMARK    8  A    between atoms: C_12  and  N_18
REMARK    9  A    between atoms: C_13  and  S_14
REMARK   10  A    between atoms: S_14  and  C_15
REMARK   11  A    between atoms: C_25  and  N_26
REMARK   12  A    between atoms: C_27  and  C_28
REMARK                            x       y       z     vdW  Elec       q    Type
REMARK                         _______ _______ _______ _____ _____    ______ ____
ROOT
ATOM      1  C   UNL     1      -6.633   2.495 123.693  0.00  0.00    +0.000 C 
ENDROOT
BRANCH   1   2
ATOM      2  N   UNL     1      -6.780   3.155 125.153  0.00  0.00    +0.000 N 
ATOM      3  C   UNL     1      -5.728   2.977 126.002  0.00  0.00    +0.000 C 
ATOM      4  O   UNL     1      -4.815   2.203 125.909  0.00  0.00    +0.000 OA
ATOM      5  C   UNL     1      -5.952   3.772 127.199  0.00  0.00    +0.000 A 
ATOM      6  C   UNL     1      -4.979   4.186 128.082  0.00  0.00    +0.000 A 
ATOM      7  C   UNL     1      -5.372   4.659 129.321  0.00  0.00    +0.000 A 
ATOM      8  C   UNL     1      -6.731   4.665 129.652  0.00  0.00    +0.000 A 
ATOM      9  C   UNL     1      -7.729   4.270 128.709  0.00  0.00    +0.000 A 
ATOM     10  C   UNL     1      -7.294   3.963 127.379  0.00  0.00    +0.000 A 
ATOM     11  C   UNL     1      -7.794   3.718 125.939  0.00  0.00    +0.000 C 
ATOM     12  O   UNL     1      -8.904   4.093 125.599  0.00  0.00    +0.000 OA
BRANCH   9  13
ATOM     13  N   UNL     1      -9.004   4.108 129.331  0.00  0.00    +0.000 N 
ATOM     14  C   UNL     1      -9.967   5.018 129.670  0.00  0.00    +0.000 C 
ATOM     15  C   UNL     1      -9.721   6.451 129.377  0.00  0.00    +0.000 C 
ATOM     16  O   UNL     1     -11.025   4.647 130.178  0.00  0.00    +0.000 OA
ATOM     17  H   UNL     1      -9.389   3.164 129.399  0.00  0.00    +0.000 HD
ENDBRANCH   9  13
ENDBRANCH   1   2
BRANCH   1  20
ATOM     18  C   UNL     1      -7.288  -1.330 123.086  0.00  0.00    +0.000 A 
ATOM     19  C   UNL     1      -6.639  -0.091 123.293  0.00  0.00    +0.000 A 
ATOM     20  C   UNL     1      -7.314   1.153 123.447  0.00  0.00    +0.000 A 
ATOM     21  C   UNL     1      -8.677   1.099 123.325  0.00  0.00    +0.000 A 
ATOM     22  C   UNL     1      -9.334  -0.106 123.459  0.00  0.00    +0.000 A 
ATOM     23  C   UNL     1      -8.671  -1.328 123.318  0.00  0.00    +0.000 A 
BRANCH  23  24
ATOM     24  O   UNL     1      -9.588  -2.332 123.509  0.00  0.00    +0.000 OA
ATOM     25  C   UNL     1      -9.316  -3.122 124.616  0.00  0.00    +0.000 C 
ENDBRANCH  23  24
BRANCH  18  26
ATOM     26  O   UNL     1      -6.392  -2.367 122.883  0.00  0.00    +0.000 OA
BRANCH  26  28
ATOM     27  C   UNL     1      -4.508  -3.841 123.566  0.00  0.00    +0.000 C 
ATOM     28  C   UNL     1      -5.478  -2.735 123.920  0.00  0.00    +0.000 C 
ENDBRANCH  26  28
ENDBRANCH  18  26
ENDBRANCH   1  20
BRANCH   1  29
ATOM     29  C   UNL     1      -7.055   3.521 122.591  0.00  0.00    +0.000 C 
BRANCH  29  30
ATOM     30  S   UNL     1      -5.967   3.826 121.183  0.00  0.00    +0.000 S 
ATOM     31  C   UNL     1      -7.047   4.231 119.804  0.00  0.00    +0.000 C 
ATOM     32  O   UNL     1      -5.091   4.947 121.463  0.00  0.00    +0.000 OA
ATOM     33  O   UNL     1      -5.333   2.564 120.843  0.00  0.00    +0.000 OA
ENDBRANCH  29  30
ENDBRANCH   1  29
TORSDOF 8
ENDMDL
MODEL 2
REMARK VINA RESULT:      -7.8      3.105      4.503
REMARK  Name = Apremilast
REMARK  12 active torsions:
REMARK  status: ('A' for Active; 'I' for Inactive)
REMARK    1  A    between atoms: C_1  and  C_2
REMARK    2  A    between atoms: C_2  and  O_3
REMARK    3  A    between atoms: O_3  and  C_4
REMARK    4  A    between atoms: C_6  and  C_12
REMARK    5  A    between atoms: C_9  and  O_10
REMARK    6  A    between atoms: O_10  and  C_11
REMARK    7  A    between atoms: C_12  and  C_13
REMARK    8  A    between atoms: C_12  and  N_18
REMARK    9  A    between atoms: C_13  and  S_14
REMARK   10  A    between atoms: S_14  and  C_15
REMARK   11  A    between atoms: C_25  and  N_26
REMARK   12  A    between atoms: C_27  and  C_28
REMARK                            x       y       z     vdW  Elec       q    Type
REMARK                         _______ _______ _______ _____ _____    ______ ____
ROOT
ATOM      1  C   UNL     1      -7.333   2.712 127.731  0.00  0.00    +0.000 C 
ENDROOT
BRANCH   1   2
ATOM      2  N   UNL     1      -8.131   3.779 128.632  0.00  0.00    +0.000 N 
ATOM      3  C   UNL     1      -8.333   3.433 129.936  0.00  0.00    +0.000 C 
ATOM      4  O   UNL     1      -8.218   2.354 130.449  0.00  0.00    +0.000 OA
ATOM      5  C   UNL     1      -8.911   4.568 130.638  0.00  0.00    +0.000 A 
ATOM      6  C   UNL     1      -8.880   4.770 132.000  0.00  0.00    +0.000 A 
ATOM      7  C   UNL     1      -9.729   5.718 132.545  0.00  0.00    +0.000 A 
ATOM      8  C   UNL     1     -10.613   6.407 131.709  0.00  0.00    +0.000 A 
ATOM      9  C   UNL     1     -10.602   6.213 130.293  0.00  0.00    +0.000 A 
ATOM     10  C   UNL     1      -9.585   5.362 129.752  0.00  0.00    +0.000 A 
ATOM     11  C   UNL     1      -8.902   4.931 128.435  0.00  0.00    +0.000 C 
ATOM     12  O   UNL     1      -8.998   5.624 127.435  0.00  0.00    +0.000 OA
BRANCH   9  13
ATOM     13  N   UNL     1     -11.741   6.812 129.673  0.00  0.00    +0.000 N 
ATOM     14  C   UNL     1     -11.847   7.845 128.784  0.00  0.00    +0.000 C 
ATOM     15  C   UNL     1     -10.607   8.522 128.333  0.00  0.00    +0.000 C 
ATOM     16  O   UNL     1     -12.947   8.181 128.346  0.00  0.00    +0.000 OA
ATOM     17  H   UNL     1     -12.634   6.319 129.730  0.00  0.00    +0.000 HD
ENDBRANCH   9  13
ENDBRANCH   1   2
BRANCH   1  20
ATOM     18  C   UNL     1      -9.333   0.166 125.507  0.00  0.00    +0.000 A 
ATOM     19  C   UNL     1      -8.626   0.746 126.584  0.00  0.00    +0.000 A 
ATOM     20  C   UNL     1      -8.079   2.060 126.571  0.00  0.00    +0.000 A 
ATOM     21  C   UNL     1      -8.229   2.746 125.395  0.00  0.00    +0.000 A 
ATOM     22  C   UNL     1      -9.180   2.344 124.479  0.00  0.00    +0.000 A 
ATOM     23  C   UNL     1      -9.724   1.057 124.497  0.00  0.00    +0.000 A 
BRANCH  23  24
ATOM     24  O   UNL     1     -10.634   0.969 123.473  0.00  0.00    +0.000 OA
ATOM     25  C   UNL     1     -10.172   0.235 122.389  0.00  0.00    +0.000 C 
ENDBRANCH  23  24
BRANCH  18  26
ATOM     26  O   UNL     1      -9.679  -1.153 125.753  0.00  0.00    +0.000 OA
BRANCH  26  28
ATOM     27  C   UNL     1      -9.231  -3.004 124.152  0.00  0.00    +0.000 C 
ATOM     28  C   UNL     1      -8.795  -2.208 125.363  0.00  0.00    +0.000 C 
ENDBRANCH  26  28
ENDBRANCH  18  26
ENDBRANCH   1  20
BRANCH   1  29
ATOM     29  C   UNL     1      -5.989   3.329 127.225  0.00  0.00    +0.000 C 
BRANCH  29  30
ATOM     30  S   UNL     1      -4.489   2.325 127.208  0.00  0.00    +0.000 S 
ATOM     31  C   UNL     1      -3.202   3.374 126.518  0.00  0.00    +0.000 C 
ATOM     32  O   UNL     1      -4.131   1.938 128.558  0.00  0.00    +0.000 OA
ATOM     33  O   UNL     1      -4.694   1.254 126.248  0.00  0.00    +0.000 OA
ENDBRANCH  29  30
ENDBRANCH   1  29
TORSDOF 8
ENDMDL
MODEL 3
REMARK VINA RESULT:      -7.8      3.166      4.556
REMARK  Name = Apremilast
REMARK  12 active torsions:
REMARK  status: ('A' for Active; 'I' for Inactive)
REMARK    1  A    between atoms: C_1  and  C_2
REMARK    2  A    between atoms: C_2  and  O_3
REMARK    3  A    between atoms: O_3  and  C_4
REMARK    4  A    between atoms: C_6  and  C_12
REMARK    5  A    between atoms: C_9  and  O_10
REMARK    6  A    between atoms: O_10  and  C_11
REMARK    7  A    between atoms: C_12  and  C_13
REMARK    8  A    between atoms: C_12  and  N_18
REMARK    9  A    between atoms: C_13  and  S_14
REMARK   10  A    between atoms: S_14  and  C_15
REMARK   11  A    between atoms: C_25  and  N_26
REMARK   12  A    between atoms: C_27  and  C_28
REMARK                            x       y       z     vdW  Elec       q    Type
REMARK                         _______ _______ _______ _____ _____    ______ ____
ROOT
ATOM      1  C   UNL     1      -6.874   2.188 127.929  0.00  0.00    +0.000 C 
ENDROOT
BRANCH   1   2
ATOM      2  N   UNL     1      -7.609   3.390 128.705  0.00  0.00    +0.000 N 
ATOM      3  C   UNL     1      -7.646   3.294 130.065  0.00  0.00    +0.000 C 
ATOM      4  O   UNL     1      -7.426   2.334 130.753  0.00  0.00    +0.000 OA
ATOM      5  C   UNL     1      -8.188   4.529 130.609  0.00  0.00    +0.000 A 
ATOM      6  C   UNL     1      -8.010   4.986 131.896  0.00  0.00    +0.000 A 
ATOM      7  C   UNL     1      -8.832   6.002 132.353  0.00  0.00    +0.000 A 
ATOM      8  C   UNL     1      -9.835   6.501 131.516  0.00  0.00    +0.000 A 
ATOM      9  C   UNL     1      -9.977   6.043 130.170  0.00  0.00    +0.000 A 
ATOM     10  C   UNL     1      -8.993   5.126 129.678  0.00  0.00    +0.000 A 
ATOM     11  C   UNL     1      -8.447   4.468 128.392  0.00  0.00    +0.000 C 
ATOM     12  O   UNL     1      -8.686   4.956 127.300  0.00  0.00    +0.000 OA
BRANCH   9  13
ATOM     13  N   UNL     1     -11.204   6.489 129.591  0.00  0.00    +0.000 N 
ATOM     14  C   UNL     1     -11.478   7.518 128.733  0.00  0.00    +0.000 C 
ATOM     15  C   UNL     1     -10.357   8.375 128.275  0.00  0.00    +0.000 C 
ATOM     16  O   UNL     1     -12.625   7.705 128.328  0.00  0.00    +0.000 OA
ATOM     17  H   UNL     1     -12.017   5.873 129.653  0.00  0.00    +0.000 HD
ENDBRANCH   9  13
ENDBRANCH   1   2
BRANCH   1  20
ATOM     18  C   UNL     1      -9.533   0.397 125.660  0.00  0.00    +0.000 A 
ATOM     19  C   UNL     1      -8.746   1.393 126.282  0.00  0.00    +0.000 A 
ATOM     20  C   UNL     1      -7.748   1.131 127.263  0.00  0.00    +0.000 A 
ATOM     21  C   UNL     1      -7.619  -0.182 127.632  0.00  0.00    +0.000 A 
ATOM     22  C   UNL     1      -8.121  -1.178 126.821  0.00  0.00    +0.000 A 
ATOM     23  C   UNL     1      -9.094  -0.921 125.851  0.00  0.00    +0.000 A 
BRANCH  23  24
ATOM     24  O   UNL     1      -9.380  -2.103 125.215  0.00  0.00    +0.000 OA
ATOM     25  C   UNL     1      -8.398  -2.498 124.319  0.00  0.00    +0.000 C 
ENDBRANCH  23  24
BRANCH  18  26
ATOM     26  O   UNL     1     -10.485   0.934 124.809  0.00  0.00    +0.000 OA
BRANCH  26  28
ATOM     27  C   UNL     1     -10.140   0.301 122.427  0.00  0.00    +0.000 C 
ATOM     28  C   UNL     1     -10.109   1.369 123.499  0.00  0.00    +0.000 C 
ENDBRANCH  26  28
ENDBRANCH  18  26
ENDBRANCH   1  20
BRANCH   1  29
ATOM     29  C   UNL     1      -5.845   2.759 126.900  0.00  0.00    +0.000 C 
BRANCH  29  30
ATOM     30  S   UNL     1      -4.641   3.998 127.426  0.00  0.00    +0.000 S 
ATOM     31  C   UNL     1      -3.178   3.723 126.417  0.00  0.00    +0.000 C 
ATOM     32  O   UNL     1      -5.157   5.331 127.183  0.00  0.00    +0.000 OA
ATOM     33  O   UNL     1      -4.257   3.678 128.790  0.00  0.00    +0.000 OA
ENDBRANCH  29  30
ENDBRANCH   1  29
TORSDOF 8
ENDMDL
MODEL 4
REMARK VINA RESULT:      -7.8      2.987      7.607
REMARK  Name = Apremilast
REMARK  12 active torsions:
REMARK  status: ('A' for Active; 'I' for Inactive)
REMARK    1  A    between atoms: C_1  and  C_2
REMARK    2  A    between atoms: C_2  and  O_3
REMARK    3  A    between atoms: O_3  and  C_4
REMARK    4  A    between atoms: C_6  and  C_12
REMARK    5  A    between atoms: C_9  and  O_10
REMARK    6  A    between atoms: O_10  and  C_11
REMARK    7  A    between atoms: C_12  and  C_13
REMARK    8  A    between atoms: C_12  and  N_18
REMARK    9  A    between atoms: C_13  and  S_14
REMARK   10  A    between atoms: S_14  and  C_15
REMARK   11  A    between atoms: C_25  and  N_26
REMARK   12  A    between atoms: C_27  and  C_28
REMARK                            x       y       z     vdW  Elec       q    Type
REMARK                         _______ _______ _______ _____ _____    ______ ____
ROOT
ATOM      1  C   UNL     1      -6.293   4.302 128.011  0.00  0.00    +0.000 C 
ENDROOT
BRANCH   1   2
ATOM      2  N   UNL     1      -6.583   3.813 126.506  0.00  0.00    +0.000 N 
ATOM      3  C   UNL     1      -6.144   4.636 125.511  0.00  0.00    +0.000 C 
ATOM      4  O   UNL     1      -5.789   5.780 125.590  0.00  0.00    +0.000 OA
ATOM      5  C   UNL     1      -6.334   3.970 124.233  0.00  0.00    +0.000 A 
ATOM      6  C   UNL     1      -5.667   4.267 123.065  0.00  0.00    +0.000 A 
ATOM      7  C   UNL     1      -6.170   3.770 121.875  0.00  0.00    +0.000 A 
ATOM      8  C   UNL     1      -7.351   3.020 121.890  0.00  0.00    +0.000 A 
ATOM      9  C   UNL     1      -8.006   2.688 123.115  0.00  0.00    +0.000 A 
ATOM     10  C   UNL     1      -7.355   3.065 124.334  0.00  0.00    +0.000 A 
ATOM     11  C   UNL     1      -7.368   2.848 125.863  0.00  0.00    +0.000 C 
ATOM     12  O   UNL     1      -7.931   1.877 126.344  0.00  0.00    +0.000 OA
BRANCH   9  13
ATOM     13  N   UNL     1      -9.308   2.150 122.885  0.00  0.00    +0.000 N 
ATOM     14  C   UNL     1      -9.785   0.871 122.963  0.00  0.00    +0.000 C 
ATOM     15  C   UNL     1      -8.848  -0.212 123.348  0.00  0.00    +0.000 C 
ATOM     16  O   UNL     1     -10.974   0.633 122.750  0.00  0.00    +0.000 OA
ATOM     17  H   UNL     1     -10.092   2.801 122.815  0.00  0.00    +0.000 HD
ENDBRANCH   9  13
ENDBRANCH   1   2
BRANCH   1  20
ATOM     18  C   UNL     1      -9.588   3.932 130.116  0.00  0.00    +0.000 A 
ATOM     19  C   UNL     1      -8.664   4.316 129.118  0.00  0.00    +0.000 A 
ATOM     20  C   UNL     1      -7.298   3.917 129.091  0.00  0.00    +0.000 A 
ATOM     21  C   UNL     1      -6.889   3.156 130.154  0.00  0.00    +0.000 A 
ATOM     22  C   UNL     1      -7.822   2.507 130.937  0.00  0.00    +0.000 A 
ATOM     23  C   UNL     1      -9.165   2.891 130.956  0.00  0.00    +0.000 A 
BRANCH  23  24
ATOM     24  O   UNL     1      -9.831   2.059 131.821  0.00  0.00    +0.000 OA
ATOM     25  C   UNL     1      -9.355   0.755 131.805  0.00  0.00    +0.000 C 
ENDBRANCH  23  24
BRANCH  18  26
ATOM     26  O   UNL     1     -10.826   4.531 129.948  0.00  0.00    +0.000 OA
BRANCH  26  28
ATOM     27  C   UNL     1     -10.232   6.390 131.490  0.00  0.00    +0.000 C 
ATOM     28  C   UNL     1     -11.294   5.486 130.905  0.00  0.00    +0.000 C 
ENDBRANCH  26  28
ENDBRANCH  18  26
ENDBRANCH   1  20
BRANCH   1  29
ATOM     29  C   UNL     1      -4.851   3.883 128.447  0.00  0.00    +0.000 C 
BRANCH  29  30
ATOM     30  S   UNL     1      -3.548   5.128 128.557  0.00  0.00    +0.000 S 
ATOM     31  C   UNL     1      -2.924   5.041 130.240  0.00  0.00    +0.000 C 
ATOM     32  O   UNL     1      -2.482   4.819 127.624  0.00  0.00    +0.000 OA
ATOM     33  O   UNL     1      -4.180   6.430 128.428  0.00  0.00    +0.000 OA
ENDBRANCH  29  30
ENDBRANCH   1  29
TORSDOF 8
ENDMDL
MODEL 5
REMARK VINA RESULT:      -7.7      3.133      4.780
REMARK  Name = Apremilast
REMARK  12 active torsions:
REMARK  status: ('A' for Active; 'I' for Inactive)
REMARK    1  A    between atoms: C_1  and  C_2
REMARK    2  A    between atoms: C_2  and  O_3
REMARK    3  A    between atoms: O_3  and  C_4
REMARK    4  A    between atoms: C_6  and  C_12
REMARK    5  A    between atoms: C_9  and  O_10
REMARK    6  A    between atoms: O_10  and  C_11
REMARK    7  A    between atoms: C_12  and  C_13
REMARK    8  A    between atoms: C_12  and  N_18
REMARK    9  A    between atoms: C_13  and  S_14
REMARK   10  A    between atoms: S_14  and  C_15
REMARK   11  A    between atoms: C_25  and  N_26
REMARK   12  A    between atoms: C_27  and  C_28
REMARK                            x       y       z     vdW  Elec       q    Type
REMARK                         _______ _______ _______ _____ _____    ______ ____
ROOT
ATOM      1  C   UNL     1      -6.285   2.951 126.811  0.00  0.00    +0.000 C 
ENDROOT
BRANCH   1   2
ATOM      2  N   UNL     1      -7.195   2.922 128.138  0.00  0.00    +0.000 N 
ATOM      3  C   UNL     1      -7.559   1.689 128.592  0.00  0.00    +0.000 C 
ATOM      4  O   UNL     1      -7.503   0.635 128.018  0.00  0.00    +0.000 OA
ATOM      5  C   UNL     1      -8.225   1.839 129.875  0.00  0.00    +0.000 A 
ATOM      6  C   UNL     1      -8.367   0.852 130.826  0.00  0.00    +0.000 A 
ATOM      7  C   UNL     1      -9.283   1.048 131.846  0.00  0.00    +0.000 A 
ATOM      8  C   UNL     1     -10.058   2.212 131.857  0.00  0.00    +0.000 A 
ATOM      9  C   UNL     1      -9.868   3.242 130.885  0.00  0.00    +0.000 A 
ATOM     10  C   UNL     1      -8.786   3.083 129.959  0.00  0.00    +0.000 A 
ATOM     11  C   UNL     1      -7.941   3.828 128.902  0.00  0.00    +0.000 C 
ATOM     12  O   UNL     1      -7.913   5.048 128.883  0.00  0.00    +0.000 OA
BRANCH   9  13
ATOM     13  N   UNL     1     -10.922   4.204 130.927  0.00  0.00    +0.000 N 
ATOM     14  C   UNL     1     -10.933   5.516 131.312  0.00  0.00    +0.000 C 
ATOM     15  C   UNL     1      -9.667   6.126 131.786  0.00  0.00    +0.000 C 
ATOM     16  O   UNL     1     -11.967   6.181 131.235  0.00  0.00    +0.000 OA
ATOM     17  H   UNL     1     -11.793   3.985 130.440  0.00  0.00    +0.000 HD
ENDBRANCH   9  13
ENDBRANCH   1   2
BRANCH   1  20
ATOM     18  C   UNL     1      -7.017   2.909 122.953  0.00  0.00    +0.000 A 
ATOM     19  C   UNL     1      -6.344   2.946 124.195  0.00  0.00    +0.000 A 
ATOM     20  C   UNL     1      -6.994   2.935 125.461  0.00  0.00    +0.000 A 
ATOM     21  C   UNL     1      -8.363   2.943 125.417  0.00  0.00    +0.000 A 
ATOM     22  C   UNL     1      -9.018   2.576 124.260  0.00  0.00    +0.000 A 
ATOM     23  C   UNL     1      -8.378   2.577 123.018  0.00  0.00    +0.000 A 
BRANCH  23  24
ATOM     24  O   UNL     1      -9.286   2.165 122.074  0.00  0.00    +0.000 OA
ATOM     25  C   UNL     1     -10.029   1.062 122.471  0.00  0.00    +0.000 C 
ENDBRANCH  23  24
BRANCH  18  26
ATOM     26  O   UNL     1      -6.148   3.018 121.879  0.00  0.00    +0.000 OA
BRANCH  26  28
ATOM     27  C   UNL     1      -5.409   4.734 120.236  0.00  0.00    +0.000 C 
ATOM     28  C   UNL     1      -6.503   3.826 120.752  0.00  0.00    +0.000 C 
ENDBRANCH  26  28
ENDBRANCH  18  26
ENDBRANCH   1  20
BRANCH   1  29
ATOM     29  C   UNL     1      -5.276   4.143 126.874  0.00  0.00    +0.000 C 
BRANCH  29  30
ATOM     30  S   UNL     1      -3.554   3.840 127.322  0.00  0.00    +0.000 S 
ATOM     31  C   UNL     1      -2.932   5.398 127.970  0.00  0.00    +0.000 C 
ATOM     32  O   UNL     1      -3.477   2.820 128.349  0.00  0.00    +0.000 OA
ATOM     33  O   UNL     1      -2.822   3.594 126.092  0.00  0.00    +0.000 OA
ENDBRANCH  29  30
ENDBRANCH   1  29
TORSDOF 8
ENDMDL
MODEL 6
REMARK VINA RESULT:      -7.6      3.939      9.012
REMARK  Name = Apremilast
REMARK  12 active torsions:
REMARK  status: ('A' for Active; 'I' for Inactive)
REMARK    1  A    between atoms: C_1  and  C_2
REMARK    2  A    between atoms: C_2  and  O_3
REMARK    3  A    between atoms: O_3  and  C_4
REMARK    4  A    between atoms: C_6  and  C_12
REMARK    5  A    between atoms: C_9  and  O_10
REMARK    6  A    between atoms: O_10  and  C_11
REMARK    7  A    between atoms: C_12  and  C_13
REMARK    8  A    between atoms: C_12  and  N_18
REMARK    9  A    between atoms: C_13  and  S_14
REMARK   10  A    between atoms: S_14  and  C_15
REMARK   11  A    between atoms: C_25  and  N_26
REMARK   12  A    between atoms: C_27  and  C_28
REMARK                            x       y       z     vdW  Elec       q    Type
REMARK                         _______ _______ _______ _____ _____    ______ ____
ROOT
ATOM      1  C   UNL     1      -8.406   4.560 130.783  0.00  0.00    +0.000 C 
ENDROOT
BRANCH   1   2
ATOM      2  N   UNL     1      -7.859   3.746 129.508  0.00  0.00    +0.000 N 
ATOM      3  C   UNL     1      -6.685   4.187 128.971  0.00  0.00    +0.000 C 
ATOM      4  O   UNL     1      -6.125   5.233 129.156  0.00  0.00    +0.000 OA
ATOM      5  C   UNL     1      -6.254   3.247 127.948  0.00  0.00    +0.000 A 
ATOM      6  C   UNL     1      -4.967   3.105 127.479  0.00  0.00    +0.000 A 
ATOM      7  C   UNL     1      -4.769   2.403 126.303  0.00  0.00    +0.000 A 
ATOM      8  C   UNL     1      -5.875   1.898 125.612  0.00  0.00    +0.000 A 
ATOM      9  C   UNL     1      -7.198   2.020 126.135  0.00  0.00    +0.000 A 
ATOM     10  C   UNL     1      -7.341   2.590 127.441  0.00  0.00    +0.000 A 
ATOM     11  C   UNL     1      -8.341   2.794 128.601  0.00  0.00    +0.000 C 
ATOM     12  O   UNL     1      -9.339   2.097 128.684  0.00  0.00    +0.000 OA
BRANCH   9  13
ATOM     13  N   UNL     1      -8.182   1.671 125.160  0.00  0.00    +0.000 N 
ATOM     14  C   UNL     1      -8.976   0.565 125.033  0.00  0.00    +0.000 C 
ATOM     15  C   UNL     1      -8.856  -0.513 126.044  0.00  0.00    +0.000 C 
ATOM     16  O   UNL     1      -9.793   0.486 124.116  0.00  0.00    +0.000 OA
ATOM     17  H   UNL     1      -8.514   2.403 124.529  0.00  0.00    +0.000 HD
ENDBRANCH   9  13
ENDBRANCH   1   2
BRANCH   1  20
ATOM     18  C   UNL     1     -10.529   7.418 129.122  0.00  0.00    +0.000 A 
ATOM     19  C   UNL     1      -9.554   6.418 129.340  0.00  0.00    +0.000 A 
ATOM     20  C   UNL     1      -9.437   5.657 130.538  0.00  0.00    +0.000 A 
ATOM     21  C   UNL     1     -10.317   5.992 131.532  0.00  0.00    +0.000 A 
ATOM     22  C   UNL     1     -11.459   6.704 131.232  0.00  0.00    +0.000 A 
ATOM     23  C   UNL     1     -11.579   7.444 130.053  0.00  0.00    +0.000 A 
BRANCH  23  24
ATOM     24  O   UNL     1     -12.820   8.030 130.045  0.00  0.00    +0.000 OA
ATOM     25  C   UNL     1     -12.794   9.368 129.676  0.00  0.00    +0.000 C 
ENDBRANCH  23  24
BRANCH  18  26
ATOM     26  O   UNL     1     -10.363   8.061 127.907  0.00  0.00    +0.000 OA
BRANCH  26  28
ATOM     27  C   UNL     1     -12.224   7.161 126.522  0.00  0.00    +0.000 C 
ATOM     28  C   UNL     1     -10.740   7.403 126.693  0.00  0.00    +0.000 C 
ENDBRANCH  26  28
ENDBRANCH  18  26
ENDBRANCH   1  20
BRANCH   1  29
ATOM     29  C   UNL     1      -8.927   3.569 131.874  0.00  0.00    +0.000 C 
BRANCH  29  30
ATOM     30  S   UNL     1      -8.012   3.371 133.418  0.00  0.00    +0.000 S 
ATOM     31  C   UNL     1      -6.423   4.171 133.155  0.00  0.00    +0.000 C 
ATOM     32  O   UNL     1      -8.714   4.028 134.503  0.00  0.00    +0.000 OA
ATOM     33  O   UNL     1      -7.730   1.955 133.577  0.00  0.00    +0.000 OA
ENDBRANCH  29  30
ENDBRANCH   1  29
TORSDOF 8
ENDMDL
MODEL 7
REMARK VINA RESULT:      -7.6      4.142      9.140
REMARK  Name = Apremilast
REMARK  12 active torsions:
REMARK  status: ('A' for Active; 'I' for Inactive)
REMARK    1  A    between atoms: C_1  and  C_2
REMARK    2  A    between atoms: C_2  and  O_3
REMARK    3  A    between atoms: O_3  and  C_4
REMARK    4  A    between atoms: C_6  and  C_12
REMARK    5  A    between atoms: C_9  and  O_10
REMARK    6  A    between atoms: O_10  and  C_11
REMARK    7  A    between atoms: C_12  and  C_13
REMARK    8  A    between atoms: C_12  and  N_18
REMARK    9  A    between atoms: C_13  and  S_14
REMARK   10  A    between atoms: S_14  and  C_15
REMARK   11  A    between atoms: C_25  and  N_26
REMARK   12  A    between atoms: C_27  and  C_28
REMARK                            x       y       z     vdW  Elec       q    Type
REMARK                         _______ _______ _______ _____ _____    ______ ____
ROOT
ATOM      1  C   UNL     1      -7.668   5.007 131.343  0.00  0.00    +0.000 C 
ENDROOT
BRANCH   1   2
ATOM      2  N   UNL     1      -6.675   4.676 130.121  0.00  0.00    +0.000 N 
ATOM      3  C   UNL     1      -5.396   5.134 130.245  0.00  0.00    +0.000 C 
ATOM      4  O   UNL     1      -4.965   5.949 131.013  0.00  0.00    +0.000 OA
ATOM      5  C   UNL     1      -4.601   4.607 129.147  0.00  0.00    +0.000 A 
ATOM      6  C   UNL     1      -3.228   4.490 129.133  0.00  0.00    +0.000 A 
ATOM      7  C   UNL     1      -2.599   4.269 127.920  0.00  0.00    +0.000 A 
ATOM      8  C   UNL     1      -3.364   4.211 126.751  0.00  0.00    +0.000 A 
ATOM      9  C   UNL     1      -4.790   4.294 126.790  0.00  0.00    +0.000 A 
ATOM     10  C   UNL     1      -5.413   4.337 128.080  0.00  0.00    +0.000 A 
ATOM     11  C   UNL     1      -6.771   4.211 128.804  0.00  0.00    +0.000 C 
ATOM     12  O   UNL     1      -7.716   3.669 128.253  0.00  0.00    +0.000 OA
BRANCH   9  13
ATOM     13  N   UNL     1      -5.342   4.471 125.485  0.00  0.00    +0.000 N 
ATOM     14  C   UNL     1      -5.968   3.596 124.642  0.00  0.00    +0.000 C 
ATOM     15  C   UNL     1      -6.146   2.191 125.083  0.00  0.00    +0.000 C 
ATOM     16  O   UNL     1      -6.402   3.978 123.555  0.00  0.00    +0.000 OA
ATOM     17  H   UNL     1      -5.474   5.425 125.145  0.00  0.00    +0.000 HD
ENDBRANCH   9  13
ENDBRANCH   1   2
BRANCH   1  20
ATOM     18  C   UNL     1     -10.116   7.596 129.692  0.00  0.00    +0.000 A 
ATOM     19  C   UNL     1      -8.988   6.784 129.948  0.00  0.00    +0.000 A 
ATOM     20  C   UNL     1      -8.866   5.907 131.062  0.00  0.00    +0.000 A 
ATOM     21  C   UNL     1      -9.915   5.929 131.943  0.00  0.00    +0.000 A 
ATOM     22  C   UNL     1     -11.134   6.441 131.550  0.00  0.00    +0.000 A 
ATOM     23  C   UNL     1     -11.257   7.295 130.451  0.00  0.00    +0.000 A 
BRANCH  23  24
ATOM     24  O   UNL     1     -12.582   7.626 130.318  0.00  0.00    +0.000 OA
ATOM     25  C   UNL     1     -13.249   6.858 129.374  0.00  0.00    +0.000 C 
ENDBRANCH  23  24
BRANCH  18  26
ATOM     26  O   UNL     1      -9.936   8.416 128.590  0.00  0.00    +0.000 OA
BRANCH  26  28
ATOM     27  C   UNL     1     -10.717   7.210 126.559  0.00  0.00    +0.000 C 
ATOM     28  C   UNL     1     -10.874   8.376 127.509  0.00  0.00    +0.000 C 
ENDBRANCH  26  28
ENDBRANCH  18  26
ENDBRANCH   1  20
BRANCH   1  29
ATOM     29  C   UNL     1      -8.139   3.684 132.029  0.00  0.00    +0.000 C 
BRANCH  29  30
ATOM     30  S   UNL     1      -7.654   3.333 133.733  0.00  0.00    +0.000 S 
ATOM     31  C   UNL     1      -6.006   4.026 133.928  0.00  0.00    +0.000 C 
ATOM     32  O   UNL     1      -8.567   3.979 134.655  0.00  0.00    +0.000 OA
ATOM     33  O   UNL     1      -7.504   1.893 133.853  0.00  0.00    +0.000 OA
ENDBRANCH  29  30
ENDBRANCH   1  29
TORSDOF 8
ENDMDL
MODEL 8
REMARK VINA RESULT:      -7.4      3.690      5.396
REMARK  Name = Apremilast
REMARK  12 active torsions:
REMARK  status: ('A' for Active; 'I' for Inactive)
REMARK    1  A    between atoms: C_1  and  C_2
REMARK    2  A    between atoms: C_2  and  O_3
REMARK    3  A    between atoms: O_3  and  C_4
REMARK    4  A    between atoms: C_6  and  C_12
REMARK    5  A    between atoms: C_9  and  O_10
REMARK    6  A    between atoms: O_10  and  C_11
REMARK    7  A    between atoms: C_12  and  C_13
REMARK    8  A    between atoms: C_12  and  N_18
REMARK    9  A    between atoms: C_13  and  S_14
REMARK   10  A    between atoms: S_14  and  C_15
REMARK   11  A    between atoms: C_25  and  N_26
REMARK   12  A    between atoms: C_27  and  C_28
REMARK                            x       y       z     vdW  Elec       q    Type
REMARK                         _______ _______ _______ _____ _____    ______ ____
ROOT
ATOM      1  C   UNL     1      -6.947   2.785 128.876  0.00  0.00    +0.000 C 
ENDROOT
BRANCH   1   2
ATOM      2  N   UNL     1      -8.027   3.867 129.379  0.00  0.00    +0.000 N 
ATOM      3  C   UNL     1      -8.490   3.708 130.652  0.00  0.00    +0.000 C 
ATOM      4  O   UNL     1      -8.395   2.748 131.366  0.00  0.00    +0.000 OA
ATOM      5  C   UNL     1      -9.316   4.854 130.997  0.00  0.00    +0.000 A 
ATOM      6  C   UNL     1      -9.617   5.270 132.275  0.00  0.00    +0.000 A 
ATOM      7  C   UNL     1     -10.653   6.172 132.447  0.00  0.00    +0.000 A 
ATOM      8  C   UNL     1     -11.382   6.598 131.332  0.00  0.00    +0.000 A 
ATOM      9  C   UNL     1     -11.029   6.187 130.010  0.00  0.00    +0.000 A 
ATOM     10  C   UNL     1      -9.840   5.402 129.860  0.00  0.00    +0.000 A 
ATOM     11  C   UNL     1      -8.836   4.863 128.817  0.00  0.00    +0.000 C 
ATOM     12  O   UNL     1      -8.764   5.371 127.710  0.00  0.00    +0.000 OA
BRANCH   9  13
ATOM     13  N   UNL     1     -12.045   6.526 129.066  0.00  0.00    +0.000 N 
ATOM     14  C   UNL     1     -12.077   7.460 128.068  0.00  0.00    +0.000 C 
ATOM     15  C   UNL     1     -10.885   8.318 127.863  0.00  0.00    +0.000 C 
ATOM     16  O   UNL     1     -13.063   7.560 127.338  0.00  0.00    +0.000 OA
ATOM     17  H   UNL     1     -12.833   5.884 128.957  0.00  0.00    +0.000 HD
ENDBRANCH   9  13
ENDBRANCH   1   2
BRANCH   1  20
ATOM     18  C   UNL     1      -7.651  -0.677 127.159  0.00  0.00    +0.000 A 
ATOM     19  C   UNL     1      -7.188   0.311 128.058  0.00  0.00    +0.000 A 
ATOM     20  C   UNL     1      -7.419   1.707 127.906  0.00  0.00    +0.000 A 
ATOM     21  C   UNL     1      -8.094   2.069 126.770  0.00  0.00    +0.000 A 
ATOM     22  C   UNL     1      -8.828   1.130 126.075  0.00  0.00    +0.000 A 
ATOM     23  C   UNL     1      -8.608  -0.241 126.230  0.00  0.00    +0.000 A 
BRANCH  23  24
ATOM     24  O   UNL     1      -9.489  -0.906 125.414  0.00  0.00    +0.000 OA
ATOM     25  C   UNL     1      -8.942  -1.264 124.191  0.00  0.00    +0.000 C 
ENDBRANCH  23  24
BRANCH  18  26
ATOM     26  O   UNL     1      -7.211  -1.946 127.498  0.00  0.00    +0.000 OA
BRANCH  26  28
ATOM     27  C   UNL     1      -8.199  -3.229 129.386  0.00  0.00    +0.000 C 
ATOM     28  C   UNL     1      -8.153  -2.944 127.901  0.00  0.00    +0.000 C 
ENDBRANCH  26  28
ENDBRANCH  18  26
ENDBRANCH   1  20
BRANCH   1  29
ATOM     29  C   UNL     1      -5.685   3.508 128.302  0.00  0.00    +0.000 C 
BRANCH  29  30
ATOM     30  S   UNL     1      -4.695   4.572 129.373  0.00  0.00    +0.000 S 
ATOM     31  C   UNL     1      -4.806   3.856 131.018  0.00  0.00    +0.000 C 
ATOM     32  O   UNL     1      -3.313   4.576 128.934  0.00  0.00    +0.000 OA
ATOM     33  O   UNL     1      -5.367   5.859 129.446  0.00  0.00    +0.000 OA
ENDBRANCH  29  30
ENDBRANCH   1  29
TORSDOF 8
ENDMDL
MODEL 9
REMARK VINA RESULT:      -7.4      2.908      3.815
REMARK  Name = Apremilast
REMARK  12 active torsions:
REMARK  status: ('A' for Active; 'I' for Inactive)
REMARK    1  A    between atoms: C_1  and  C_2
REMARK    2  A    between atoms: C_2  and  O_3
REMARK    3  A    between atoms: O_3  and  C_4
REMARK    4  A    between atoms: C_6  and  C_12
REMARK    5  A    between atoms: C_9  and  O_10
REMARK    6  A    between atoms: O_10  and  C_11
REMARK    7  A    between atoms: C_12  and  C_13
REMARK    8  A    between atoms: C_12  and  N_18
REMARK    9  A    between atoms: C_13  and  S_14
REMARK   10  A    between atoms: S_14  and  C_15
REMARK   11  A    between atoms: C_25  and  N_26
REMARK   12  A    between atoms: C_27  and  C_28
REMARK                            x       y       z     vdW  Elec       q    Type
REMARK                         _______ _______ _______ _____ _____    ______ ____
ROOT
ATOM      1  C   UNL     1      -6.284   2.483 127.438  0.00  0.00    +0.000 C 
ENDROOT
BRANCH   1   2
ATOM      2  N   UNL     1      -7.090   3.615 128.251  0.00  0.00    +0.000 N 
ATOM      3  C   UNL     1      -6.990   3.565 129.610  0.00  0.00    +0.000 C 
ATOM      4  O   UNL     1      -6.590   2.665 130.298  0.00  0.00    +0.000 OA
ATOM      5  C   UNL     1      -7.629   4.744 130.171  0.00  0.00    +0.000 A 
ATOM      6  C   UNL     1      -7.393   5.267 131.423  0.00  0.00    +0.000 A 
ATOM      7  C   UNL     1      -8.290   6.191 131.931  0.00  0.00    +0.000 A 
ATOM      8  C   UNL     1      -9.419   6.534 131.180  0.00  0.00    +0.000 A 
ATOM      9  C   UNL     1      -9.626   6.012 129.867  0.00  0.00    +0.000 A 
ATOM     10  C   UNL     1      -8.584   5.204 129.307  0.00  0.00    +0.000 A 
ATOM     11  C   UNL     1      -8.080   4.570 127.991  0.00  0.00    +0.000 C 
ATOM     12  O   UNL     1      -8.477   4.985 126.915  0.00  0.00    +0.000 OA
BRANCH   9  13
ATOM     13  N   UNL     1     -10.946   6.285 129.395  0.00  0.00    +0.000 N 
ATOM     14  C   UNL     1     -11.439   7.297 128.620  0.00  0.00    +0.000 C 
ATOM     15  C   UNL     1     -10.502   8.343 128.141  0.00  0.00    +0.000 C 
ATOM     16  O   UNL     1     -12.627   7.318 128.302  0.00  0.00    +0.000 OA
ATOM     17  H   UNL     1     -11.646   5.545 129.474  0.00  0.00    +0.000 HD
ENDBRANCH   9  13
ENDBRANCH   1   2
BRANCH   1  20
ATOM     18  C   UNL     1      -7.311  -0.415 124.995  0.00  0.00    +0.000 A 
ATOM     19  C   UNL     1      -6.546   0.522 125.726  0.00  0.00    +0.000 A 
ATOM     20  C   UNL     1      -7.094   1.480 126.624  0.00  0.00    +0.000 A 
ATOM     21  C   UNL     1      -8.461   1.487 126.710  0.00  0.00    +0.000 A 
ATOM     22  C   UNL     1      -9.185   0.395 126.281  0.00  0.00    +0.000 A 
ATOM     23  C   UNL     1      -8.645  -0.551 125.406  0.00  0.00    +0.000 A 
BRANCH  23  24
ATOM     24  O   UNL     1      -9.602  -1.508 125.173  0.00  0.00    +0.000 OA
ATOM     25  C   UNL     1      -9.325  -2.722 125.785  0.00  0.00    +0.000 C 
ENDBRANCH  23  24
BRANCH  18  26
ATOM     26  O   UNL     1      -6.535  -1.170 124.131  0.00  0.00    +0.000 OA
BRANCH  26  28
ATOM     27  C   UNL     1      -4.925  -2.998 123.623  0.00  0.00    +0.000 C 
ATOM     28  C   UNL     1      -5.603  -2.122 124.653  0.00  0.00    +0.000 C 
ENDBRANCH  26  28
ENDBRANCH  18  26
ENDBRANCH   1  20
BRANCH   1  29
ATOM     29  C   UNL     1      -5.186   3.141 126.541  0.00  0.00    +0.000 C 
BRANCH  29  30
ATOM     30  S   UNL     1      -3.681   3.793 127.295  0.00  0.00    +0.000 S 
ATOM     31  C   UNL     1      -4.000   5.535 127.603  0.00  0.00    +0.000 C 
ATOM     32  O   UNL     1      -3.417   3.116 128.550  0.00  0.00    +0.000 OA
ATOM     33  O   UNL     1      -2.635   3.745 126.288  0.00  0.00    +0.000 OA
ENDBRANCH  29  30
ENDBRANCH   1  29
TORSDOF 8
ENDMDL
