MODEL 1
REMARK VINA RESULT:      -5.8      0.000      0.000
REMARK  Name = Apronalide
REMARK  6 active torsions:
REMARK  status: ('A' for Active; 'I' for Inactive)
REMARK    1  A    between atoms: C_1  and  C_2
REMARK    2  A    between atoms: C_2  and  C_3
REMARK    3  A    between atoms: C_2  and  C_4
REMARK    4  A    between atoms: C_4  and  C_5
REMARK    5  A    between atoms: C_4  and  C_8
REMARK    6  A    between atoms: C_5  and  C_6
REMARK                            x       y       z     vdW  Elec       q    Type
REMARK                         _______ _______ _______ _____ _____    ______ ____
ROOT
ATOM      1  C   UNL     1     -11.417   7.086 130.877  0.00  0.00    +0.000 C 
ATOM      2  O   UNL     1     -12.296   6.590 131.586  0.00  0.00    +0.000 OA
ATOM      3  N   UNL     1     -10.084   6.790 131.095  0.00  0.00    +0.000 N 
ATOM      4  C   UNL     1      -9.593   5.933 132.054  0.00  0.00    +0.000 C 
ATOM      5  N   UNL     1     -10.499   5.230 132.768  0.00  0.00    +0.000 N 
ATOM      6  O   UNL     1      -8.386   5.802 132.248  0.00  0.00    +0.000 OA
ATOM      7  H   UNL     1      -9.357   7.260 130.578  0.00  0.00    +0.000 HD
ATOM      8  H   UNL     1     -11.494   5.399 132.625  0.00  0.00    +0.000 HD
ATOM      9  H   UNL     1     -10.212   4.606 133.507  0.00  0.00    +0.000 HD
ENDROOT
BRANCH   1  10
ATOM     10  C   UNL     1     -11.773   8.046 129.708  0.00  0.00    +0.000 C 
BRANCH  10  12
ATOM     11  C   UNL     1     -13.286   6.946 127.849  0.00  0.00    +0.000 C 
ATOM     12  C   UNL     1     -11.872   7.193 128.385  0.00  0.00    +0.000 C 
ATOM     13  C   UNL     1     -11.100   7.850 127.229  0.00  0.00    +0.000 C 
ENDBRANCH  10  12
BRANCH  10  14
ATOM     14  C   UNL     1     -13.080   8.808 130.051  0.00  0.00    +0.000 C 
BRANCH  14  15
ATOM     15  C   UNL     1     -13.192  10.195 129.471  0.00  0.00    +0.000 C 
ATOM     16  C   UNL     1     -13.560  11.282 130.161  0.00  0.00    +0.000 C 
ENDBRANCH  14  15
ENDBRANCH  10  14
ENDBRANCH   1  10
TORSDOF 4
ENDMDL
MODEL 2
REMARK VINA RESULT:      -5.7      2.979      4.808
REMARK  Name = Apronalide
REMARK  6 active torsions:
REMARK  status: ('A' for Active; 'I' for Inactive)
REMARK    1  A    between atoms: C_1  and  C_2
REMARK    2  A    between atoms: C_2  and  C_3
REMARK    3  A    between atoms: C_2  and  C_4
REMARK    4  A    between atoms: C_4  and  C_5
REMARK    5  A    between atoms: C_4  and  C_8
REMARK    6  A    between atoms: C_5  and  C_6
REMARK                            x       y       z     vdW  Elec       q    Type
REMARK                         _______ _______ _______ _____ _____    ______ ____
ROOT
ATOM      1  C   UNL     1     -12.629   8.981 129.837  0.00  0.00    +0.000 C 
ATOM      2  O   UNL     1     -12.841   8.892 131.049  0.00  0.00    +0.000 OA
ATOM      3  N   UNL     1     -12.966  10.130 129.144  0.00  0.00    +0.000 N 
ATOM      4  C   UNL     1     -13.521  11.266 129.687  0.00  0.00    +0.000 C 
ATOM      5  N   UNL     1     -13.640  11.308 131.032  0.00  0.00    +0.000 N 
ATOM      6  O   UNL     1     -13.884  12.208 128.983  0.00  0.00    +0.000 OA
ATOM      7  H   UNL     1     -12.877  10.174 128.141  0.00  0.00    +0.000 HD
ATOM      8  H   UNL     1     -13.382  10.492 131.585  0.00  0.00    +0.000 HD
ATOM      9  H   UNL     1     -14.065  12.097 131.495  0.00  0.00    +0.000 HD
ENDROOT
BRANCH   1  10
ATOM     10  C   UNL     1     -11.965   7.818 129.050  0.00  0.00    +0.000 C 
BRANCH  10  12
ATOM     11  C   UNL     1     -11.747   7.226 126.488  0.00  0.00    +0.000 C 
ATOM     12  C   UNL     1     -12.636   7.746 127.624  0.00  0.00    +0.000 C 
ATOM     13  C   UNL     1     -13.876   6.837 127.627  0.00  0.00    +0.000 C 
ENDBRANCH  10  12
BRANCH  10  14
ATOM     14  C   UNL     1     -10.431   8.042 129.000  0.00  0.00    +0.000 C 
BRANCH  14  15
ATOM     15  C   UNL     1      -9.636   7.322 130.058  0.00  0.00    +0.000 C 
ATOM     16  C   UNL     1     -10.012   6.182 130.651  0.00  0.00    +0.000 C 
ENDBRANCH  14  15
ENDBRANCH  10  14
ENDBRANCH   1  10
TORSDOF 4
ENDMDL
MODEL 3
REMARK VINA RESULT:      -5.6      1.615      2.048
REMARK  Name = Apronalide
REMARK  6 active torsions:
REMARK  status: ('A' for Active; 'I' for Inactive)
REMARK    1  A    between atoms: C_1  and  C_2
REMARK    2  A    between atoms: C_2  and  C_3
REMARK    3  A    between atoms: C_2  and  C_4
REMARK    4  A    between atoms: C_4  and  C_5
REMARK    5  A    between atoms: C_4  and  C_8
REMARK    6  A    between atoms: C_5  and  C_6
REMARK                            x       y       z     vdW  Elec       q    Type
REMARK                         _______ _______ _______ _____ _____    ______ ____
ROOT
ATOM      1  C   UNL     1     -10.857   7.742 129.025  0.00  0.00    +0.000 C 
ATOM      2  O   UNL     1      -9.970   7.324 128.277  0.00  0.00    +0.000 OA
ATOM      3  N   UNL     1     -10.858   7.417 130.369  0.00  0.00    +0.000 N 
ATOM      4  C   UNL     1      -9.911   6.656 131.016  0.00  0.00    +0.000 C 
ATOM      5  N   UNL     1      -8.825   6.292 130.301  0.00  0.00    +0.000 N 
ATOM      6  O   UNL     1     -10.039   6.329 132.195  0.00  0.00    +0.000 OA
ATOM      7  H   UNL     1     -11.627   7.681 130.966  0.00  0.00    +0.000 HD
ATOM      8  H   UNL     1      -8.771   6.529 129.311  0.00  0.00    +0.000 HD
ATOM      9  H   UNL     1      -8.106   5.708 130.702  0.00  0.00    +0.000 HD
ENDROOT
BRANCH   1  10
ATOM     10  C   UNL     1     -11.994   8.656 128.491  0.00  0.00    +0.000 C 
BRANCH  10  12
ATOM     11  C   UNL     1     -12.298   7.082 126.397  0.00  0.00    +0.000 C 
ATOM     12  C   UNL     1     -12.951   7.779 127.596  0.00  0.00    +0.000 C 
ATOM     13  C   UNL     1     -13.621   6.660 128.411  0.00  0.00    +0.000 C 
ENDBRANCH  10  12
BRANCH  10  14
ATOM     14  C   UNL     1     -12.714   9.331 129.688  0.00  0.00    +0.000 C 
BRANCH  14  15
ATOM     15  C   UNL     1     -13.537  10.547 129.349  0.00  0.00    +0.000 C 
ATOM     16  C   UNL     1     -13.652  11.630 130.127  0.00  0.00    +0.000 C 
ENDBRANCH  14  15
ENDBRANCH  10  14
ENDBRANCH   1  10
TORSDOF 4
ENDMDL
MODEL 4
REMARK VINA RESULT:      -5.5     11.039     12.683
REMARK  Name = Apronalide
REMARK  6 active torsions:
REMARK  status: ('A' for Active; 'I' for Inactive)
REMARK    1  A    between atoms: C_1  and  C_2
REMARK    2  A    between atoms: C_2  and  C_3
REMARK    3  A    between atoms: C_2  and  C_4
REMARK    4  A    between atoms: C_4  and  C_5
REMARK    5  A    between atoms: C_4  and  C_8
REMARK    6  A    between atoms: C_5  and  C_6
REMARK                            x       y       z     vdW  Elec       q    Type
REMARK                         _______ _______ _______ _____ _____    ______ ____
ROOT
ATOM      1  C   UNL     1      -7.735  -0.383 124.009  0.00  0.00    +0.000 C 
ATOM      2  O   UNL     1      -7.161   0.707 124.047  0.00  0.00    +0.000 OA
ATOM      3  N   UNL     1      -9.010  -0.492 123.483  0.00  0.00    +0.000 N 
ATOM      4  C   UNL     1      -9.749   0.534 122.940  0.00  0.00    +0.000 C 
ATOM      5  N   UNL     1      -9.131   1.727 122.801  0.00  0.00    +0.000 N 
ATOM      6  O   UNL     1     -10.916   0.373 122.584  0.00  0.00    +0.000 OA
ATOM      7  H   UNL     1      -9.518  -1.362 123.531  0.00  0.00    +0.000 HD
ATOM      8  H   UNL     1      -8.183   1.847 123.154  0.00  0.00    +0.000 HD
ATOM      9  H   UNL     1      -9.622   2.530 122.438  0.00  0.00    +0.000 HD
ENDROOT
BRANCH   1  10
ATOM     10  C   UNL     1      -7.047  -1.673 124.535  0.00  0.00    +0.000 C 
BRANCH  10  12
ATOM     11  C   UNL     1      -8.222  -4.028 124.718  0.00  0.00    +0.000 C 
ATOM     12  C   UNL     1      -8.149  -2.577 125.209  0.00  0.00    +0.000 C 
ATOM     13  C   UNL     1      -7.955  -2.665 126.732  0.00  0.00    +0.000 C 
ENDBRANCH  10  12
BRANCH  10  14
ATOM     14  C   UNL     1      -6.306  -2.372 123.364  0.00  0.00    +0.000 C 
BRANCH  14  15
ATOM     15  C   UNL     1      -4.928  -2.889 123.686  0.00  0.00    +0.000 C 
ATOM     16  C   UNL     1      -4.581  -4.182 123.696  0.00  0.00    +0.000 C 
ENDBRANCH  14  15
ENDBRANCH  10  14
ENDBRANCH   1  10
TORSDOF 4
ENDMDL
MODEL 5
REMARK VINA RESULT:      -5.4      1.317      2.895
REMARK  Name = Apronalide
REMARK  6 active torsions:
REMARK  status: ('A' for Active; 'I' for Inactive)
REMARK    1  A    between atoms: C_1  and  C_2
REMARK    2  A    between atoms: C_2  and  C_3
REMARK    3  A    between atoms: C_2  and  C_4
REMARK    4  A    between atoms: C_4  and  C_5
REMARK    5  A    between atoms: C_4  and  C_8
REMARK    6  A    between atoms: C_5  and  C_6
REMARK                            x       y       z     vdW  Elec       q    Type
REMARK                         _______ _______ _______ _____ _____    ______ ____
ROOT
ATOM      1  C   UNL     1     -11.160   6.073 130.180  0.00  0.00    +0.000 C 
ATOM      2  O   UNL     1     -11.425   4.876 130.053  0.00  0.00    +0.000 OA
ATOM      3  N   UNL     1     -10.360   6.513 131.220  0.00  0.00    +0.000 N 
ATOM      4  C   UNL     1      -9.769   5.719 132.175  0.00  0.00    +0.000 C 
ATOM      5  N   UNL     1      -9.881   4.382 132.015  0.00  0.00    +0.000 N 
ATOM      6  O   UNL     1      -9.154   6.199 133.126  0.00  0.00    +0.000 OA
ATOM      7  H   UNL     1     -10.214   7.498 131.380  0.00  0.00    +0.000 HD
ATOM      8  H   UNL     1     -10.442   4.012 131.249  0.00  0.00    +0.000 HD
ATOM      9  H   UNL     1      -9.498   3.740 132.692  0.00  0.00    +0.000 HD
ENDROOT
BRANCH   1  10
ATOM     10  C   UNL     1     -11.698   7.127 129.173  0.00  0.00    +0.000 C 
BRANCH  10  12
ATOM     11  C   UNL     1     -12.983   9.431 129.192  0.00  0.00    +0.000 C 
ATOM     12  C   UNL     1     -12.228   8.365 129.994  0.00  0.00    +0.000 C 
ATOM     13  C   UNL     1     -13.187   7.933 131.115  0.00  0.00    +0.000 C 
ENDBRANCH  10  12
BRANCH  10  14
ATOM     14  C   UNL     1     -10.578   7.490 128.163  0.00  0.00    +0.000 C 
BRANCH  14  15
ATOM     15  C   UNL     1     -10.993   7.510 126.714  0.00  0.00    +0.000 C 
ATOM     16  C   UNL     1     -12.206   7.167 126.264  0.00  0.00    +0.000 C 
ENDBRANCH  14  15
ENDBRANCH  10  14
ENDBRANCH   1  10
TORSDOF 4
ENDMDL
MODEL 6
REMARK VINA RESULT:      -5.4     11.322     12.819
REMARK  Name = Apronalide
REMARK  6 active torsions:
REMARK  status: ('A' for Active; 'I' for Inactive)
REMARK    1  A    between atoms: C_1  and  C_2
REMARK    2  A    between atoms: C_2  and  C_3
REMARK    3  A    between atoms: C_2  and  C_4
REMARK    4  A    between atoms: C_4  and  C_5
REMARK    5  A    between atoms: C_4  and  C_8
REMARK    6  A    between atoms: C_5  and  C_6
REMARK                            x       y       z     vdW  Elec       q    Type
REMARK                         _______ _______ _______ _____ _____    ______ ____
ROOT
ATOM      1  C   UNL     1      -6.060  -1.929 125.647  0.00  0.00    +0.000 C 
ATOM      2  O   UNL     1      -5.976  -2.378 126.793  0.00  0.00    +0.000 OA
ATOM      3  N   UNL     1      -5.745  -0.608 125.382  0.00  0.00    +0.000 N 
ATOM      4  C   UNL     1      -5.295   0.314 126.298  0.00  0.00    +0.000 C 
ATOM      5  N   UNL     1      -5.026  -0.139 127.542  0.00  0.00    +0.000 N 
ATOM      6  O   UNL     1      -5.133   1.497 126.000  0.00  0.00    +0.000 OA
ATOM      7  H   UNL     1      -5.898  -0.213 124.467  0.00  0.00    +0.000 HD
ATOM      8  H   UNL     1      -5.222  -1.111 127.777  0.00  0.00    +0.000 HD
ATOM      9  H   UNL     1      -4.722   0.487 128.272  0.00  0.00    +0.000 HD
ENDROOT
BRANCH   1  10
ATOM     10  C   UNL     1      -6.508  -2.828 124.462  0.00  0.00    +0.000 C 
BRANCH  10  12
ATOM     11  C   UNL     1      -8.139  -2.014 122.555  0.00  0.00    +0.000 C 
ATOM     12  C   UNL     1      -7.959  -2.386 124.031  0.00  0.00    +0.000 C 
ATOM     13  C   UNL     1      -8.994  -3.488 124.310  0.00  0.00    +0.000 C 
ENDBRANCH  10  12
BRANCH  10  14
ATOM     14  C   UNL     1      -5.466  -2.725 123.318  0.00  0.00    +0.000 C 
BRANCH  14  15
ATOM     15  C   UNL     1      -4.275  -3.639 123.441  0.00  0.00    +0.000 C 
ATOM     16  C   UNL     1      -4.344  -4.971 123.554  0.00  0.00    +0.000 C 
ENDBRANCH  14  15
ENDBRANCH  10  14
ENDBRANCH   1  10
TORSDOF 4
ENDMDL
MODEL 7
REMARK VINA RESULT:      -5.3     10.605     11.957
REMARK  Name = Apronalide
REMARK  6 active torsions:
REMARK  status: ('A' for Active; 'I' for Inactive)
REMARK    1  A    between atoms: C_1  and  C_2
REMARK    2  A    between atoms: C_2  and  C_3
REMARK    3  A    between atoms: C_2  and  C_4
REMARK    4  A    between atoms: C_4  and  C_5
REMARK    5  A    between atoms: C_4  and  C_8
REMARK    6  A    between atoms: C_5  and  C_6
REMARK                            x       y       z     vdW  Elec       q    Type
REMARK                         _______ _______ _______ _____ _____    ______ ____
ROOT
ATOM      1  C   UNL     1      -9.179  -0.968 123.296  0.00  0.00    +0.000 C 
ATOM      2  O   UNL     1     -10.235  -0.738 122.702  0.00  0.00    +0.000 OA
ATOM      3  N   UNL     1      -8.584   0.005 124.080  0.00  0.00    +0.000 N 
ATOM      4  C   UNL     1      -9.077   1.270 124.308  0.00  0.00    +0.000 C 
ATOM      5  N   UNL     1     -10.306   1.546 123.821  0.00  0.00    +0.000 N 
ATOM      6  O   UNL     1      -8.435   2.110 124.937  0.00  0.00    +0.000 OA
ATOM      7  H   UNL     1      -7.678  -0.146 124.495  0.00  0.00    +0.000 HD
ATOM      8  H   UNL     1     -10.791   0.851 123.256  0.00  0.00    +0.000 HD
ATOM      9  H   UNL     1     -10.716   2.462 123.925  0.00  0.00    +0.000 HD
ENDROOT
BRANCH   1  10
ATOM     10  C   UNL     1      -8.488  -2.355 123.201  0.00  0.00    +0.000 C 
BRANCH  10  12
ATOM     11  C   UNL     1      -6.267  -3.378 124.191  0.00  0.00    +0.000 C 
ATOM     12  C   UNL     1      -6.962  -2.169 123.554  0.00  0.00    +0.000 C 
ATOM     13  C   UNL     1      -6.131  -1.821 122.309  0.00  0.00    +0.000 C 
ENDBRANCH  10  12
BRANCH  10  14
ATOM     14  C   UNL     1      -9.219  -3.358 124.131  0.00  0.00    +0.000 C 
BRANCH  14  15
ATOM     15  C   UNL     1      -9.513  -2.857 125.522  0.00  0.00    +0.000 C 
ATOM     16  C   UNL     1      -9.040  -3.408 126.646  0.00  0.00    +0.000 C 
ENDBRANCH  14  15
ENDBRANCH  10  14
ENDBRANCH   1  10
TORSDOF 4
ENDMDL
MODEL 8
REMARK VINA RESULT:      -5.3      9.993     11.432
REMARK  Name = Apronalide
REMARK  6 active torsions:
REMARK  status: ('A' for Active; 'I' for Inactive)
REMARK    1  A    between atoms: C_1  and  C_2
REMARK    2  A    between atoms: C_2  and  C_3
REMARK    3  A    between atoms: C_2  and  C_4
REMARK    4  A    between atoms: C_4  and  C_5
REMARK    5  A    between atoms: C_4  and  C_8
REMARK    6  A    between atoms: C_5  and  C_6
REMARK                            x       y       z     vdW  Elec       q    Type
REMARK                         _______ _______ _______ _____ _____    ______ ____
ROOT
ATOM      1  C   UNL     1      -9.245  -0.428 125.121  0.00  0.00    +0.000 C 
ATOM      2  O   UNL     1     -10.216   0.148 125.616  0.00  0.00    +0.000 OA
ATOM      3  N   UNL     1      -8.423   0.224 124.219  0.00  0.00    +0.000 N 
ATOM      4  C   UNL     1      -8.555   1.529 123.803  0.00  0.00    +0.000 C 
ATOM      5  N   UNL     1      -9.500   2.275 124.418  0.00  0.00    +0.000 N 
ATOM      6  O   UNL     1      -7.841   2.003 122.921  0.00  0.00    +0.000 OA
ATOM      7  H   UNL     1      -7.682  -0.268 123.744  0.00  0.00    +0.000 HD
ATOM      8  H   UNL     1     -10.114   1.842 125.106  0.00  0.00    +0.000 HD
ATOM      9  H   UNL     1      -9.672   3.230 124.143  0.00  0.00    +0.000 HD
ENDROOT
BRANCH   1  10
ATOM     10  C   UNL     1      -8.900  -1.895 125.499  0.00  0.00    +0.000 C 
BRANCH  10  12
ATOM     11  C   UNL     1      -7.307  -3.679 124.388  0.00  0.00    +0.000 C 
ATOM     12  C   UNL     1      -8.414  -2.636 124.195  0.00  0.00    +0.000 C 
ATOM     13  C   UNL     1      -9.567  -3.381 123.503  0.00  0.00    +0.000 C 
ENDBRANCH  10  12
BRANCH  10  14
ATOM     14  C   UNL     1      -7.848  -1.896 126.639  0.00  0.00    +0.000 C 
BRANCH  14  15
ATOM     15  C   UNL     1      -8.162  -2.792 127.810  0.00  0.00    +0.000 C 
ATOM     16  C   UNL     1      -8.970  -3.858 127.759  0.00  0.00    +0.000 C 
ENDBRANCH  14  15
ENDBRANCH  10  14
ENDBRANCH   1  10
TORSDOF 4
ENDMDL
MODEL 9
REMARK VINA RESULT:      -5.2     10.736     12.293
REMARK  Name = Apronalide
REMARK  6 active torsions:
REMARK  status: ('A' for Active; 'I' for Inactive)
REMARK    1  A    between atoms: C_1  and  C_2
REMARK    2  A    between atoms: C_2  and  C_3
REMARK    3  A    between atoms: C_2  and  C_4
REMARK    4  A    between atoms: C_4  and  C_5
REMARK    5  A    between atoms: C_4  and  C_8
REMARK    6  A    between atoms: C_5  and  C_6
REMARK                            x       y       z     vdW  Elec       q    Type
REMARK                         _______ _______ _______ _____ _____    ______ ____
ROOT
ATOM      1  C   UNL     1      -8.090   0.028 123.540  0.00  0.00    +0.000 C 
ATOM      2  O   UNL     1      -9.284   0.277 123.359  0.00  0.00    +0.000 OA
ATOM      3  N   UNL     1      -7.126   0.996 123.323  0.00  0.00    +0.000 N 
ATOM      4  C   UNL     1      -7.360   2.293 122.928  0.00  0.00    +0.000 C 
ATOM      5  N   UNL     1      -8.649   2.690 122.861  0.00  0.00    +0.000 N 
ATOM      6  O   UNL     1      -6.439   3.064 122.660  0.00  0.00    +0.000 OA
ATOM      7  H   UNL     1      -6.145   0.772 123.383  0.00  0.00    +0.000 HD
ATOM      8  H   UNL     1      -9.393   2.016 123.034  0.00  0.00    +0.000 HD
ATOM      9  H   UNL     1      -8.895   3.618 122.550  0.00  0.00    +0.000 HD
ENDROOT
BRANCH   1  10
ATOM     10  C   UNL     1      -7.626  -1.372 124.031  0.00  0.00    +0.000 C 
BRANCH  10  12
ATOM     11  C   UNL     1      -9.390  -3.234 123.417  0.00  0.00    +0.000 C 
ATOM     12  C   UNL     1      -8.906  -2.198 124.438  0.00  0.00    +0.000 C 
ATOM     13  C   UNL     1      -8.685  -2.977 125.745  0.00  0.00    +0.000 C 
ENDBRANCH  10  12
BRANCH  10  14
ATOM     14  C   UNL     1      -6.780  -2.050 122.921  0.00  0.00    +0.000 C 
BRANCH  14  15
ATOM     15  C   UNL     1      -5.436  -2.571 123.358  0.00  0.00    +0.000 C 
ATOM     16  C   UNL     1      -5.231  -3.761 123.936  0.00  0.00    +0.000 C 
ENDBRANCH  14  15
ENDBRANCH  10  14
ENDBRANCH   1  10
TORSDOF 4
ENDMDL
