MODEL 1
REMARK VINA RESULT:      -6.4      0.000      0.000
REMARK  Name = Arbutin
REMARK  8 active torsions:
REMARK  status: ('A' for Active; 'I' for Inactive)
REMARK    1  A    between atoms: O_1  and  C_2
REMARK    2  A    between atoms: C_2  and  C_3
REMARK    3  A    between atoms: C_5  and  O_6
REMARK    4  A    between atoms: O_6  and  C_7
REMARK    5  A    between atoms: C_10  and  O_11
REMARK    6  A    between atoms: C_14  and  O_15
REMARK    7  A    between atoms: C_16  and  O_17
REMARK    8  A    between atoms: C_18  and  O_19
REMARK                            x       y       z     vdW  Elec       q    Type
REMARK                         _______ _______ _______ _____ _____    ______ ____
ROOT
ATOM      1  C   UNL     1      -7.187   3.707 125.296  0.00  0.00    +0.000 C 
ATOM      2  O   UNL     1      -6.492   3.237 124.151  0.00  0.00    +0.000 OA
ATOM      3  C   UNL     1      -7.356   3.008 123.054  0.00  0.00    +0.000 C 
ATOM      4  C   UNL     1      -8.449   1.955 123.381  0.00  0.00    +0.000 C 
ATOM      5  C   UNL     1      -9.053   2.191 124.790  0.00  0.00    +0.000 C 
ATOM      6  C   UNL     1      -7.951   2.505 125.891  0.00  0.00    +0.000 C 
ENDROOT
BRANCH   4   7
ATOM      7  O   UNL     1      -9.457   1.908 122.360  0.00  0.00    +0.000 OA
ATOM      8  H   UNL     1     -10.267   1.518 122.725  0.00  0.00    +0.000 HD
ENDBRANCH   4   7
BRANCH   5   9
ATOM      9  O   UNL     1      -9.885   1.089 125.167  0.00  0.00    +0.000 OA
ATOM     10  H   UNL     1     -10.281   0.711 124.364  0.00  0.00    +0.000 HD
ENDBRANCH   5   9
BRANCH   6  11
ATOM     11  O   UNL     1      -8.568   2.811 127.138  0.00  0.00    +0.000 OA
ATOM     12  H   UNL     1      -9.198   2.098 127.349  0.00  0.00    +0.000 HD
ENDBRANCH   6  11
BRANCH   1  13
ATOM     13  C   UNL     1      -6.241   4.769 125.867  0.00  0.00    +0.000 C 
BRANCH  13  14
ATOM     14  O   UNL     1      -6.383   5.909 124.985  0.00  0.00    +0.000 OA
ATOM     15  H   UNL     1      -7.325   6.059 124.812  0.00  0.00    +0.000 HD
ENDBRANCH  13  14
ENDBRANCH   1  13
BRANCH   3  16
ATOM     16  O   UNL     1      -6.582   2.682 121.894  0.00  0.00    +0.000 OA
BRANCH  16  17
ATOM     17  C   UNL     1      -6.358   3.688 120.986  0.00  0.00    +0.000 A 
ATOM     18  C   UNL     1      -5.251   4.533 120.969  0.00  0.00    +0.000 A 
ATOM     19  C   UNL     1      -5.014   5.412 119.917  0.00  0.00    +0.000 A 
ATOM     20  C   UNL     1      -5.967   5.504 118.915  0.00  0.00    +0.000 A 
ATOM     21  C   UNL     1      -7.120   4.743 118.952  0.00  0.00    +0.000 A 
ATOM     22  C   UNL     1      -7.323   3.816 119.985  0.00  0.00    +0.000 A 
BRANCH  20  23
ATOM     23  O   UNL     1      -5.774   6.371 117.877  0.00  0.00    +0.000 OA
ATOM     24  H   UNL     1      -6.278   6.050 117.117  0.00  0.00    +0.000 HD
ENDBRANCH  20  23
ENDBRANCH  16  17
ENDBRANCH   3  16
TORSDOF 8
ENDMDL
MODEL 2
REMARK VINA RESULT:      -6.3      1.848      3.200
REMARK  Name = Arbutin
REMARK  8 active torsions:
REMARK  status: ('A' for Active; 'I' for Inactive)
REMARK    1  A    between atoms: O_1  and  C_2
REMARK    2  A    between atoms: C_2  and  C_3
REMARK    3  A    between atoms: C_5  and  O_6
REMARK    4  A    between atoms: O_6  and  C_7
REMARK    5  A    between atoms: C_10  and  O_11
REMARK    6  A    between atoms: C_14  and  O_15
REMARK    7  A    between atoms: C_16  and  O_17
REMARK    8  A    between atoms: C_18  and  O_19
REMARK                            x       y       z     vdW  Elec       q    Type
REMARK                         _______ _______ _______ _____ _____    ______ ____
ROOT
ATOM      1  C   UNL     1      -7.509   0.365 124.183  0.00  0.00    +0.000 C 
ATOM      2  O   UNL     1      -8.279   1.009 123.180  0.00  0.00    +0.000 OA
ATOM      3  C   UNL     1      -8.179   2.419 123.249  0.00  0.00    +0.000 C 
ATOM      4  C   UNL     1      -8.667   2.973 124.615  0.00  0.00    +0.000 C 
ATOM      5  C   UNL     1      -8.135   2.114 125.792  0.00  0.00    +0.000 C 
ATOM      6  C   UNL     1      -8.255   0.553 125.522  0.00  0.00    +0.000 C 
ENDROOT
BRANCH   4   7
ATOM      7  O   UNL     1      -8.339   4.362 124.767  0.00  0.00    +0.000 OA
ATOM      8  H   UNL     1      -8.815   4.725 125.531  0.00  0.00    +0.000 HD
ENDBRANCH   4   7
BRANCH   5   9
ATOM      9  O   UNL     1      -8.771   2.495 127.015  0.00  0.00    +0.000 OA
ATOM     10  H   UNL     1      -9.404   3.207 126.826  0.00  0.00    +0.000 HD
ENDBRANCH   5   9
BRANCH   6  11
ATOM     11  O   UNL     1      -7.661  -0.183 126.588  0.00  0.00    +0.000 OA
ATOM     12  H   UNL     1      -7.413  -1.062 126.249  0.00  0.00    +0.000 HD
ENDBRANCH   6  11
BRANCH   1  13
ATOM     13  C   UNL     1      -6.910  -0.838 123.446  0.00  0.00    +0.000 C 
BRANCH  13  14
ATOM     14  O   UNL     1      -6.370  -1.684 124.490  0.00  0.00    +0.000 OA
ATOM     15  H   UNL     1      -5.943  -1.127 125.159  0.00  0.00    +0.000 HD
ENDBRANCH  13  14
ENDBRANCH   1  13
BRANCH   3  16
ATOM     16  O   UNL     1      -8.853   3.002 122.127  0.00  0.00    +0.000 OA
BRANCH  16  17
ATOM     17  C   UNL     1      -8.069   3.533 121.131  0.00  0.00    +0.000 A 
ATOM     18  C   UNL     1      -8.523   3.974 119.891  0.00  0.00    +0.000 A 
ATOM     19  C   UNL     1      -7.694   4.656 119.005  0.00  0.00    +0.000 A 
ATOM     20  C   UNL     1      -6.358   4.805 119.344  0.00  0.00    +0.000 A 
ATOM     21  C   UNL     1      -5.859   4.298 120.529  0.00  0.00    +0.000 A 
ATOM     22  C   UNL     1      -6.714   3.663 121.443  0.00  0.00    +0.000 A 
BRANCH  20  23
ATOM     23  O   UNL     1      -5.513   5.453 118.489  0.00  0.00    +0.000 OA
ATOM     24  H   UNL     1      -4.612   5.362 118.828  0.00  0.00    +0.000 HD
ENDBRANCH  20  23
ENDBRANCH  16  17
ENDBRANCH   3  16
TORSDOF 8
ENDMDL
MODEL 3
REMARK VINA RESULT:      -6.3      8.169      9.821
REMARK  Name = Arbutin
REMARK  8 active torsions:
REMARK  status: ('A' for Active; 'I' for Inactive)
REMARK    1  A    between atoms: O_1  and  C_2
REMARK    2  A    between atoms: C_2  and  C_3
REMARK    3  A    between atoms: C_5  and  O_6
REMARK    4  A    between atoms: O_6  and  C_7
REMARK    5  A    between atoms: C_10  and  O_11
REMARK    6  A    between atoms: C_14  and  O_15
REMARK    7  A    between atoms: C_16  and  O_17
REMARK    8  A    between atoms: C_18  and  O_19
REMARK                            x       y       z     vdW  Elec       q    Type
REMARK                         _______ _______ _______ _____ _____    ______ ____
ROOT
ATOM      1  C   UNL     1      -9.216   4.674 132.294  0.00  0.00    +0.000 C 
ATOM      2  O   UNL     1     -10.487   4.933 131.719  0.00  0.00    +0.000 OA
ATOM      3  C   UNL     1     -10.430   5.032 130.309  0.00  0.00    +0.000 C 
ATOM      4  C   UNL     1      -9.484   6.171 129.841  0.00  0.00    +0.000 C 
ATOM      5  C   UNL     1      -8.166   6.178 130.659  0.00  0.00    +0.000 C 
ATOM      6  C   UNL     1      -8.404   5.985 132.218  0.00  0.00    +0.000 C 
ENDROOT
BRANCH   4   7
ATOM      7  O   UNL     1      -9.244   6.108 128.427  0.00  0.00    +0.000 OA
ATOM      8  H   UNL     1      -9.908   5.533 128.013  0.00  0.00    +0.000 HD
ENDBRANCH   4   7
BRANCH   5   9
ATOM      9  O   UNL     1      -7.411   7.360 130.377  0.00  0.00    +0.000 OA
ATOM     10  H   UNL     1      -6.480   7.111 130.254  0.00  0.00    +0.000 HD
ENDBRANCH   5   9
BRANCH   6  11
ATOM     11  O   UNL     1      -7.159   5.900 132.904  0.00  0.00    +0.000 OA
ATOM     12  H   UNL     1      -6.674   6.733 132.760  0.00  0.00    +0.000 HD
ENDBRANCH   6  11
BRANCH   1  13
ATOM     13  C   UNL     1      -9.533   3.669 133.407  0.00  0.00    +0.000 C 
BRANCH  13  14
ATOM     14  O   UNL     1      -9.075   4.306 134.626  0.00  0.00    +0.000 OA
ATOM     15  H   UNL     1      -9.792   4.850 134.986  0.00  0.00    +0.000 HD
ENDBRANCH  13  14
ENDBRANCH   1  13
BRANCH   3  16
ATOM     16  O   UNL     1     -11.757   5.144 129.782  0.00  0.00    +0.000 OA
BRANCH  16  17
ATOM     17  C   UNL     1     -12.256   6.412 129.604  0.00  0.00    +0.000 A 
ATOM     18  C   UNL     1     -12.381   7.380 130.595  0.00  0.00    +0.000 A 
ATOM     19  C   UNL     1     -12.733   8.694 130.300  0.00  0.00    +0.000 A 
ATOM     20  C   UNL     1     -13.058   9.003 128.988  0.00  0.00    +0.000 A 
ATOM     21  C   UNL     1     -13.031   8.040 127.998  0.00  0.00    +0.000 A 
ATOM     22  C   UNL     1     -12.618   6.733 128.293  0.00  0.00    +0.000 A 
BRANCH  20  23
ATOM     23  O   UNL     1     -13.427  10.279 128.668  0.00  0.00    +0.000 OA
ATOM     24  H   UNL     1     -14.069  10.236 127.946  0.00  0.00    +0.000 HD
ENDBRANCH  20  23
ENDBRANCH  16  17
ENDBRANCH   3  16
TORSDOF 8
ENDMDL
MODEL 4
REMARK VINA RESULT:      -6.2      7.108     10.124
REMARK  Name = Arbutin
REMARK  8 active torsions:
REMARK  status: ('A' for Active; 'I' for Inactive)
REMARK    1  A    between atoms: O_1  and  C_2
REMARK    2  A    between atoms: C_2  and  C_3
REMARK    3  A    between atoms: C_5  and  O_6
REMARK    4  A    between atoms: O_6  and  C_7
REMARK    5  A    between atoms: C_10  and  O_11
REMARK    6  A    between atoms: C_14  and  O_15
REMARK    7  A    between atoms: C_16  and  O_17
REMARK    8  A    between atoms: C_18  and  O_19
REMARK                            x       y       z     vdW  Elec       q    Type
REMARK                         _______ _______ _______ _____ _____    ______ ____
ROOT
ATOM      1  C   UNL     1     -10.979   7.295 128.265  0.00  0.00    +0.000 C 
ATOM      2  O   UNL     1      -9.887   6.885 129.073  0.00  0.00    +0.000 OA
ATOM      3  C   UNL     1     -10.301   6.120 130.189  0.00  0.00    +0.000 C 
ATOM      4  C   UNL     1     -11.273   6.907 131.110  0.00  0.00    +0.000 C 
ATOM      5  C   UNL     1     -12.332   7.679 130.280  0.00  0.00    +0.000 C 
ATOM      6  C   UNL     1     -11.709   8.425 129.022  0.00  0.00    +0.000 C 
ENDROOT
BRANCH   4   7
ATOM      7  O   UNL     1     -11.873   6.053 132.094  0.00  0.00    +0.000 OA
ATOM      8  H   UNL     1     -11.268   5.955 132.848  0.00  0.00    +0.000 HD
ENDBRANCH   4   7
BRANCH   5   9
ATOM      9  O   UNL     1     -13.069   8.573 131.119  0.00  0.00    +0.000 OA
ATOM     10  H   UNL     1     -13.811   8.936 130.609  0.00  0.00    +0.000 HD
ENDBRANCH   5   9
BRANCH   6  11
ATOM     11  O   UNL     1     -12.738   9.030 128.244  0.00  0.00    +0.000 OA
ATOM     12  H   UNL     1     -12.883   8.481 127.452  0.00  0.00    +0.000 HD
ENDBRANCH   6  11
BRANCH   1  13
ATOM     13  C   UNL     1     -10.440   7.130 126.839  0.00  0.00    +0.000 C 
BRANCH  13  14
ATOM     14  O   UNL     1     -11.608   6.853 126.029  0.00  0.00    +0.000 OA
ATOM     15  H   UNL     1     -12.086   6.101 126.410  0.00  0.00    +0.000 HD
ENDBRANCH  13  14
ENDBRANCH   1  13
BRANCH   3  16
ATOM     16  O   UNL     1      -9.151   5.614 130.877  0.00  0.00    +0.000 OA
BRANCH  16  17
ATOM     17  C   UNL     1      -9.159   4.284 131.219  0.00  0.00    +0.000 A 
ATOM     18  C   UNL     1      -9.254   3.780 132.513  0.00  0.00    +0.000 A 
ATOM     19  C   UNL     1      -9.430   2.423 132.763  0.00  0.00    +0.000 A 
ATOM     20  C   UNL     1      -9.410   1.552 131.684  0.00  0.00    +0.000 A 
ATOM     21  C   UNL     1      -9.226   2.015 130.395  0.00  0.00    +0.000 A 
ATOM     22  C   UNL     1      -9.109   3.390 130.146  0.00  0.00    +0.000 A 
BRANCH  20  23
ATOM     23  O   UNL     1      -9.560   0.211 131.896  0.00  0.00    +0.000 OA
ATOM     24  H   UNL     1      -9.016  -0.260 131.249  0.00  0.00    +0.000 HD
ENDBRANCH  20  23
ENDBRANCH  16  17
ENDBRANCH   3  16
TORSDOF 8
ENDMDL
MODEL 5
REMARK VINA RESULT:      -6.2      6.316      9.324
REMARK  Name = Arbutin
REMARK  8 active torsions:
REMARK  status: ('A' for Active; 'I' for Inactive)
REMARK    1  A    between atoms: O_1  and  C_2
REMARK    2  A    between atoms: C_2  and  C_3
REMARK    3  A    between atoms: C_5  and  O_6
REMARK    4  A    between atoms: O_6  and  C_7
REMARK    5  A    between atoms: C_10  and  O_11
REMARK    6  A    between atoms: C_14  and  O_15
REMARK    7  A    between atoms: C_16  and  O_17
REMARK    8  A    between atoms: C_18  and  O_19
REMARK                            x       y       z     vdW  Elec       q    Type
REMARK                         _______ _______ _______ _____ _____    ______ ____
ROOT
ATOM      1  C   UNL     1      -8.347   4.234 129.528  0.00  0.00    +0.000 C 
ATOM      2  O   UNL     1      -9.753   4.263 129.335  0.00  0.00    +0.000 OA
ATOM      3  C   UNL     1     -10.406   5.102 130.270  0.00  0.00    +0.000 C 
ATOM      4  C   UNL     1     -10.161   4.647 131.734  0.00  0.00    +0.000 C 
ATOM      5  C   UNL     1      -8.676   4.264 131.963  0.00  0.00    +0.000 C 
ATOM      6  C   UNL     1      -8.075   3.381 130.786  0.00  0.00    +0.000 C 
ENDROOT
BRANCH   4   7
ATOM      7  O   UNL     1     -10.618   5.630 132.674  0.00  0.00    +0.000 OA
ATOM      8  H   UNL     1     -11.339   5.256 133.207  0.00  0.00    +0.000 HD
ENDBRANCH   4   7
BRANCH   5   9
ATOM      9  O   UNL     1      -8.512   3.636 133.238  0.00  0.00    +0.000 OA
ATOM     10  H   UNL     1      -9.389   3.523 133.642  0.00  0.00    +0.000 HD
ENDBRANCH   5   9
BRANCH   6  11
ATOM     11  O   UNL     1      -6.687   3.146 130.999  0.00  0.00    +0.000 OA
ATOM     12  H   UNL     1      -6.528   3.110 131.960  0.00  0.00    +0.000 HD
ENDBRANCH   6  11
BRANCH   1  13
ATOM     13  C   UNL     1      -7.798   4.244 128.096  0.00  0.00    +0.000 C 
BRANCH  13  14
ATOM     14  O   UNL     1      -8.646   5.173 127.378  0.00  0.00    +0.000 OA
ATOM     15  H   UNL     1      -9.560   4.849 127.399  0.00  0.00    +0.000 HD
ENDBRANCH  13  14
ENDBRANCH   1  13
BRANCH   3  16
ATOM     16  O   UNL     1     -11.795   5.205 129.932  0.00  0.00    +0.000 OA
BRANCH  16  17
ATOM     17  C   UNL     1     -12.288   6.463 129.687  0.00  0.00    +0.000 A 
ATOM     18  C   UNL     1     -12.412   7.482 130.628  0.00  0.00    +0.000 A 
ATOM     19  C   UNL     1     -12.759   8.780 130.265  0.00  0.00    +0.000 A 
ATOM     20  C   UNL     1     -13.082   9.022 128.938  0.00  0.00    +0.000 A 
ATOM     21  C   UNL     1     -13.055   8.010 127.999  0.00  0.00    +0.000 A 
ATOM     22  C   UNL     1     -12.647   6.718 128.362  0.00  0.00    +0.000 A 
BRANCH  20  23
ATOM     23  O   UNL     1     -13.445  10.281 128.552  0.00  0.00    +0.000 OA
ATOM     24  H   UNL     1     -13.258  10.887 129.282  0.00  0.00    +0.000 HD
ENDBRANCH  20  23
ENDBRANCH  16  17
ENDBRANCH   3  16
TORSDOF 8
ENDMDL
MODEL 6
REMARK VINA RESULT:      -6.1      7.236      9.348
REMARK  Name = Arbutin
REMARK  8 active torsions:
REMARK  status: ('A' for Active; 'I' for Inactive)
REMARK    1  A    between atoms: O_1  and  C_2
REMARK    2  A    between atoms: C_2  and  C_3
REMARK    3  A    between atoms: C_5  and  O_6
REMARK    4  A    between atoms: O_6  and  C_7
REMARK    5  A    between atoms: C_10  and  O_11
REMARK    6  A    between atoms: C_14  and  O_15
REMARK    7  A    between atoms: C_16  and  O_17
REMARK    8  A    between atoms: C_18  and  O_19
REMARK                            x       y       z     vdW  Elec       q    Type
REMARK                         _______ _______ _______ _____ _____    ______ ____
ROOT
ATOM      1  C   UNL     1     -11.078   7.185 128.524  0.00  0.00    +0.000 C 
ATOM      2  O   UNL     1      -9.962   7.567 129.312  0.00  0.00    +0.000 OA
ATOM      3  C   UNL     1      -9.826   6.770 130.474  0.00  0.00    +0.000 C 
ATOM      4  C   UNL     1     -11.076   6.856 131.391  0.00  0.00    +0.000 C 
ATOM      5  C   UNL     1     -12.386   6.780 130.564  0.00  0.00    +0.000 C 
ATOM      6  C   UNL     1     -12.345   7.679 129.255  0.00  0.00    +0.000 C 
ENDROOT
BRANCH   4   7
ATOM      7  O   UNL     1     -11.034   5.869 132.432  0.00  0.00    +0.000 OA
ATOM      8  H   UNL     1     -10.191   5.390 132.387  0.00  0.00    +0.000 HD
ENDBRANCH   4   7
BRANCH   5   9
ATOM      9  O   UNL     1     -13.515   7.088 131.388  0.00  0.00    +0.000 OA
ATOM     10  H   UNL     1     -13.409   6.636 132.241  0.00  0.00    +0.000 HD
ENDBRANCH   5   9
BRANCH   6  11
ATOM     11  O   UNL     1     -13.530   7.492 128.486  0.00  0.00    +0.000 OA
ATOM     12  H   UNL     1     -14.253   7.982 128.917  0.00  0.00    +0.000 HD
ENDBRANCH   6  11
BRANCH   1  13
ATOM     13  C   UNL     1     -10.550   7.302 127.089  0.00  0.00    +0.000 C 
BRANCH  13  14
ATOM     14  O   UNL     1     -11.565   6.677 126.266  0.00  0.00    +0.000 OA
ATOM     15  H   UNL     1     -12.395   7.168 126.360  0.00  0.00    +0.000 HD
ENDBRANCH  13  14
ENDBRANCH   1  13
BRANCH   3  16
ATOM     16  O   UNL     1      -8.606   7.105 131.144  0.00  0.00    +0.000 OA
BRANCH  16  17
ATOM     17  C   UNL     1      -7.498   6.349 130.846  0.00  0.00    +0.000 A 
ATOM     18  C   UNL     1      -7.514   5.078 130.280  0.00  0.00    +0.000 A 
ATOM     19  C   UNL     1      -6.349   4.450 129.849  0.00  0.00    +0.000 A 
ATOM     20  C   UNL     1      -5.139   5.084 130.088  0.00  0.00    +0.000 A 
ATOM     21  C   UNL     1      -5.086   6.306 130.730  0.00  0.00    +0.000 A 
ATOM     22  C   UNL     1      -6.269   6.959 131.107  0.00  0.00    +0.000 A 
BRANCH  20  23
ATOM     23  O   UNL     1      -3.975   4.486 129.695  0.00  0.00    +0.000 OA
ATOM     24  H   UNL     1      -3.494   4.212 130.488  0.00  0.00    +0.000 HD
ENDBRANCH  20  23
ENDBRANCH  16  17
ENDBRANCH   3  16
TORSDOF 8
ENDMDL
MODEL 7
REMARK VINA RESULT:      -6.1      3.255      6.015
REMARK  Name = Arbutin
REMARK  8 active torsions:
REMARK  status: ('A' for Active; 'I' for Inactive)
REMARK    1  A    between atoms: O_1  and  C_2
REMARK    2  A    between atoms: C_2  and  C_3
REMARK    3  A    between atoms: C_5  and  O_6
REMARK    4  A    between atoms: O_6  and  C_7
REMARK    5  A    between atoms: C_10  and  O_11
REMARK    6  A    between atoms: C_14  and  O_15
REMARK    7  A    between atoms: C_16  and  O_17
REMARK    8  A    between atoms: C_18  and  O_19
REMARK                            x       y       z     vdW  Elec       q    Type
REMARK                         _______ _______ _______ _____ _____    ______ ____
ROOT
ATOM      1  C   UNL     1      -8.856   2.704 122.734  0.00  0.00    +0.000 C 
ATOM      2  O   UNL     1      -8.819   1.311 122.461  0.00  0.00    +0.000 OA
ATOM      3  C   UNL     1      -9.707   0.579 123.284  0.00  0.00    +0.000 C 
ATOM      4  C   UNL     1      -9.381   0.751 124.793  0.00  0.00    +0.000 C 
ATOM      5  C   UNL     1      -9.072   2.231 125.135  0.00  0.00    +0.000 C 
ATOM      6  C   UNL     1      -8.118   2.927 124.072  0.00  0.00    +0.000 C 
ENDROOT
BRANCH   4   7
ATOM      7  O   UNL     1     -10.421   0.209 125.620  0.00  0.00    +0.000 OA
ATOM      8  H   UNL     1     -10.758   0.902 126.210  0.00  0.00    +0.000 HD
ENDBRANCH   4   7
BRANCH   5   9
ATOM      9  O   UNL     1      -8.555   2.338 126.465  0.00  0.00    +0.000 OA
ATOM     10  H   UNL     1      -9.123   2.942 126.971  0.00  0.00    +0.000 HD
ENDBRANCH   5   9
BRANCH   6  11
ATOM     11  O   UNL     1      -7.950   4.307 124.382  0.00  0.00    +0.000 OA
ATOM     12  H   UNL     1      -7.873   4.799 123.544  0.00  0.00    +0.000 HD
ENDBRANCH   6  11
BRANCH   1  13
ATOM     13  C   UNL     1      -8.769   3.336 121.340  0.00  0.00    +0.000 C 
BRANCH  13  14
ATOM     14  O   UNL     1      -7.454   3.942 121.287  0.00  0.00    +0.000 OA
ATOM     15  H   UNL     1      -6.815   3.284 120.973  0.00  0.00    +0.000 HD
ENDBRANCH  13  14
ENDBRANCH   1  13
BRANCH   3  16
ATOM     16  O   UNL     1      -9.733  -0.790 122.861  0.00  0.00    +0.000 OA
BRANCH  16  17
ATOM     17  C   UNL     1      -8.613  -1.545 123.113  0.00  0.00    +0.000 A 
ATOM     18  C   UNL     1      -7.313  -1.213 122.744  0.00  0.00    +0.000 A 
ATOM     19  C   UNL     1      -6.214  -1.945 123.185  0.00  0.00    +0.000 A 
ATOM     20  C   UNL     1      -6.449  -3.088 123.933  0.00  0.00    +0.000 A 
ATOM     21  C   UNL     1      -7.734  -3.492 124.238  0.00  0.00    +0.000 A 
ATOM     22  C   UNL     1      -8.833  -2.717 123.840  0.00  0.00    +0.000 A 
BRANCH  20  23
ATOM     23  O   UNL     1      -5.393  -3.839 124.366  0.00  0.00    +0.000 OA
ATOM     24  H   UNL     1      -5.610  -4.189 125.241  0.00  0.00    +0.000 HD
ENDBRANCH  20  23
ENDBRANCH  16  17
ENDBRANCH   3  16
TORSDOF 8
ENDMDL
MODEL 8
REMARK VINA RESULT:      -6.1      2.773      6.074
REMARK  Name = Arbutin
REMARK  8 active torsions:
REMARK  status: ('A' for Active; 'I' for Inactive)
REMARK    1  A    between atoms: O_1  and  C_2
REMARK    2  A    between atoms: C_2  and  C_3
REMARK    3  A    between atoms: C_5  and  O_6
REMARK    4  A    between atoms: O_6  and  C_7
REMARK    5  A    between atoms: C_10  and  O_11
REMARK    6  A    between atoms: C_14  and  O_15
REMARK    7  A    between atoms: C_16  and  O_17
REMARK    8  A    between atoms: C_18  and  O_19
REMARK                            x       y       z     vdW  Elec       q    Type
REMARK                         _______ _______ _______ _____ _____    ______ ____
ROOT
ATOM      1  C   UNL     1      -6.555   3.656 123.986  0.00  0.00    +0.000 C 
ATOM      2  O   UNL     1      -6.253   2.323 124.367  0.00  0.00    +0.000 OA
ATOM      3  C   UNL     1      -7.290   1.734 125.129  0.00  0.00    +0.000 C 
ATOM      4  C   UNL     1      -7.577   2.523 126.435  0.00  0.00    +0.000 C 
ATOM      5  C   UNL     1      -7.598   4.051 126.175  0.00  0.00    +0.000 C 
ATOM      6  C   UNL     1      -6.406   4.537 125.244  0.00  0.00    +0.000 C 
ENDROOT
BRANCH   4   7
ATOM      7  O   UNL     1      -8.779   2.065 127.073  0.00  0.00    +0.000 OA
ATOM      8  H   UNL     1      -9.212   2.811 127.517  0.00  0.00    +0.000 HD
ENDBRANCH   4   7
BRANCH   5   9
ATOM      9  O   UNL     1      -7.635   4.768 127.413  0.00  0.00    +0.000 OA
ATOM     10  H   UNL     1      -6.748   4.748 127.809  0.00  0.00    +0.000 HD
ENDBRANCH   5   9
BRANCH   6  11
ATOM     11  O   UNL     1      -6.533   5.927 124.958  0.00  0.00    +0.000 OA
ATOM     12  H   UNL     1      -7.425   6.213 125.227  0.00  0.00    +0.000 HD
ENDBRANCH   6  11
BRANCH   1  13
ATOM     13  C   UNL     1      -6.028   3.736 122.548  0.00  0.00    +0.000 C 
BRANCH  13  14
ATOM     14  O   UNL     1      -5.125   4.869 122.545  0.00  0.00    +0.000 OA
ATOM     15  H   UNL     1      -4.741   4.964 121.660  0.00  0.00    +0.000 HD
ENDBRANCH  13  14
ENDBRANCH   1  13
BRANCH   3  16
ATOM     16  O   UNL     1      -6.992   0.351 125.354  0.00  0.00    +0.000 OA
BRANCH  16  17
ATOM     17  C   UNL     1      -7.840  -0.573 124.793  0.00  0.00    +0.000 A 
ATOM     18  C   UNL     1      -8.059  -0.748 123.430  0.00  0.00    +0.000 A 
ATOM     19  C   UNL     1      -8.800  -1.817 122.936  0.00  0.00    +0.000 A 
ATOM     20  C   UNL     1      -9.410  -2.666 123.847  0.00  0.00    +0.000 A 
ATOM     21  C   UNL     1      -9.284  -2.464 125.208  0.00  0.00    +0.000 A 
ATOM     22  C   UNL     1      -8.487  -1.419 125.698  0.00  0.00    +0.000 A 
BRANCH  20  23
ATOM     23  O   UNL     1     -10.160  -3.714 123.396  0.00  0.00    +0.000 OA
ATOM     24  H   UNL     1     -10.377  -4.278 124.151  0.00  0.00    +0.000 HD
ENDBRANCH  20  23
ENDBRANCH  16  17
ENDBRANCH   3  16
TORSDOF 8
ENDMDL
MODEL 9
REMARK VINA RESULT:      -5.9      4.955      8.543
REMARK  Name = Arbutin
REMARK  8 active torsions:
REMARK  status: ('A' for Active; 'I' for Inactive)
REMARK    1  A    between atoms: O_1  and  C_2
REMARK    2  A    between atoms: C_2  and  C_3
REMARK    3  A    between atoms: C_5  and  O_6
REMARK    4  A    between atoms: O_6  and  C_7
REMARK    5  A    between atoms: C_10  and  O_11
REMARK    6  A    between atoms: C_14  and  O_15
REMARK    7  A    between atoms: C_16  and  O_17
REMARK    8  A    between atoms: C_18  and  O_19
REMARK                            x       y       z     vdW  Elec       q    Type
REMARK                         _______ _______ _______ _____ _____    ______ ____
ROOT
ATOM      1  C   UNL     1      -8.990  -1.279 123.829  0.00  0.00    +0.000 C 
ATOM      2  O   UNL     1      -7.779  -1.106 124.548  0.00  0.00    +0.000 OA
ATOM      3  C   UNL     1      -7.983  -0.487 125.804  0.00  0.00    +0.000 C 
ATOM      4  C   UNL     1      -8.629   0.919 125.665  0.00  0.00    +0.000 C 
ATOM      5  C   UNL     1      -9.779   0.908 124.625  0.00  0.00    +0.000 C 
ATOM      6  C   UNL     1      -9.410   0.110 123.301  0.00  0.00    +0.000 C 
ENDROOT
BRANCH   4   7
ATOM      7  O   UNL     1      -9.052   1.431 126.937  0.00  0.00    +0.000 OA
ATOM      8  H   UNL     1     -10.022   1.456 126.968  0.00  0.00    +0.000 HD
ENDBRANCH   4   7
BRANCH   5   9
ATOM      9  O   UNL     1     -10.208   2.243 124.342  0.00  0.00    +0.000 OA
ATOM     10  H   UNL     1     -10.300   2.724 125.181  0.00  0.00    +0.000 HD
ENDBRANCH   5   9
BRANCH   6  11
ATOM     11  O   UNL     1     -10.535   0.048 122.429  0.00  0.00    +0.000 OA
ATOM     12  H   UNL     1     -11.115   0.805 122.626  0.00  0.00    +0.000 HD
ENDBRANCH   6  11
BRANCH   1  13
ATOM     13  C   UNL     1      -8.826  -2.665 123.195  0.00  0.00    +0.000 C 
BRANCH  13  14
ATOM     14  O   UNL     1     -10.087  -3.336 123.433  0.00  0.00    +0.000 OA
ATOM     15  H   UNL     1     -10.289  -3.907 122.677  0.00  0.00    +0.000 HD
ENDBRANCH  13  14
ENDBRANCH   1  13
BRANCH   3  16
ATOM     16  O   UNL     1      -6.753  -0.477 126.538  0.00  0.00    +0.000 OA
BRANCH  16  17
ATOM     17  C   UNL     1      -6.564  -1.479 127.459  0.00  0.00    +0.000 A 
ATOM     18  C   UNL     1      -5.332  -1.963 127.888  0.00  0.00    +0.000 A 
ATOM     19  C   UNL     1      -5.222  -2.858 128.948  0.00  0.00    +0.000 A 
ATOM     20  C   UNL     1      -6.390  -3.344 129.516  0.00  0.00    +0.000 A 
ATOM     21  C   UNL     1      -7.630  -2.950 129.050  0.00  0.00    +0.000 A 
ATOM     22  C   UNL     1      -7.731  -2.003 128.021  0.00  0.00    +0.000 A 
BRANCH  20  23
ATOM     23  O   UNL     1      -6.319  -4.238 130.546  0.00  0.00    +0.000 OA
ATOM     24  H   UNL     1      -7.220  -4.474 130.805  0.00  0.00    +0.000 HD
ENDBRANCH  20  23
ENDBRANCH  16  17
ENDBRANCH   3  16
TORSDOF 8
ENDMDL
