MODEL 1
REMARK VINA RESULT:      -7.2      0.000      0.000
REMARK  Name = Arbutamine
REMARK  12 active torsions:
REMARK  status: ('A' for Active; 'I' for Inactive)
REMARK    1  A    between atoms: O_1  and  C_2
REMARK    2  A    between atoms: C_2  and  C_3
REMARK    3  A    between atoms: C_2  and  C_16
REMARK    4  A    between atoms: C_3  and  N_4
REMARK    5  A    between atoms: N_4  and  C_5
REMARK    6  A    between atoms: C_5  and  C_6
REMARK    7  A    between atoms: C_6  and  C_7
REMARK    8  A    between atoms: C_7  and  C_8
REMARK    9  A    between atoms: C_8  and  C_9
REMARK   10  A    between atoms: C_12  and  O_13
REMARK   11  A    between atoms: C_18  and  O_19
REMARK   12  A    between atoms: C_20  and  O_21
REMARK                            x       y       z     vdW  Elec       q    Type
REMARK                         _______ _______ _______ _____ _____    ______ ____
ROOT
ATOM      1  C   UNL     1      -9.743   1.184 123.415  0.00  0.00    +0.000 C 
ENDROOT
BRANCH   1   2
ATOM      2  N   UNL     1      -9.358  -0.157 123.871  0.00  0.00    +0.000 NA
ATOM      3  H   UNL     1     -10.004  -0.464 124.597  0.00  0.00    +0.000 HD
BRANCH   2   4
ATOM      4  C   UNL     1      -9.494  -1.078 122.748  0.00  0.00    +0.000 C 
BRANCH   4   5
ATOM      5  C   UNL     1      -8.604  -2.278 123.008  0.00  0.00    +0.000 C 
BRANCH   5   6
ATOM      6  C   UNL     1      -9.294  -3.185 124.007  0.00  0.00    +0.000 C 
BRANCH   6   7
ATOM      7  C   UNL     1      -8.288  -3.940 124.862  0.00  0.00    +0.000 C 
BRANCH   7   8
ATOM      8  C   UNL     1      -8.149  -3.401 126.264  0.00  0.00    +0.000 A 
ATOM      9  C   UNL     1      -8.773  -3.979 127.380  0.00  0.00    +0.000 A 
ATOM     10  C   UNL     1      -8.662  -3.400 128.644  0.00  0.00    +0.000 A 
ATOM     11  C   UNL     1      -7.910  -2.241 128.793  0.00  0.00    +0.000 A 
ATOM     12  C   UNL     1      -7.266  -1.666 127.708  0.00  0.00    +0.000 A 
ATOM     13  C   UNL     1      -7.379  -2.244 126.445  0.00  0.00    +0.000 A 
BRANCH  11  14
ATOM     14  O   UNL     1      -7.783  -1.633 130.006  0.00  0.00    +0.000 OA
ATOM     15  H   UNL     1      -8.538  -1.038 130.131  0.00  0.00    +0.000 HD
ENDBRANCH  11  14
ENDBRANCH   7   8
ENDBRANCH   6   7
ENDBRANCH   5   6
ENDBRANCH   4   5
ENDBRANCH   2   4
ENDBRANCH   1   2
BRANCH   1  16
ATOM     16  C   UNL     1      -8.651   2.238 123.684  0.00  0.00    +0.000 C 
BRANCH  16  17
ATOM     17  C   UNL     1      -8.152   2.923 122.426  0.00  0.00    +0.000 A 
ATOM     18  C   UNL     1      -9.070   3.256 121.413  0.00  0.00    +0.000 A 
ATOM     19  C   UNL     1      -8.618   3.842 120.235  0.00  0.00    +0.000 A 
ATOM     20  C   UNL     1      -7.266   4.108 120.052  0.00  0.00    +0.000 A 
ATOM     21  C   UNL     1      -6.348   3.824 121.046  0.00  0.00    +0.000 A 
ATOM     22  C   UNL     1      -6.794   3.245 122.232  0.00  0.00    +0.000 A 
BRANCH  19  23
ATOM     23  O   UNL     1      -9.476   4.163 119.218  0.00  0.00    +0.000 OA
ATOM     24  H   UNL     1      -8.974   4.669 118.556  0.00  0.00    +0.000 HD
ENDBRANCH  19  23
BRANCH  20  25
ATOM     25  O   UNL     1      -6.816   4.651 118.884  0.00  0.00    +0.000 OA
ATOM     26  H   UNL     1      -7.543   4.494 118.250  0.00  0.00    +0.000 HD
ENDBRANCH  20  25
ENDBRANCH  16  17
BRANCH  16  27
ATOM     27  O   UNL     1      -9.188   3.239 124.560  0.00  0.00    +0.000 OA
ATOM     28  H   UNL     1      -9.928   2.810 125.021  0.00  0.00    +0.000 HD
ENDBRANCH  16  27
ENDBRANCH   1  16
TORSDOF 12
ENDMDL
MODEL 2
REMARK VINA RESULT:      -7.2      1.607      2.446
REMARK  Name = Arbutamine
REMARK  12 active torsions:
REMARK  status: ('A' for Active; 'I' for Inactive)
REMARK    1  A    between atoms: O_1  and  C_2
REMARK    2  A    between atoms: C_2  and  C_3
REMARK    3  A    between atoms: C_2  and  C_16
REMARK    4  A    between atoms: C_3  and  N_4
REMARK    5  A    between atoms: N_4  and  C_5
REMARK    6  A    between atoms: C_5  and  C_6
REMARK    7  A    between atoms: C_6  and  C_7
REMARK    8  A    between atoms: C_7  and  C_8
REMARK    9  A    between atoms: C_8  and  C_9
REMARK   10  A    between atoms: C_12  and  O_13
REMARK   11  A    between atoms: C_18  and  O_19
REMARK   12  A    between atoms: C_20  and  O_21
REMARK                            x       y       z     vdW  Elec       q    Type
REMARK                         _______ _______ _______ _____ _____    ______ ____
ROOT
ATOM      1  C   UNL     1      -7.189   1.484 123.292  0.00  0.00    +0.000 C 
ENDROOT
BRANCH   1   2
ATOM      2  N   UNL     1      -8.535   1.064 123.702  0.00  0.00    +0.000 NA
ATOM      3  H   UNL     1      -9.226   1.655 123.242  0.00  0.00    +0.000 HD
BRANCH   2   4
ATOM      4  C   UNL     1      -8.750  -0.302 123.237  0.00  0.00    +0.000 C 
BRANCH   4   5
ATOM      5  C   UNL     1      -7.424  -1.036 123.296  0.00  0.00    +0.000 C 
BRANCH   5   6
ATOM      6  C   UNL     1      -7.634  -2.357 124.009  0.00  0.00    +0.000 C 
BRANCH   6   7
ATOM      7  C   UNL     1      -8.881  -2.329 124.879  0.00  0.00    +0.000 C 
BRANCH   7   8
ATOM      8  C   UNL     1      -8.600  -2.442 126.357  0.00  0.00    +0.000 A 
ATOM      9  C   UNL     1      -7.950  -1.444 127.099  0.00  0.00    +0.000 A 
ATOM     10  C   UNL     1      -7.659  -1.630 128.450  0.00  0.00    +0.000 A 
ATOM     11  C   UNL     1      -8.032  -2.819 129.066  0.00  0.00    +0.000 A 
ATOM     12  C   UNL     1      -8.695  -3.810 128.357  0.00  0.00    +0.000 A 
ATOM     13  C   UNL     1      -8.984  -3.624 127.006  0.00  0.00    +0.000 A 
BRANCH  11  14
ATOM     14  O   UNL     1      -7.757  -3.050 130.380  0.00  0.00    +0.000 OA
ATOM     15  H   UNL     1      -7.251  -3.874 130.447  0.00  0.00    +0.000 HD
ENDBRANCH  11  14
ENDBRANCH   7   8
ENDBRANCH   6   7
ENDBRANCH   5   6
ENDBRANCH   4   5
ENDBRANCH   2   4
ENDBRANCH   1   2
BRANCH   1  16
ATOM     16  C   UNL     1      -6.962   2.998 123.466  0.00  0.00    +0.000 C 
BRANCH  16  17
ATOM     17  C   UNL     1      -6.481   3.685 122.202  0.00  0.00    +0.000 A 
ATOM     18  C   UNL     1      -5.332   4.496 122.255  0.00  0.00    +0.000 A 
ATOM     19  C   UNL     1      -4.908   5.170 121.114  0.00  0.00    +0.000 A 
ATOM     20  C   UNL     1      -5.605   5.043 119.918  0.00  0.00    +0.000 A 
ATOM     21  C   UNL     1      -6.717   4.224 119.831  0.00  0.00    +0.000 A 
ATOM     22  C   UNL     1      -7.143   3.540 120.968  0.00  0.00    +0.000 A 
BRANCH  19  23
ATOM     23  O   UNL     1      -3.807   5.982 121.128  0.00  0.00    +0.000 OA
ATOM     24  H   UNL     1      -3.489   6.066 120.213  0.00  0.00    +0.000 HD
ENDBRANCH  19  23
BRANCH  20  25
ATOM     25  O   UNL     1      -5.211   5.728 118.807  0.00  0.00    +0.000 OA
ATOM     26  H   UNL     1      -4.409   6.209 119.092  0.00  0.00    +0.000 HD
ENDBRANCH  20  25
ENDBRANCH  16  17
BRANCH  16  27
ATOM     27  O   UNL     1      -8.199   3.604 123.867  0.00  0.00    +0.000 OA
ATOM     28  H   UNL     1      -7.951   4.325 124.469  0.00  0.00    +0.000 HD
ENDBRANCH  16  27
ENDBRANCH   1  16
TORSDOF 12
ENDMDL
MODEL 3
REMARK VINA RESULT:      -7.1      1.914      8.797
REMARK  Name = Arbutamine
REMARK  12 active torsions:
REMARK  status: ('A' for Active; 'I' for Inactive)
REMARK    1  A    between atoms: O_1  and  C_2
REMARK    2  A    between atoms: C_2  and  C_3
REMARK    3  A    between atoms: C_2  and  C_16
REMARK    4  A    between atoms: C_3  and  N_4
REMARK    5  A    between atoms: N_4  and  C_5
REMARK    6  A    between atoms: C_5  and  C_6
REMARK    7  A    between atoms: C_6  and  C_7
REMARK    8  A    between atoms: C_7  and  C_8
REMARK    9  A    between atoms: C_8  and  C_9
REMARK   10  A    between atoms: C_12  and  O_13
REMARK   11  A    between atoms: C_18  and  O_19
REMARK   12  A    between atoms: C_20  and  O_21
REMARK                            x       y       z     vdW  Elec       q    Type
REMARK                         _______ _______ _______ _____ _____    ______ ____
ROOT
ATOM      1  C   UNL     1      -8.432  -2.161 123.021  0.00  0.00    +0.000 C 
ENDROOT
BRANCH   1   2
ATOM      2  N   UNL     1      -9.350  -1.032 123.218  0.00  0.00    +0.000 NA
ATOM      3  H   UNL     1      -9.832  -1.142 124.109  0.00  0.00    +0.000 HD
BRANCH   2   4
ATOM      4  C   UNL     1      -8.558   0.191 123.301  0.00  0.00    +0.000 C 
BRANCH   4   5
ATOM      5  C   UNL     1      -9.509   1.363 123.446  0.00  0.00    +0.000 C 
BRANCH   5   6
ATOM      6  C   UNL     1      -9.084   2.455 122.485  0.00  0.00    +0.000 C 
BRANCH   6   7
ATOM      7  C   UNL     1      -7.622   2.829 122.677  0.00  0.00    +0.000 C 
BRANCH   7   8
ATOM      8  C   UNL     1      -7.017   3.558 121.503  0.00  0.00    +0.000 A 
ATOM      9  C   UNL     1      -5.694   4.026 121.483  0.00  0.00    +0.000 A 
ATOM     10  C   UNL     1      -5.207   4.751 120.396  0.00  0.00    +0.000 A 
ATOM     11  C   UNL     1      -6.046   4.999 119.317  0.00  0.00    +0.000 A 
ATOM     12  C   UNL     1      -7.350   4.527 119.306  0.00  0.00    +0.000 A 
ATOM     13  C   UNL     1      -7.837   3.804 120.394  0.00  0.00    +0.000 A 
BRANCH  11  14
ATOM     14  O   UNL     1      -5.618   5.714 118.238  0.00  0.00    +0.000 OA
ATOM     15  H   UNL     1      -6.137   5.443 117.465  0.00  0.00    +0.000 HD
ENDBRANCH  11  14
ENDBRANCH   7   8
ENDBRANCH   6   7
ENDBRANCH   5   6
ENDBRANCH   4   5
ENDBRANCH   2   4
ENDBRANCH   1   2
BRANCH   1  16
ATOM     16  C   UNL     1      -8.714  -3.328 123.987  0.00  0.00    +0.000 C 
BRANCH  16  17
ATOM     17  C   UNL     1      -8.253  -3.061 125.407  0.00  0.00    +0.000 A 
ATOM     18  C   UNL     1      -7.029  -2.398 125.620  0.00  0.00    +0.000 A 
ATOM     19  C   UNL     1      -6.573  -2.189 126.917  0.00  0.00    +0.000 A 
ATOM     20  C   UNL     1      -7.318  -2.623 128.007  0.00  0.00    +0.000 A 
ATOM     21  C   UNL     1      -8.540  -3.245 127.826  0.00  0.00    +0.000 A 
ATOM     22  C   UNL     1      -9.008  -3.451 126.530  0.00  0.00    +0.000 A 
BRANCH  19  23
ATOM     23  O   UNL     1      -5.380  -1.566 127.166  0.00  0.00    +0.000 OA
ATOM     24  H   UNL     1      -4.809  -2.197 127.637  0.00  0.00    +0.000 HD
ENDBRANCH  19  23
BRANCH  20  25
ATOM     25  O   UNL     1      -6.856  -2.449 129.279  0.00  0.00    +0.000 OA
ATOM     26  H   UNL     1      -5.885  -2.521 129.194  0.00  0.00    +0.000 HD
ENDBRANCH  20  25
ENDBRANCH  16  17
BRANCH  16  27
ATOM     27  O   UNL     1     -10.128  -3.572 124.010  0.00  0.00    +0.000 OA
ATOM     28  H   UNL     1     -10.492  -3.050 123.276  0.00  0.00    +0.000 HD
ENDBRANCH  16  27
ENDBRANCH   1  16
TORSDOF 12
ENDMDL
MODEL 4
REMARK VINA RESULT:      -6.9      8.670     10.433
REMARK  Name = Arbutamine
REMARK  12 active torsions:
REMARK  status: ('A' for Active; 'I' for Inactive)
REMARK    1  A    between atoms: O_1  and  C_2
REMARK    2  A    between atoms: C_2  and  C_3
REMARK    3  A    between atoms: C_2  and  C_16
REMARK    4  A    between atoms: C_3  and  N_4
REMARK    5  A    between atoms: N_4  and  C_5
REMARK    6  A    between atoms: C_5  and  C_6
REMARK    7  A    between atoms: C_6  and  C_7
REMARK    8  A    between atoms: C_7  and  C_8
REMARK    9  A    between atoms: C_8  and  C_9
REMARK   10  A    between atoms: C_12  and  O_13
REMARK   11  A    between atoms: C_18  and  O_19
REMARK   12  A    between atoms: C_20  and  O_21
REMARK                            x       y       z     vdW  Elec       q    Type
REMARK                         _______ _______ _______ _____ _____    ______ ____
ROOT
ATOM      1  C   UNL     1     -10.152   5.782 131.538  0.00  0.00    +0.000 C 
ENDROOT
BRANCH   1   2
ATOM      2  N   UNL     1     -10.186   5.349 132.940  0.00  0.00    +0.000 NA
ATOM      3  H   UNL     1     -11.115   4.991 133.159  0.00  0.00    +0.000 HD
BRANCH   2   4
ATOM      4  C   UNL     1      -9.245   4.244 133.099  0.00  0.00    +0.000 C 
BRANCH   4   5
ATOM      5  C   UNL     1      -8.611   4.356 134.473  0.00  0.00    +0.000 C 
BRANCH   5   6
ATOM      6  C   UNL     1      -7.656   5.532 134.471  0.00  0.00    +0.000 C 
BRANCH   6   7
ATOM      7  C   UNL     1      -6.270   5.125 133.993  0.00  0.00    +0.000 C 
BRANCH   7   8
ATOM      8  C   UNL     1      -5.763   5.930 132.823  0.00  0.00    +0.000 A 
ATOM      9  C   UNL     1      -4.422   6.314 132.672  0.00  0.00    +0.000 A 
ATOM     10  C   UNL     1      -4.021   7.114 131.602  0.00  0.00    +0.000 A 
ATOM     11  C   UNL     1      -4.968   7.524 130.671  0.00  0.00    +0.000 A 
ATOM     12  C   UNL     1      -6.295   7.138 130.790  0.00  0.00    +0.000 A 
ATOM     13  C   UNL     1      -6.695   6.340 131.860  0.00  0.00    +0.000 A 
BRANCH  11  14
ATOM     14  O   UNL     1      -4.626   8.316 129.617  0.00  0.00    +0.000 OA
ATOM     15  H   UNL     1      -3.658   8.374 129.579  0.00  0.00    +0.000 HD
ENDBRANCH  11  14
ENDBRANCH   7   8
ENDBRANCH   6   7
ENDBRANCH   5   6
ENDBRANCH   4   5
ENDBRANCH   2   4
ENDBRANCH   1   2
BRANCH   1  16
ATOM     16  C   UNL     1     -11.293   6.759 131.193  0.00  0.00    +0.000 C 
BRANCH  16  17
ATOM     17  C   UNL     1     -11.602   6.826 129.709  0.00  0.00    +0.000 A 
ATOM     18  C   UNL     1     -10.557   6.654 128.781  0.00  0.00    +0.000 A 
ATOM     19  C   UNL     1     -10.819   6.760 127.419  0.00  0.00    +0.000 A 
ATOM     20  C   UNL     1     -12.105   7.026 126.965  0.00  0.00    +0.000 A 
ATOM     21  C   UNL     1     -13.155   7.164 127.855  0.00  0.00    +0.000 A 
ATOM     22  C   UNL     1     -12.903   7.051 129.220  0.00  0.00    +0.000 A 
BRANCH  19  23
ATOM     23  O   UNL     1      -9.828   6.619 126.486  0.00  0.00    +0.000 OA
ATOM     24  H   UNL     1      -9.578   5.679 126.460  0.00  0.00    +0.000 HD
ENDBRANCH  19  23
BRANCH  20  25
ATOM     25  O   UNL     1     -12.358   7.163 125.631  0.00  0.00    +0.000 OA
ATOM     26  H   UNL     1     -13.280   6.856 125.528  0.00  0.00    +0.000 HD
ENDBRANCH  20  25
ENDBRANCH  16  17
BRANCH  16  27
ATOM     27  O   UNL     1     -12.479   6.340 131.882  0.00  0.00    +0.000 OA
ATOM     28  H   UNL     1     -12.292   6.477 132.826  0.00  0.00    +0.000 HD
ENDBRANCH  16  27
ENDBRANCH   1  16
TORSDOF 12
ENDMDL
MODEL 5
REMARK VINA RESULT:      -6.8      2.495      8.241
REMARK  Name = Arbutamine
REMARK  12 active torsions:
REMARK  status: ('A' for Active; 'I' for Inactive)
REMARK    1  A    between atoms: O_1  and  C_2
REMARK    2  A    between atoms: C_2  and  C_3
REMARK    3  A    between atoms: C_2  and  C_16
REMARK    4  A    between atoms: C_3  and  N_4
REMARK    5  A    between atoms: N_4  and  C_5
REMARK    6  A    between atoms: C_5  and  C_6
REMARK    7  A    between atoms: C_6  and  C_7
REMARK    8  A    between atoms: C_7  and  C_8
REMARK    9  A    between atoms: C_8  and  C_9
REMARK   10  A    between atoms: C_12  and  O_13
REMARK   11  A    between atoms: C_18  and  O_19
REMARK   12  A    between atoms: C_20  and  O_21
REMARK                            x       y       z     vdW  Elec       q    Type
REMARK                         _______ _______ _______ _____ _____    ______ ____
ROOT
ATOM      1  C   UNL     1      -9.024   2.252 125.416  0.00  0.00    +0.000 C 
ENDROOT
BRANCH   1   2
ATOM      2  N   UNL     1      -9.038   3.703 125.197  0.00  0.00    +0.000 NA
ATOM      3  H   UNL     1      -9.752   4.126 125.787  0.00  0.00    +0.000 HD
BRANCH   2   4
ATOM      4  C   UNL     1      -7.749   4.240 125.620  0.00  0.00    +0.000 C 
BRANCH   4   5
ATOM      5  C   UNL     1      -6.665   3.275 125.179  0.00  0.00    +0.000 C 
BRANCH   5   6
ATOM      6  C   UNL     1      -5.957   3.858 123.973  0.00  0.00    +0.000 C 
BRANCH   6   7
ATOM      7  C   UNL     1      -6.294   3.090 122.704  0.00  0.00    +0.000 C 
BRANCH   7   8
ATOM      8  C   UNL     1      -6.080   3.879 121.435  0.00  0.00    +0.000 A 
ATOM      9  C   UNL     1      -4.983   4.729 121.229  0.00  0.00    +0.000 A 
ATOM     10  C   UNL     1      -4.870   5.484 120.062  0.00  0.00    +0.000 A 
ATOM     11  C   UNL     1      -5.858   5.378 119.090  0.00  0.00    +0.000 A 
ATOM     12  C   UNL     1      -6.939   4.528 119.264  0.00  0.00    +0.000 A 
ATOM     13  C   UNL     1      -7.053   3.775 120.431  0.00  0.00    +0.000 A 
BRANCH  11  14
ATOM     14  O   UNL     1      -5.797   6.106 117.939  0.00  0.00    +0.000 OA
ATOM     15  H   UNL     1      -4.870   6.160 117.660  0.00  0.00    +0.000 HD
ENDBRANCH  11  14
ENDBRANCH   7   8
ENDBRANCH   6   7
ENDBRANCH   5   6
ENDBRANCH   4   5
ENDBRANCH   2   4
ENDBRANCH   1   2
BRANCH   1  16
ATOM     16  C   UNL     1      -9.361   1.457 124.139  0.00  0.00    +0.000 C 
BRANCH  16  17
ATOM     17  C   UNL     1      -8.766   0.061 124.123  0.00  0.00    +0.000 A 
ATOM     18  C   UNL     1      -9.180  -0.874 125.091  0.00  0.00    +0.000 A 
ATOM     19  C   UNL     1      -8.608  -2.142 125.116  0.00  0.00    +0.000 A 
ATOM     20  C   UNL     1      -7.635  -2.496 124.188  0.00  0.00    +0.000 A 
ATOM     21  C   UNL     1      -7.237  -1.608 123.206  0.00  0.00    +0.000 A 
ATOM     22  C   UNL     1      -7.811  -0.339 123.169  0.00  0.00    +0.000 A 
BRANCH  19  23
ATOM     23  O   UNL     1      -8.968  -3.073 126.051  0.00  0.00    +0.000 OA
ATOM     24  H   UNL     1      -8.186  -3.263 126.597  0.00  0.00    +0.000 HD
ENDBRANCH  19  23
BRANCH  20  25
ATOM     25  O   UNL     1      -7.049  -3.727 124.232  0.00  0.00    +0.000 OA
ATOM     26  H   UNL     1      -6.861  -3.871 125.181  0.00  0.00    +0.000 HD
ENDBRANCH  20  25
ENDBRANCH  16  17
BRANCH  16  27
ATOM     27  O   UNL     1     -10.787   1.341 124.035  0.00  0.00    +0.000 OA
ATOM     28  H   UNL     1     -11.098   2.216 123.749  0.00  0.00    +0.000 HD
ENDBRANCH  16  27
ENDBRANCH   1  16
TORSDOF 12
ENDMDL
MODEL 6
REMARK VINA RESULT:      -6.8      3.360      4.507
REMARK  Name = Arbutamine
REMARK  12 active torsions:
REMARK  status: ('A' for Active; 'I' for Inactive)
REMARK    1  A    between atoms: O_1  and  C_2
REMARK    2  A    between atoms: C_2  and  C_3
REMARK    3  A    between atoms: C_2  and  C_16
REMARK    4  A    between atoms: C_3  and  N_4
REMARK    5  A    between atoms: N_4  and  C_5
REMARK    6  A    between atoms: C_5  and  C_6
REMARK    7  A    between atoms: C_6  and  C_7
REMARK    8  A    between atoms: C_7  and  C_8
REMARK    9  A    between atoms: C_8  and  C_9
REMARK   10  A    between atoms: C_12  and  O_13
REMARK   11  A    between atoms: C_18  and  O_19
REMARK   12  A    between atoms: C_20  and  O_21
REMARK                            x       y       z     vdW  Elec       q    Type
REMARK                         _______ _______ _______ _____ _____    ______ ____
ROOT
ATOM      1  C   UNL     1      -6.973   3.428 126.633  0.00  0.00    +0.000 C 
ENDROOT
BRANCH   1   2
ATOM      2  N   UNL     1      -5.721   2.695 126.856  0.00  0.00    +0.000 NA
ATOM      3  H   UNL     1      -5.086   3.273 127.404  0.00  0.00    +0.000 HD
BRANCH   2   4
ATOM      4  C   UNL     1      -6.022   1.506 127.647  0.00  0.00    +0.000 C 
BRANCH   4   5
ATOM      5  C   UNL     1      -5.544   0.290 126.876  0.00  0.00    +0.000 C 
BRANCH   5   6
ATOM      6  C   UNL     1      -5.829  -0.949 127.701  0.00  0.00    +0.000 C 
BRANCH   6   7
ATOM      7  C   UNL     1      -5.704  -2.215 126.868  0.00  0.00    +0.000 C 
BRANCH   7   8
ATOM      8  C   UNL     1      -6.922  -2.522 126.032  0.00  0.00    +0.000 A 
ATOM      9  C   UNL     1      -8.234  -2.449 126.523  0.00  0.00    +0.000 A 
ATOM     10  C   UNL     1      -9.320  -2.807 125.725  0.00  0.00    +0.000 A 
ATOM     11  C   UNL     1      -9.090  -3.230 124.421  0.00  0.00    +0.000 A 
ATOM     12  C   UNL     1      -7.803  -3.288 123.908  0.00  0.00    +0.000 A 
ATOM     13  C   UNL     1      -6.718  -2.932 124.707  0.00  0.00    +0.000 A 
BRANCH  11  14
ATOM     14  O   UNL     1     -10.118  -3.601 123.607  0.00  0.00    +0.000 OA
ATOM     15  H   UNL     1     -10.162  -4.570 123.592  0.00  0.00    +0.000 HD
ENDBRANCH  11  14
ENDBRANCH   7   8
ENDBRANCH   6   7
ENDBRANCH   5   6
ENDBRANCH   4   5
ENDBRANCH   2   4
ENDBRANCH   1   2
BRANCH   1  16
ATOM     16  C   UNL     1      -7.261   3.669 125.138  0.00  0.00    +0.000 C 
BRANCH  16  17
ATOM     17  C   UNL     1      -7.981   2.515 124.469  0.00  0.00    +0.000 A 
ATOM     18  C   UNL     1      -9.389   2.503 124.447  0.00  0.00    +0.000 A 
ATOM     19  C   UNL     1     -10.062   1.426 123.878  0.00  0.00    +0.000 A 
ATOM     20  C   UNL     1      -9.357   0.365 123.323  0.00  0.00    +0.000 A 
ATOM     21  C   UNL     1      -7.974   0.369 123.301  0.00  0.00    +0.000 A 
ATOM     22  C   UNL     1      -7.292   1.447 123.861  0.00  0.00    +0.000 A 
BRANCH  19  23
ATOM     23  O   UNL     1     -11.429   1.367 123.853  0.00  0.00    +0.000 OA
ATOM     24  H   UNL     1     -11.767   2.178 124.270  0.00  0.00    +0.000 HD
ENDBRANCH  19  23
BRANCH  20  25
ATOM     25  O   UNL     1     -10.014  -0.707 122.795  0.00  0.00    +0.000 OA
ATOM     26  H   UNL     1      -9.564  -0.870 121.943  0.00  0.00    +0.000 HD
ENDBRANCH  20  25
ENDBRANCH  16  17
BRANCH  16  27
ATOM     27  O   UNL     1      -8.075   4.843 125.013  0.00  0.00    +0.000 OA
ATOM     28  H   UNL     1      -7.990   5.309 125.861  0.00  0.00    +0.000 HD
ENDBRANCH  16  27
ENDBRANCH   1  16
TORSDOF 12
ENDMDL
MODEL 7
REMARK VINA RESULT:      -6.7      7.695     10.037
REMARK  Name = Arbutamine
REMARK  12 active torsions:
REMARK  status: ('A' for Active; 'I' for Inactive)
REMARK    1  A    between atoms: O_1  and  C_2
REMARK    2  A    between atoms: C_2  and  C_3
REMARK    3  A    between atoms: C_2  and  C_16
REMARK    4  A    between atoms: C_3  and  N_4
REMARK    5  A    between atoms: N_4  and  C_5
REMARK    6  A    between atoms: C_5  and  C_6
REMARK    7  A    between atoms: C_6  and  C_7
REMARK    8  A    between atoms: C_7  and  C_8
REMARK    9  A    between atoms: C_8  and  C_9
REMARK   10  A    between atoms: C_12  and  O_13
REMARK   11  A    between atoms: C_18  and  O_19
REMARK   12  A    between atoms: C_20  and  O_21
REMARK                            x       y       z     vdW  Elec       q    Type
REMARK                         _______ _______ _______ _____ _____    ______ ____
ROOT
ATOM      1  C   UNL     1      -3.467   5.019 128.816  0.00  0.00    +0.000 C 
ENDROOT
BRANCH   1   2
ATOM      2  N   UNL     1      -2.910   5.892 129.856  0.00  0.00    +0.000 NA
ATOM      3  H   UNL     1      -2.177   6.473 129.450  0.00  0.00    +0.000 HD
BRANCH   2   4
ATOM      4  C   UNL     1      -3.968   6.785 130.318  0.00  0.00    +0.000 C 
BRANCH   4   5
ATOM      5  C   UNL     1      -4.158   6.564 131.806  0.00  0.00    +0.000 C 
BRANCH   5   6
ATOM      6  C   UNL     1      -5.625   6.288 132.071  0.00  0.00    +0.000 C 
BRANCH   6   7
ATOM      7  C   UNL     1      -6.516   6.976 131.048  0.00  0.00    +0.000 C 
BRANCH   7   8
ATOM      8  C   UNL     1      -7.988   6.713 131.243  0.00  0.00    +0.000 A 
ATOM      9  C   UNL     1      -8.977   7.158 130.352  0.00  0.00    +0.000 A 
ATOM     10  C   UNL     1     -10.329   6.942 130.615  0.00  0.00    +0.000 A 
ATOM     11  C   UNL     1     -10.694   6.267 131.774  0.00  0.00    +0.000 A 
ATOM     12  C   UNL     1      -9.732   5.800 132.657  0.00  0.00    +0.000 A 
ATOM     13  C   UNL     1      -8.381   6.017 132.394  0.00  0.00    +0.000 A 
BRANCH  11  14
ATOM     14  O   UNL     1     -12.003   6.044 132.079  0.00  0.00    +0.000 OA
ATOM     15  H   UNL     1     -12.142   5.087 132.151  0.00  0.00    +0.000 HD
ENDBRANCH  11  14
ENDBRANCH   7   8
ENDBRANCH   6   7
ENDBRANCH   5   6
ENDBRANCH   4   5
ENDBRANCH   2   4
ENDBRANCH   1   2
BRANCH   1  16
ATOM     16  C   UNL     1      -4.004   3.691 129.384  0.00  0.00    +0.000 C 
BRANCH  16  17
ATOM     17  C   UNL     1      -5.519   3.621 129.424  0.00  0.00    +0.000 A 
ATOM     18  C   UNL     1      -6.264   4.243 128.404  0.00  0.00    +0.000 A 
ATOM     19  C   UNL     1      -7.654   4.226 128.455  0.00  0.00    +0.000 A 
ATOM     20  C   UNL     1      -8.315   3.594 129.501  0.00  0.00    +0.000 A 
ATOM     21  C   UNL     1      -7.607   2.945 130.496  0.00  0.00    +0.000 A 
ATOM     22  C   UNL     1      -6.215   2.950 130.448  0.00  0.00    +0.000 A 
BRANCH  19  23
ATOM     23  O   UNL     1      -8.414   4.835 127.494  0.00  0.00    +0.000 OA
ATOM     24  H   UNL     1      -9.313   4.470 127.552  0.00  0.00    +0.000 HD
ENDBRANCH  19  23
BRANCH  20  25
ATOM     25  O   UNL     1      -9.678   3.605 129.571  0.00  0.00    +0.000 OA
ATOM     26  H   UNL     1      -9.920   4.535 129.388  0.00  0.00    +0.000 HD
ENDBRANCH  20  25
ENDBRANCH  16  17
BRANCH  16  27
ATOM     27  O   UNL     1      -3.525   2.616 128.564  0.00  0.00    +0.000 OA
ATOM     28  H   UNL     1      -3.156   3.039 127.772  0.00  0.00    +0.000 HD
ENDBRANCH  16  27
ENDBRANCH   1  16
TORSDOF 12
ENDMDL
MODEL 8
REMARK VINA RESULT:      -6.7      6.903      8.763
REMARK  Name = Arbutamine
REMARK  12 active torsions:
REMARK  status: ('A' for Active; 'I' for Inactive)
REMARK    1  A    between atoms: O_1  and  C_2
REMARK    2  A    between atoms: C_2  and  C_3
REMARK    3  A    between atoms: C_2  and  C_16
REMARK    4  A    between atoms: C_3  and  N_4
REMARK    5  A    between atoms: N_4  and  C_5
REMARK    6  A    between atoms: C_5  and  C_6
REMARK    7  A    between atoms: C_6  and  C_7
REMARK    8  A    between atoms: C_7  and  C_8
REMARK    9  A    between atoms: C_8  and  C_9
REMARK   10  A    between atoms: C_12  and  O_13
REMARK   11  A    between atoms: C_18  and  O_19
REMARK   12  A    between atoms: C_20  and  O_21
REMARK                            x       y       z     vdW  Elec       q    Type
REMARK                         _______ _______ _______ _____ _____    ______ ____
ROOT
ATOM      1  C   UNL     1      -9.882   6.457 131.552  0.00  0.00    +0.000 C 
ENDROOT
BRANCH   1   2
ATOM      2  N   UNL     1      -9.686   6.157 132.976  0.00  0.00    +0.000 NA
ATOM      3  H   UNL     1     -10.527   5.715 133.344  0.00  0.00    +0.000 HD
BRANCH   2   4
ATOM      4  C   UNL     1      -8.599   5.192 133.094  0.00  0.00    +0.000 C 
BRANCH   4   5
ATOM      5  C   UNL     1      -9.063   4.063 133.995  0.00  0.00    +0.000 C 
BRANCH   5   6
ATOM      6  C   UNL     1      -8.825   2.746 133.283  0.00  0.00    +0.000 C 
BRANCH   6   7
ATOM      7  C   UNL     1      -9.757   2.579 132.093  0.00  0.00    +0.000 C 
BRANCH   7   8
ATOM      8  C   UNL     1      -9.049   2.252 130.801  0.00  0.00    +0.000 A 
ATOM      9  C   UNL     1      -8.936   3.153 129.732  0.00  0.00    +0.000 A 
ATOM     10  C   UNL     1      -8.327   2.774 128.536  0.00  0.00    +0.000 A 
ATOM     11  C   UNL     1      -7.817   1.487 128.414  0.00  0.00    +0.000 A 
ATOM     12  C   UNL     1      -7.899   0.587 129.466  0.00  0.00    +0.000 A 
ATOM     13  C   UNL     1      -8.509   0.966 130.660  0.00  0.00    +0.000 A 
BRANCH  11  14
ATOM     14  O   UNL     1      -7.225   1.068 127.261  0.00  0.00    +0.000 OA
ATOM     15  H   UNL     1      -6.932   1.849 126.766  0.00  0.00    +0.000 HD
ENDBRANCH  11  14
ENDBRANCH   7   8
ENDBRANCH   6   7
ENDBRANCH   5   6
ENDBRANCH   4   5
ENDBRANCH   2   4
ENDBRANCH   1   2
BRANCH   1  16
ATOM     16  C   UNL     1     -11.312   6.939 131.239  0.00  0.00    +0.000 C 
BRANCH  16  17
ATOM     17  C   UNL     1     -11.642   6.925 129.759  0.00  0.00    +0.000 A 
ATOM     18  C   UNL     1     -10.604   6.755 128.824  0.00  0.00    +0.000 A 
ATOM     19  C   UNL     1     -10.888   6.787 127.462  0.00  0.00    +0.000 A 
ATOM     20  C   UNL     1     -12.190   6.978 127.016  0.00  0.00    +0.000 A 
ATOM     21  C   UNL     1     -13.233   7.113 127.914  0.00  0.00    +0.000 A 
ATOM     22  C   UNL     1     -12.958   7.073 129.279  0.00  0.00    +0.000 A 
BRANCH  19  23
ATOM     23  O   UNL     1      -9.904   6.645 126.521  0.00  0.00    +0.000 OA
ATOM     24  H   UNL     1      -9.743   5.693 126.404  0.00  0.00    +0.000 HD
ENDBRANCH  19  23
BRANCH  20  25
ATOM     25  O   UNL     1     -12.465   7.044 125.682  0.00  0.00    +0.000 OA
ATOM     26  H   UNL     1     -13.440   6.988 125.634  0.00  0.00    +0.000 HD
ENDBRANCH  20  25
ENDBRANCH  16  17
BRANCH  16  27
ATOM     27  O   UNL     1     -12.242   6.084 131.918  0.00  0.00    +0.000 OA
ATOM     28  H   UNL     1     -12.483   6.558 132.731  0.00  0.00    +0.000 HD
ENDBRANCH  16  27
ENDBRANCH   1  16
TORSDOF 12
ENDMDL
MODEL 9
REMARK VINA RESULT:      -6.7      2.516      3.620
REMARK  Name = Arbutamine
REMARK  12 active torsions:
REMARK  status: ('A' for Active; 'I' for Inactive)
REMARK    1  A    between atoms: O_1  and  C_2
REMARK    2  A    between atoms: C_2  and  C_3
REMARK    3  A    between atoms: C_2  and  C_16
REMARK    4  A    between atoms: C_3  and  N_4
REMARK    5  A    between atoms: N_4  and  C_5
REMARK    6  A    between atoms: C_5  and  C_6
REMARK    7  A    between atoms: C_6  and  C_7
REMARK    8  A    between atoms: C_7  and  C_8
REMARK    9  A    between atoms: C_8  and  C_9
REMARK   10  A    between atoms: C_12  and  O_13
REMARK   11  A    between atoms: C_18  and  O_19
REMARK   12  A    between atoms: C_20  and  O_21
REMARK                            x       y       z     vdW  Elec       q    Type
REMARK                         _______ _______ _______ _____ _____    ______ ____
ROOT
ATOM      1  C   UNL     1      -8.926  -1.187 123.221  0.00  0.00    +0.000 C 
ENDROOT
BRANCH   1   2
ATOM      2  N   UNL     1      -9.452  -2.337 123.967  0.00  0.00    +0.000 NA
ATOM      3  H   UNL     1      -9.034  -3.192 123.604  0.00  0.00    +0.000 HD
BRANCH   2   4
ATOM      4  C   UNL     1      -9.037  -2.206 125.360  0.00  0.00    +0.000 C 
BRANCH   4   5
ATOM      5  C   UNL     1      -8.452  -3.533 125.806  0.00  0.00    +0.000 C 
BRANCH   5   6
ATOM      6  C   UNL     1      -8.824  -3.761 127.257  0.00  0.00    +0.000 C 
BRANCH   6   7
ATOM      7  C   UNL     1      -8.329  -2.630 128.145  0.00  0.00    +0.000 C 
BRANCH   7   8
ATOM      8  C   UNL     1      -6.951  -2.858 128.718  0.00  0.00    +0.000 A 
ATOM      9  C   UNL     1      -5.790  -2.272 128.193  0.00  0.00    +0.000 A 
ATOM     10  C   UNL     1      -4.534  -2.569 128.722  0.00  0.00    +0.000 A 
ATOM     11  C   UNL     1      -4.443  -3.451 129.793  0.00  0.00    +0.000 A 
ATOM     12  C   UNL     1      -5.580  -4.025 130.341  0.00  0.00    +0.000 A 
ATOM     13  C   UNL     1      -6.835  -3.729 129.810  0.00  0.00    +0.000 A 
BRANCH  11  14
ATOM     14  O   UNL     1      -3.237  -3.781 130.335  0.00  0.00    +0.000 OA
ATOM     15  H   UNL     1      -3.359  -3.928 131.286  0.00  0.00    +0.000 HD
ENDBRANCH  11  14
ENDBRANCH   7   8
ENDBRANCH   6   7
ENDBRANCH   5   6
ENDBRANCH   4   5
ENDBRANCH   2   4
ENDBRANCH   1   2
BRANCH   1  16
ATOM     16  C   UNL     1      -9.664   0.124 123.557  0.00  0.00    +0.000 C 
BRANCH  16  17
ATOM     17  C   UNL     1      -8.739   1.321 123.681  0.00  0.00    +0.000 A 
ATOM     18  C   UNL     1      -9.139   2.421 124.463  0.00  0.00    +0.000 A 
ATOM     19  C   UNL     1      -8.322   3.543 124.547  0.00  0.00    +0.000 A 
ATOM     20  C   UNL     1      -7.109   3.586 123.870  0.00  0.00    +0.000 A 
ATOM     21  C   UNL     1      -6.677   2.505 123.123  0.00  0.00    +0.000 A 
ATOM     22  C   UNL     1      -7.486   1.373 123.041  0.00  0.00    +0.000 A 
BRANCH  19  23
ATOM     23  O   UNL     1      -8.683   4.640 125.281  0.00  0.00    +0.000 OA
ATOM     24  H   UNL     1      -9.542   4.950 124.947  0.00  0.00    +0.000 HD
ENDBRANCH  19  23
BRANCH  20  25
ATOM     25  O   UNL     1      -6.322   4.699 123.923  0.00  0.00    +0.000 OA
ATOM     26  H   UNL     1      -5.712   4.527 124.667  0.00  0.00    +0.000 HD
ENDBRANCH  20  25
ENDBRANCH  16  17
BRANCH  16  27
ATOM     27  O   UNL     1     -10.615   0.394 122.518  0.00  0.00    +0.000 OA
ATOM     28  H   UNL     1     -10.645  -0.413 121.979  0.00  0.00    +0.000 HD
ENDBRANCH  16  27
ENDBRANCH   1  16
TORSDOF 12
ENDMDL
