MODEL 1
REMARK VINA RESULT:      -7.4      0.000      0.000
REMARK  Name = Arformoterol
REMARK  12 active torsions:
REMARK  status: ('A' for Active; 'I' for Inactive)
REMARK    1  A    between atoms: C_1  and  O_2
REMARK    2  A    between atoms: O_2  and  C_3
REMARK    3  A    between atoms: C_6  and  C_7
REMARK    4  A    between atoms: C_7  and  C_8
REMARK    5  A    between atoms: C_8  and  C_9
REMARK    6  A    between atoms: C_8  and  N_10
REMARK    7  A    between atoms: N_10  and  C_11
REMARK    8  A    between atoms: C_11  and  C_12
REMARK    9  A    between atoms: C_12  and  O_13
REMARK   10  A    between atoms: C_12  and  C_14
REMARK   11  A    between atoms: C_16  and  N_17
REMARK   12  A    between atoms: C_20  and  O_21
REMARK                            x       y       z     vdW  Elec       q    Type
REMARK                         _______ _______ _______ _____ _____    ______ ____
ROOT
ATOM      1  C   UNL     1      -9.771   0.694 123.657  0.00  0.00    +0.000 C 
ENDROOT
BRANCH   1   2
ATOM      2  C   UNL     1      -8.738   1.770 123.352  0.00  0.00    +0.000 A 
ATOM      3  C   UNL     1      -8.790   2.661 122.252  0.00  0.00    +0.000 A 
ATOM      4  C   UNL     1      -7.706   3.484 121.919  0.00  0.00    +0.000 A 
ATOM      5  C   UNL     1      -6.630   3.532 122.803  0.00  0.00    +0.000 A 
ATOM      6  C   UNL     1      -6.564   2.681 123.901  0.00  0.00    +0.000 A 
ATOM      7  C   UNL     1      -7.601   1.798 124.165  0.00  0.00    +0.000 A 
BRANCH   4   8
ATOM      8  N   UNL     1      -7.770   4.162 120.680  0.00  0.00    +0.000 N 
ATOM      9  C   UNL     1      -6.866   4.118 119.660  0.00  0.00    +0.000 C 
ATOM     10  O   UNL     1      -7.002   4.763 118.620  0.00  0.00    +0.000 OA
ATOM     11  H   UNL     1      -8.641   4.609 120.414  0.00  0.00    +0.000 HD
ENDBRANCH   4   8
BRANCH   5  12
ATOM     12  O   UNL     1      -5.618   4.440 122.701  0.00  0.00    +0.000 OA
ATOM     13  H   UNL     1      -6.040   5.315 122.627  0.00  0.00    +0.000 HD
ENDBRANCH   5  12
ENDBRANCH   1   2
BRANCH   1  14
ATOM     14  O   UNL     1     -11.002   1.319 124.049  0.00  0.00    +0.000 OA
ATOM     15  H   UNL     1     -11.336   0.760 124.779  0.00  0.00    +0.000 HD
ENDBRANCH   1  14
BRANCH   1  16
ATOM     16  C   UNL     1     -10.034  -0.308 122.528  0.00  0.00    +0.000 C 
BRANCH  16  17
ATOM     17  N   UNL     1      -9.946  -1.707 122.960  0.00  0.00    +0.000 NA
ATOM     18  H   UNL     1     -10.808  -1.931 123.467  0.00  0.00    +0.000 HD
BRANCH  17  19
ATOM     19  C   UNL     1      -8.777  -1.871 123.834  0.00  0.00    +0.000 C 
ATOM     20  C   UNL     1      -7.489  -1.993 122.977  0.00  0.00    +0.000 C 
BRANCH  19  21
ATOM     21  C   UNL     1      -8.954  -3.108 124.733  0.00  0.00    +0.000 C 
BRANCH  21  25
ATOM     22  C   UNL     1      -7.965  -2.324 128.869  0.00  0.00    +0.000 A 
ATOM     23  C   UNL     1      -8.602  -3.514 128.501  0.00  0.00    +0.000 A 
ATOM     24  C   UNL     1      -8.878  -3.795 127.157  0.00  0.00    +0.000 A 
ATOM     25  C   UNL     1      -8.619  -2.833 126.182  0.00  0.00    +0.000 A 
ATOM     26  C   UNL     1      -8.061  -1.614 126.593  0.00  0.00    +0.000 A 
ATOM     27  C   UNL     1      -7.672  -1.387 127.897  0.00  0.00    +0.000 A 
BRANCH  22  29
ATOM     28  C   UNL     1      -6.870  -3.263 130.732  0.00  0.00    +0.000 C 
ATOM     29  O   UNL     1      -7.613  -2.177 130.180  0.00  0.00    +0.000 OA
ENDBRANCH  22  29
ENDBRANCH  21  25
ENDBRANCH  19  21
ENDBRANCH  17  19
ENDBRANCH  16  17
ENDBRANCH   1  16
TORSDOF 10
ENDMDL
MODEL 2
REMARK VINA RESULT:      -7.2      1.954      2.503
REMARK  Name = Arformoterol
REMARK  12 active torsions:
REMARK  status: ('A' for Active; 'I' for Inactive)
REMARK    1  A    between atoms: C_1  and  O_2
REMARK    2  A    between atoms: O_2  and  C_3
REMARK    3  A    between atoms: C_6  and  C_7
REMARK    4  A    between atoms: C_7  and  C_8
REMARK    5  A    between atoms: C_8  and  C_9
REMARK    6  A    between atoms: C_8  and  N_10
REMARK    7  A    between atoms: N_10  and  C_11
REMARK    8  A    between atoms: C_11  and  C_12
REMARK    9  A    between atoms: C_12  and  O_13
REMARK   10  A    between atoms: C_12  and  C_14
REMARK   11  A    between atoms: C_16  and  N_17
REMARK   12  A    between atoms: C_20  and  O_21
REMARK                            x       y       z     vdW  Elec       q    Type
REMARK                         _______ _______ _______ _____ _____    ______ ____
ROOT
ATOM      1  C   UNL     1      -6.329  -0.887 123.846  0.00  0.00    +0.000 C 
ENDROOT
BRANCH   1   2
ATOM      2  C   UNL     1      -7.096   0.405 124.084  0.00  0.00    +0.000 A 
ATOM      3  C   UNL     1      -7.501   1.312 123.074  0.00  0.00    +0.000 A 
ATOM      4  C   UNL     1      -8.020   2.575 123.382  0.00  0.00    +0.000 A 
ATOM      5  C   UNL     1      -8.292   2.859 124.719  0.00  0.00    +0.000 A 
ATOM      6  C   UNL     1      -7.923   1.978 125.729  0.00  0.00    +0.000 A 
ATOM      7  C   UNL     1      -7.317   0.768 125.416  0.00  0.00    +0.000 A 
BRANCH   4   8
ATOM      8  N   UNL     1      -8.177   3.486 122.311  0.00  0.00    +0.000 N 
ATOM      9  C   UNL     1      -8.889   3.306 121.163  0.00  0.00    +0.000 C 
ATOM     10  O   UNL     1      -8.950   4.158 120.276  0.00  0.00    +0.000 OA
ATOM     11  H   UNL     1      -7.882   4.448 122.445  0.00  0.00    +0.000 HD
ENDBRANCH   4   8
BRANCH   5  12
ATOM     12  O   UNL     1      -8.985   3.961 125.124  0.00  0.00    +0.000 OA
ATOM     13  H   UNL     1      -9.164   3.840 126.074  0.00  0.00    +0.000 HD
ENDBRANCH   5  12
ENDBRANCH   1   2
BRANCH   1  14
ATOM     14  O   UNL     1      -5.643  -1.259 125.050  0.00  0.00    +0.000 OA
ATOM     15  H   UNL     1      -6.358  -1.497 125.673  0.00  0.00    +0.000 HD
ENDBRANCH   1  14
BRANCH   1  16
ATOM     16  C   UNL     1      -7.165  -2.068 123.339  0.00  0.00    +0.000 C 
BRANCH  16  17
ATOM     17  N   UNL     1      -7.308  -3.145 124.325  0.00  0.00    +0.000 NA
ATOM     18  H   UNL     1      -6.873  -3.985 123.931  0.00  0.00    +0.000 HD
BRANCH  17  19
ATOM     19  C   UNL     1      -8.735  -3.376 124.585  0.00  0.00    +0.000 C 
ATOM     20  C   UNL     1      -9.546  -3.213 123.272  0.00  0.00    +0.000 C 
BRANCH  19  21
ATOM     21  C   UNL     1      -9.242  -2.403 125.664  0.00  0.00    +0.000 C 
BRANCH  21  25
ATOM     22  C   UNL     1      -7.504  -3.182 129.547  0.00  0.00    +0.000 A 
ATOM     23  C   UNL     1      -8.408  -4.085 128.976  0.00  0.00    +0.000 A 
ATOM     24  C   UNL     1      -8.934  -3.862 127.697  0.00  0.00    +0.000 A 
ATOM     25  C   UNL     1      -8.644  -2.674 127.027  0.00  0.00    +0.000 A 
ATOM     26  C   UNL     1      -7.805  -1.748 127.664  0.00  0.00    +0.000 A 
ATOM     27  C   UNL     1      -7.186  -2.023 128.866  0.00  0.00    +0.000 A 
BRANCH  22  29
ATOM     28  C   UNL     1      -5.642  -4.125 130.641  0.00  0.00    +0.000 C 
ATOM     29  O   UNL     1      -6.935  -3.529 130.739  0.00  0.00    +0.000 OA
ENDBRANCH  22  29
ENDBRANCH  21  25
ENDBRANCH  19  21
ENDBRANCH  17  19
ENDBRANCH  16  17
ENDBRANCH   1  16
TORSDOF 10
ENDMDL
MODEL 3
REMARK VINA RESULT:      -7.0      9.021     10.343
REMARK  Name = Arformoterol
REMARK  12 active torsions:
REMARK  status: ('A' for Active; 'I' for Inactive)
REMARK    1  A    between atoms: C_1  and  O_2
REMARK    2  A    between atoms: O_2  and  C_3
REMARK    3  A    between atoms: C_6  and  C_7
REMARK    4  A    between atoms: C_7  and  C_8
REMARK    5  A    between atoms: C_8  and  C_9
REMARK    6  A    between atoms: C_8  and  N_10
REMARK    7  A    between atoms: N_10  and  C_11
REMARK    8  A    between atoms: C_11  and  C_12
REMARK    9  A    between atoms: C_12  and  O_13
REMARK   10  A    between atoms: C_12  and  C_14
REMARK   11  A    between atoms: C_16  and  N_17
REMARK   12  A    between atoms: C_20  and  O_21
REMARK                            x       y       z     vdW  Elec       q    Type
REMARK                         _______ _______ _______ _____ _____    ______ ____
ROOT
ATOM      1  C   UNL     1     -11.645   5.862 131.620  0.00  0.00    +0.000 C 
ENDROOT
BRANCH   1   2
ATOM      2  C   UNL     1     -12.079   7.009 130.719  0.00  0.00    +0.000 A 
ATOM      3  C   UNL     1     -11.641   7.210 129.387  0.00  0.00    +0.000 A 
ATOM      4  C   UNL     1     -11.919   8.392 128.690  0.00  0.00    +0.000 A 
ATOM      5  C   UNL     1     -12.789   9.306 129.281  0.00  0.00    +0.000 A 
ATOM      6  C   UNL     1     -13.249   9.123 130.580  0.00  0.00    +0.000 A 
ATOM      7  C   UNL     1     -12.886   7.993 131.298  0.00  0.00    +0.000 A 
BRANCH   4   8
ATOM      8  N   UNL     1     -11.247   8.589 127.461  0.00  0.00    +0.000 N 
ATOM      9  C   UNL     1     -11.248   7.769 126.372  0.00  0.00    +0.000 C 
ATOM     10  O   UNL     1     -10.613   8.021 125.348  0.00  0.00    +0.000 OA
ATOM     11  H   UNL     1     -10.846   9.501 127.267  0.00  0.00    +0.000 HD
ENDBRANCH   4   8
BRANCH   5  12
ATOM     12  O   UNL     1     -13.299  10.387 128.623  0.00  0.00    +0.000 OA
ATOM     13  H   UNL     1     -14.255  10.226 128.529  0.00  0.00    +0.000 HD
ENDBRANCH   5  12
ENDBRANCH   1   2
BRANCH   1  14
ATOM     14  O   UNL     1     -11.531   4.664 130.838  0.00  0.00    +0.000 OA
ATOM     15  H   UNL     1     -11.415   3.952 131.499  0.00  0.00    +0.000 HD
ENDBRANCH   1  14
BRANCH   1  16
ATOM     16  C   UNL     1     -10.352   6.093 132.408  0.00  0.00    +0.000 C 
BRANCH  16  17
ATOM     17  N   UNL     1     -10.038   5.007 133.343  0.00  0.00    +0.000 NA
ATOM     18  H   UNL     1      -9.976   5.413 134.282  0.00  0.00    +0.000 HD
BRANCH  17  19
ATOM     19  C   UNL     1      -8.758   4.395 132.961  0.00  0.00    +0.000 C 
ATOM     20  C   UNL     1      -8.805   2.865 133.217  0.00  0.00    +0.000 C 
BRANCH  19  21
ATOM     21  C   UNL     1      -7.603   5.045 133.745  0.00  0.00    +0.000 C 
BRANCH  21  25
ATOM     22  C   UNL     1      -4.453   6.481 131.154  0.00  0.00    +0.000 A 
ATOM     23  C   UNL     1      -4.166   5.609 132.209  0.00  0.00    +0.000 A 
ATOM     24  C   UNL     1      -5.190   5.101 133.020  0.00  0.00    +0.000 A 
ATOM     25  C   UNL     1      -6.497   5.553 132.847  0.00  0.00    +0.000 A 
ATOM     26  C   UNL     1      -6.739   6.495 131.836  0.00  0.00    +0.000 A 
ATOM     27  C   UNL     1      -5.755   6.898 130.957  0.00  0.00    +0.000 A 
BRANCH  22  29
ATOM     28  C   UNL     1      -2.119   6.636 130.875  0.00  0.00    +0.000 C 
ATOM     29  O   UNL     1      -3.423   6.833 130.329  0.00  0.00    +0.000 OA
ENDBRANCH  22  29
ENDBRANCH  21  25
ENDBRANCH  19  21
ENDBRANCH  17  19
ENDBRANCH  16  17
ENDBRANCH   1  16
TORSDOF 10
ENDMDL
MODEL 4
REMARK VINA RESULT:      -6.9      4.241      6.123
REMARK  Name = Arformoterol
REMARK  12 active torsions:
REMARK  status: ('A' for Active; 'I' for Inactive)
REMARK    1  A    between atoms: C_1  and  O_2
REMARK    2  A    between atoms: O_2  and  C_3
REMARK    3  A    between atoms: C_6  and  C_7
REMARK    4  A    between atoms: C_7  and  C_8
REMARK    5  A    between atoms: C_8  and  C_9
REMARK    6  A    between atoms: C_8  and  N_10
REMARK    7  A    between atoms: N_10  and  C_11
REMARK    8  A    between atoms: C_11  and  C_12
REMARK    9  A    between atoms: C_12  and  O_13
REMARK   10  A    between atoms: C_12  and  C_14
REMARK   11  A    between atoms: C_16  and  N_17
REMARK   12  A    between atoms: C_20  and  O_21
REMARK                            x       y       z     vdW  Elec       q    Type
REMARK                         _______ _______ _______ _____ _____    ______ ____
ROOT
ATOM      1  C   UNL     1      -6.922   4.569 125.488  0.00  0.00    +0.000 C 
ENDROOT
BRANCH   1   2
ATOM      2  C   UNL     1      -5.612   4.066 126.076  0.00  0.00    +0.000 A 
ATOM      3  C   UNL     1      -4.677   4.860 126.784  0.00  0.00    +0.000 A 
ATOM      4  C   UNL     1      -3.404   4.381 127.116  0.00  0.00    +0.000 A 
ATOM      5  C   UNL     1      -3.134   3.033 126.883  0.00  0.00    +0.000 A 
ATOM      6  C   UNL     1      -4.043   2.227 126.206  0.00  0.00    +0.000 A 
ATOM      7  C   UNL     1      -5.264   2.741 125.793  0.00  0.00    +0.000 A 
BRANCH   4   8
ATOM      8  N   UNL     1      -2.471   5.320 127.614  0.00  0.00    +0.000 N 
ATOM      9  C   UNL     1      -2.428   5.869 128.861  0.00  0.00    +0.000 C 
ATOM     10  O   UNL     1      -1.581   6.698 129.196  0.00  0.00    +0.000 OA
ATOM     11  H   UNL     1      -1.633   5.506 127.073  0.00  0.00    +0.000 HD
ENDBRANCH   4   8
BRANCH   5  12
ATOM     12  O   UNL     1      -2.019   2.402 127.347  0.00  0.00    +0.000 OA
ATOM     13  H   UNL     1      -1.271   2.748 126.828  0.00  0.00    +0.000 HD
ENDBRANCH   5  12
ENDBRANCH   1   2
BRANCH   1  14
ATOM     14  O   UNL     1      -6.736   5.902 124.990  0.00  0.00    +0.000 OA
ATOM     15  H   UNL     1      -6.435   5.776 124.068  0.00  0.00    +0.000 HD
ENDBRANCH   1  14
BRANCH   1  16
ATOM     16  C   UNL     1      -7.539   3.688 124.397  0.00  0.00    +0.000 C 
BRANCH  16  17
ATOM     17  N   UNL     1      -8.897   3.234 124.713  0.00  0.00    +0.000 NA
ATOM     18  H   UNL     1      -9.036   3.348 125.722  0.00  0.00    +0.000 HD
BRANCH  17  19
ATOM     19  C   UNL     1      -9.037   1.823 124.330  0.00  0.00    +0.000 C 
ATOM     20  C   UNL     1     -10.538   1.465 124.166  0.00  0.00    +0.000 C 
BRANCH  19  21
ATOM     21  C   UNL     1      -8.372   0.918 125.383  0.00  0.00    +0.000 C 
BRANCH  21  25
ATOM     22  C   UNL     1      -5.687  -1.990 123.640  0.00  0.00    +0.000 A 
ATOM     23  C   UNL     1      -5.570  -1.628 124.987  0.00  0.00    +0.000 A 
ATOM     24  C   UNL     1      -6.469  -0.725 125.569  0.00  0.00    +0.000 A 
ATOM     25  C   UNL     1      -7.424  -0.092 124.774  0.00  0.00    +0.000 A 
ATOM     26  C   UNL     1      -7.460  -0.409 123.409  0.00  0.00    +0.000 A 
ATOM     27  C   UNL     1      -6.659  -1.391 122.862  0.00  0.00    +0.000 A 
BRANCH  22  29
ATOM     28  C   UNL     1      -4.881  -4.185 123.924  0.00  0.00    +0.000 C 
ATOM     29  O   UNL     1      -4.857  -2.970 123.176  0.00  0.00    +0.000 OA
ENDBRANCH  22  29
ENDBRANCH  21  25
ENDBRANCH  19  21
ENDBRANCH  17  19
ENDBRANCH  16  17
ENDBRANCH   1  16
TORSDOF 10
ENDMDL
MODEL 5
REMARK VINA RESULT:      -6.9      2.812      3.837
REMARK  Name = Arformoterol
REMARK  12 active torsions:
REMARK  status: ('A' for Active; 'I' for Inactive)
REMARK    1  A    between atoms: C_1  and  O_2
REMARK    2  A    between atoms: O_2  and  C_3
REMARK    3  A    between atoms: C_6  and  C_7
REMARK    4  A    between atoms: C_7  and  C_8
REMARK    5  A    between atoms: C_8  and  C_9
REMARK    6  A    between atoms: C_8  and  N_10
REMARK    7  A    between atoms: N_10  and  C_11
REMARK    8  A    between atoms: C_11  and  C_12
REMARK    9  A    between atoms: C_12  and  O_13
REMARK   10  A    between atoms: C_12  and  C_14
REMARK   11  A    between atoms: C_16  and  N_17
REMARK   12  A    between atoms: C_20  and  O_21
REMARK                            x       y       z     vdW  Elec       q    Type
REMARK                         _______ _______ _______ _____ _____    ______ ____
ROOT
ATOM      1  C   UNL     1      -6.216  -1.168 123.831  0.00  0.00    +0.000 C 
ENDROOT
BRANCH   1   2
ATOM      2  C   UNL     1      -6.926   0.138 124.157  0.00  0.00    +0.000 A 
ATOM      3  C   UNL     1      -6.471   1.104 125.088  0.00  0.00    +0.000 A 
ATOM      4  C   UNL     1      -7.274   2.180 125.486  0.00  0.00    +0.000 A 
ATOM      5  C   UNL     1      -8.478   2.378 124.812  0.00  0.00    +0.000 A 
ATOM      6  C   UNL     1      -8.939   1.455 123.880  0.00  0.00    +0.000 A 
ATOM      7  C   UNL     1      -8.177   0.338 123.566  0.00  0.00    +0.000 A 
BRANCH   4   8
ATOM      8  N   UNL     1      -6.822   2.951 126.582  0.00  0.00    +0.000 N 
ATOM      9  C   UNL     1      -6.198   4.162 126.546  0.00  0.00    +0.000 C 
ATOM     10  O   UNL     1      -5.824   4.750 127.562  0.00  0.00    +0.000 OA
ATOM     11  H   UNL     1      -7.120   2.689 127.516  0.00  0.00    +0.000 HD
ENDBRANCH   4   8
BRANCH   5  12
ATOM     12  O   UNL     1      -9.244   3.496 124.961  0.00  0.00    +0.000 OA
ATOM     13  H   UNL     1     -10.062   3.212 125.406  0.00  0.00    +0.000 HD
ENDBRANCH   5  12
ENDBRANCH   1   2
BRANCH   1  14
ATOM     14  O   UNL     1      -5.400  -1.553 124.947  0.00  0.00    +0.000 OA
ATOM     15  H   UNL     1      -6.041  -1.799 125.643  0.00  0.00    +0.000 HD
ENDBRANCH   1  14
BRANCH   1  16
ATOM     16  C   UNL     1      -7.127  -2.333 123.429  0.00  0.00    +0.000 C 
BRANCH  16  17
ATOM     17  N   UNL     1      -7.342  -3.303 124.507  0.00  0.00    +0.000 NA
ATOM     18  H   UNL     1      -6.934  -4.195 124.208  0.00  0.00    +0.000 HD
BRANCH  17  19
ATOM     19  C   UNL     1      -8.783  -3.451 124.745  0.00  0.00    +0.000 C 
ATOM     20  C   UNL     1      -9.555  -3.348 123.403  0.00  0.00    +0.000 C 
BRANCH  19  21
ATOM     21  C   UNL     1      -9.270  -2.379 125.738  0.00  0.00    +0.000 C 
BRANCH  21  25
ATOM     22  C   UNL     1      -7.245  -2.556 129.555  0.00  0.00    +0.000 A 
ATOM     23  C   UNL     1      -7.077  -1.454 128.709  0.00  0.00    +0.000 A 
ATOM     24  C   UNL     1      -7.771  -1.369 127.495  0.00  0.00    +0.000 A 
ATOM     25  C   UNL     1      -8.552  -2.442 127.068  0.00  0.00    +0.000 A 
ATOM     26  C   UNL     1      -8.630  -3.570 127.898  0.00  0.00    +0.000 A 
ATOM     27  C   UNL     1      -8.051  -3.602 129.150  0.00  0.00    +0.000 A 
BRANCH  22  29
ATOM     28  C   UNL     1      -5.301  -2.007 130.768  0.00  0.00    +0.000 C 
ATOM     29  O   UNL     1      -6.637  -2.510 130.777  0.00  0.00    +0.000 OA
ENDBRANCH  22  29
ENDBRANCH  21  25
ENDBRANCH  19  21
ENDBRANCH  17  19
ENDBRANCH  16  17
ENDBRANCH   1  16
TORSDOF 10
ENDMDL
MODEL 6
REMARK VINA RESULT:      -6.8      1.855      3.100
REMARK  Name = Arformoterol
REMARK  12 active torsions:
REMARK  status: ('A' for Active; 'I' for Inactive)
REMARK    1  A    between atoms: C_1  and  O_2
REMARK    2  A    between atoms: O_2  and  C_3
REMARK    3  A    between atoms: C_6  and  C_7
REMARK    4  A    between atoms: C_7  and  C_8
REMARK    5  A    between atoms: C_8  and  C_9
REMARK    6  A    between atoms: C_8  and  N_10
REMARK    7  A    between atoms: N_10  and  C_11
REMARK    8  A    between atoms: C_11  and  C_12
REMARK    9  A    between atoms: C_12  and  O_13
REMARK   10  A    between atoms: C_12  and  C_14
REMARK   11  A    between atoms: C_16  and  N_17
REMARK   12  A    between atoms: C_20  and  O_21
REMARK                            x       y       z     vdW  Elec       q    Type
REMARK                         _______ _______ _______ _____ _____    ______ ____
ROOT
ATOM      1  C   UNL     1      -9.653  -0.053 123.307  0.00  0.00    +0.000 C 
ENDROOT
BRANCH   1   2
ATOM      2  C   UNL     1      -8.640   1.082 123.343  0.00  0.00    +0.000 A 
ATOM      3  C   UNL     1      -7.505   1.136 124.189  0.00  0.00    +0.000 A 
ATOM      4  C   UNL     1      -6.733   2.297 124.314  0.00  0.00    +0.000 A 
ATOM      5  C   UNL     1      -7.007   3.357 123.451  0.00  0.00    +0.000 A 
ATOM      6  C   UNL     1      -8.103   3.322 122.598  0.00  0.00    +0.000 A 
ATOM      7  C   UNL     1      -8.921   2.201 122.554  0.00  0.00    +0.000 A 
BRANCH   4   8
ATOM      8  N   UNL     1      -5.768   2.322 125.348  0.00  0.00    +0.000 N 
ATOM      9  C   UNL     1      -5.857   2.951 126.554  0.00  0.00    +0.000 C 
ATOM     10  O   UNL     1      -4.950   2.928 127.387  0.00  0.00    +0.000 OA
ATOM     11  H   UNL     1      -4.983   1.681 125.295  0.00  0.00    +0.000 HD
ENDBRANCH   4   8
BRANCH   5  12
ATOM     12  O   UNL     1      -6.203   4.452 123.332  0.00  0.00    +0.000 OA
ATOM     13  H   UNL     1      -5.399   4.153 122.870  0.00  0.00    +0.000 HD
ENDBRANCH   5  12
ENDBRANCH   1   2
BRANCH   1  14
ATOM     14  O   UNL     1     -10.814   0.373 122.577  0.00  0.00    +0.000 OA
ATOM     15  H   UNL     1     -11.409  -0.403 122.594  0.00  0.00    +0.000 HD
ENDBRANCH   1  14
BRANCH   1  16
ATOM     16  C   UNL     1      -9.140  -1.379 122.736  0.00  0.00    +0.000 C 
BRANCH  16  17
ATOM     17  N   UNL     1      -9.523  -2.545 123.540  0.00  0.00    +0.000 NA
ATOM     18  H   UNL     1     -10.484  -2.396 123.864  0.00  0.00    +0.000 HD
BRANCH  17  19
ATOM     19  C   UNL     1      -8.607  -2.669 124.680  0.00  0.00    +0.000 C 
ATOM     20  C   UNL     1      -7.528  -3.743 124.379  0.00  0.00    +0.000 C 
BRANCH  19  21
ATOM     21  C   UNL     1      -9.391  -3.027 125.956  0.00  0.00    +0.000 C 
BRANCH  21  25
ATOM     22  C   UNL     1      -7.204  -2.185 129.591  0.00  0.00    +0.000 A 
ATOM     23  C   UNL     1      -7.128  -1.318 128.495  0.00  0.00    +0.000 A 
ATOM     24  C   UNL     1      -7.874  -1.560 127.335  0.00  0.00    +0.000 A 
ATOM     25  C   UNL     1      -8.617  -2.734 127.222  0.00  0.00    +0.000 A 
ATOM     26  C   UNL     1      -8.603  -3.627 128.304  0.00  0.00    +0.000 A 
ATOM     27  C   UNL     1      -7.972  -3.330 129.494  0.00  0.00    +0.000 A 
BRANCH  22  29
ATOM     28  C   UNL     1      -5.137  -2.023 130.710  0.00  0.00    +0.000 C 
ATOM     29  O   UNL     1      -6.550  -1.819 130.732  0.00  0.00    +0.000 OA
ENDBRANCH  22  29
ENDBRANCH  21  25
ENDBRANCH  19  21
ENDBRANCH  17  19
ENDBRANCH  16  17
ENDBRANCH   1  16
TORSDOF 10
ENDMDL
MODEL 7
REMARK VINA RESULT:      -6.7      1.474      1.883
REMARK  Name = Arformoterol
REMARK  12 active torsions:
REMARK  status: ('A' for Active; 'I' for Inactive)
REMARK    1  A    between atoms: C_1  and  O_2
REMARK    2  A    between atoms: O_2  and  C_3
REMARK    3  A    between atoms: C_6  and  C_7
REMARK    4  A    between atoms: C_7  and  C_8
REMARK    5  A    between atoms: C_8  and  C_9
REMARK    6  A    between atoms: C_8  and  N_10
REMARK    7  A    between atoms: N_10  and  C_11
REMARK    8  A    between atoms: C_11  and  C_12
REMARK    9  A    between atoms: C_12  and  O_13
REMARK   10  A    between atoms: C_12  and  C_14
REMARK   11  A    between atoms: C_16  and  N_17
REMARK   12  A    between atoms: C_20  and  O_21
REMARK                            x       y       z     vdW  Elec       q    Type
REMARK                         _______ _______ _______ _____ _____    ______ ____
ROOT
ATOM      1  C   UNL     1      -8.953   0.483 124.570  0.00  0.00    +0.000 C 
ENDROOT
BRANCH   1   2
ATOM      2  C   UNL     1      -8.354   1.882 124.579  0.00  0.00    +0.000 A 
ATOM      3  C   UNL     1      -7.702   2.498 123.483  0.00  0.00    +0.000 A 
ATOM      4  C   UNL     1      -6.998   3.700 123.623  0.00  0.00    +0.000 A 
ATOM      5  C   UNL     1      -7.096   4.373 124.840  0.00  0.00    +0.000 A 
ATOM      6  C   UNL     1      -7.746   3.799 125.927  0.00  0.00    +0.000 A 
ATOM      7  C   UNL     1      -8.357   2.559 125.802  0.00  0.00    +0.000 A 
BRANCH   4   8
ATOM      8  N   UNL     1      -6.196   4.109 122.532  0.00  0.00    +0.000 N 
ATOM      9  C   UNL     1      -5.843   3.376 121.438  0.00  0.00    +0.000 C 
ATOM     10  O   UNL     1      -5.121   3.819 120.544  0.00  0.00    +0.000 OA
ATOM     11  H   UNL     1      -5.977   5.095 122.433  0.00  0.00    +0.000 HD
ENDBRANCH   4   8
BRANCH   5  12
ATOM     12  O   UNL     1      -6.633   5.641 125.033  0.00  0.00    +0.000 OA
ATOM     13  H   UNL     1      -7.121   6.209 124.411  0.00  0.00    +0.000 HD
ENDBRANCH   5  12
ENDBRANCH   1   2
BRANCH   1  14
ATOM     14  O   UNL     1     -10.121   0.464 125.404  0.00  0.00    +0.000 OA
ATOM     15  H   UNL     1     -10.002  -0.326 125.969  0.00  0.00    +0.000 HD
ENDBRANCH   1  14
BRANCH   1  16
ATOM     16  C   UNL     1      -9.294  -0.080 123.186  0.00  0.00    +0.000 C 
BRANCH  16  17
ATOM     17  N   UNL     1      -9.072  -1.526 123.075  0.00  0.00    +0.000 NA
ATOM     18  H   UNL     1      -9.911  -1.997 123.429  0.00  0.00    +0.000 HD
BRANCH  17  19
ATOM     19  C   UNL     1      -7.897  -1.897 123.874  0.00  0.00    +0.000 C 
ATOM     20  C   UNL     1      -6.660  -2.061 122.951  0.00  0.00    +0.000 C 
BRANCH  19  21
ATOM     21  C   UNL     1      -8.173  -3.196 124.654  0.00  0.00    +0.000 C 
BRANCH  21  25
ATOM     22  C   UNL     1      -7.965  -2.651 128.939  0.00  0.00    +0.000 A 
ATOM     23  C   UNL     1      -7.189  -1.863 128.081  0.00  0.00    +0.000 A 
ATOM     24  C   UNL     1      -7.291  -2.001 126.691  0.00  0.00    +0.000 A 
ATOM     25  C   UNL     1      -8.090  -3.009 126.153  0.00  0.00    +0.000 A 
ATOM     26  C   UNL     1      -8.787  -3.840 127.041  0.00  0.00    +0.000 A 
ATOM     27  C   UNL     1      -8.786  -3.624 128.404  0.00  0.00    +0.000 A 
BRANCH  22  29
ATOM     28  C   UNL     1      -7.791  -0.987 130.598  0.00  0.00    +0.000 C 
ATOM     29  O   UNL     1      -7.907  -2.373 130.274  0.00  0.00    +0.000 OA
ENDBRANCH  22  29
ENDBRANCH  21  25
ENDBRANCH  19  21
ENDBRANCH  17  19
ENDBRANCH  16  17
ENDBRANCH   1  16
TORSDOF 10
ENDMDL
MODEL 8
REMARK VINA RESULT:      -6.6      2.827      4.163
REMARK  Name = Arformoterol
REMARK  12 active torsions:
REMARK  status: ('A' for Active; 'I' for Inactive)
REMARK    1  A    between atoms: C_1  and  O_2
REMARK    2  A    between atoms: O_2  and  C_3
REMARK    3  A    between atoms: C_6  and  C_7
REMARK    4  A    between atoms: C_7  and  C_8
REMARK    5  A    between atoms: C_8  and  C_9
REMARK    6  A    between atoms: C_8  and  N_10
REMARK    7  A    between atoms: N_10  and  C_11
REMARK    8  A    between atoms: C_11  and  C_12
REMARK    9  A    between atoms: C_12  and  O_13
REMARK   10  A    between atoms: C_12  and  C_14
REMARK   11  A    between atoms: C_16  and  N_17
REMARK   12  A    between atoms: C_20  and  O_21
REMARK                            x       y       z     vdW  Elec       q    Type
REMARK                         _______ _______ _______ _____ _____    ______ ____
ROOT
ATOM      1  C   UNL     1      -9.210   1.641 125.075  0.00  0.00    +0.000 C 
ENDROOT
BRANCH   1   2
ATOM      2  C   UNL     1      -8.161   1.577 126.175  0.00  0.00    +0.000 A 
ATOM      3  C   UNL     1      -6.780   1.841 126.002  0.00  0.00    +0.000 A 
ATOM      4  C   UNL     1      -5.845   1.565 127.008  0.00  0.00    +0.000 A 
ATOM      5  C   UNL     1      -6.328   1.180 128.258  0.00  0.00    +0.000 A 
ATOM      6  C   UNL     1      -7.681   0.933 128.459  0.00  0.00    +0.000 A 
ATOM      7  C   UNL     1      -8.588   1.115 127.424  0.00  0.00    +0.000 A 
BRANCH   4   8
ATOM      8  N   UNL     1      -4.477   1.647 126.657  0.00  0.00    +0.000 N 
ATOM      9  C   UNL     1      -3.656   2.731 126.757  0.00  0.00    +0.000 C 
ATOM     10  O   UNL     1      -2.476   2.708 126.406  0.00  0.00    +0.000 OA
ATOM     11  H   UNL     1      -3.974   0.788 126.460  0.00  0.00    +0.000 HD
ENDBRANCH   4   8
BRANCH   5  12
ATOM     12  O   UNL     1      -5.540   1.086 129.367  0.00  0.00    +0.000 OA
ATOM     13  H   UNL     1      -4.806   1.712 129.237  0.00  0.00    +0.000 HD
ENDBRANCH   5  12
ENDBRANCH   1   2
BRANCH   1  14
ATOM     14  O   UNL     1      -9.346   2.999 124.629  0.00  0.00    +0.000 OA
ATOM     15  H   UNL     1      -8.782   3.512 125.241  0.00  0.00    +0.000 HD
ENDBRANCH   1  14
BRANCH   1  16
ATOM     16  C   UNL     1      -8.963   0.723 123.873  0.00  0.00    +0.000 C 
BRANCH  16  17
ATOM     17  N   UNL     1      -9.548  -0.613 124.031  0.00  0.00    +0.000 NA
ATOM     18  H   UNL     1     -10.117  -0.604 124.883  0.00  0.00    +0.000 HD
BRANCH  17  19
ATOM     19  C   UNL     1      -8.469  -1.603 124.143  0.00  0.00    +0.000 C 
ATOM     20  C   UNL     1      -7.959  -1.992 122.730  0.00  0.00    +0.000 C 
BRANCH  19  21
ATOM     21  C   UNL     1      -8.964  -2.845 124.906  0.00  0.00    +0.000 C 
BRANCH  21  25
ATOM     22  C   UNL     1      -7.375  -3.087 128.921  0.00  0.00    +0.000 A 
ATOM     23  C   UNL     1      -6.652  -2.453 127.904  0.00  0.00    +0.000 A 
ATOM     24  C   UNL     1      -7.185  -2.328 126.615  0.00  0.00    +0.000 A 
ATOM     25  C   UNL     1      -8.400  -2.936 126.307  0.00  0.00    +0.000 A 
ATOM     26  C   UNL     1      -9.060  -3.640 127.325  0.00  0.00    +0.000 A 
ATOM     27  C   UNL     1      -8.599  -3.656 128.625  0.00  0.00    +0.000 A 
BRANCH  22  29
ATOM     28  C   UNL     1      -5.634  -2.320 130.311  0.00  0.00    +0.000 C 
ATOM     29  O   UNL     1      -6.849  -3.059 130.180  0.00  0.00    +0.000 OA
ENDBRANCH  22  29
ENDBRANCH  21  25
ENDBRANCH  19  21
ENDBRANCH  17  19
ENDBRANCH  16  17
ENDBRANCH   1  16
TORSDOF 10
ENDMDL
MODEL 9
REMARK VINA RESULT:      -6.6      8.295      9.741
REMARK  Name = Arformoterol
REMARK  12 active torsions:
REMARK  status: ('A' for Active; 'I' for Inactive)
REMARK    1  A    between atoms: C_1  and  O_2
REMARK    2  A    between atoms: O_2  and  C_3
REMARK    3  A    between atoms: C_6  and  C_7
REMARK    4  A    between atoms: C_7  and  C_8
REMARK    5  A    between atoms: C_8  and  C_9
REMARK    6  A    between atoms: C_8  and  N_10
REMARK    7  A    between atoms: N_10  and  C_11
REMARK    8  A    between atoms: C_11  and  C_12
REMARK    9  A    between atoms: C_12  and  O_13
REMARK   10  A    between atoms: C_12  and  C_14
REMARK   11  A    between atoms: C_16  and  N_17
REMARK   12  A    between atoms: C_20  and  O_21
REMARK                            x       y       z     vdW  Elec       q    Type
REMARK                         _______ _______ _______ _____ _____    ______ ____
ROOT
ATOM      1  C   UNL     1     -11.563   5.921 131.670  0.00  0.00    +0.000 C 
ENDROOT
BRANCH   1   2
ATOM      2  C   UNL     1     -11.996   7.056 130.754  0.00  0.00    +0.000 A 
ATOM      3  C   UNL     1     -11.560   7.239 129.419  0.00  0.00    +0.000 A 
ATOM      4  C   UNL     1     -11.838   8.412 128.706  0.00  0.00    +0.000 A 
ATOM      5  C   UNL     1     -12.707   9.335 129.286  0.00  0.00    +0.000 A 
ATOM      6  C   UNL     1     -13.164   9.170 130.588  0.00  0.00    +0.000 A 
ATOM      7  C   UNL     1     -12.801   8.049 131.321  0.00  0.00    +0.000 A 
BRANCH   4   8
ATOM      8  N   UNL     1     -11.169   8.591 127.473  0.00  0.00    +0.000 N 
ATOM      9  C   UNL     1     -11.247   7.805 126.362  0.00  0.00    +0.000 C 
ATOM     10  O   UNL     1     -10.607   8.037 125.336  0.00  0.00    +0.000 OA
ATOM     11  H   UNL     1     -10.700   9.474 127.299  0.00  0.00    +0.000 HD
ENDBRANCH   4   8
BRANCH   5  12
ATOM     12  O   UNL     1     -13.216  10.407 128.614  0.00  0.00    +0.000 OA
ATOM     13  H   UNL     1     -14.172  10.246 128.525  0.00  0.00    +0.000 HD
ENDBRANCH   5  12
ENDBRANCH   1   2
BRANCH   1  14
ATOM     14  O   UNL     1     -11.419   4.720 130.898  0.00  0.00    +0.000 OA
ATOM     15  H   UNL     1     -12.188   4.173 131.154  0.00  0.00    +0.000 HD
ENDBRANCH   1  14
BRANCH   1  16
ATOM     16  C   UNL     1     -10.285   6.175 132.478  0.00  0.00    +0.000 C 
BRANCH  16  17
ATOM     17  N   UNL     1      -9.931   5.066 133.370  0.00  0.00    +0.000 NA
ATOM     18  H   UNL     1      -9.726   5.462 134.292  0.00  0.00    +0.000 HD
BRANCH  17  19
ATOM     19  C   UNL     1      -8.753   4.371 132.834  0.00  0.00    +0.000 C 
ATOM     20  C   UNL     1      -8.179   3.401 133.901  0.00  0.00    +0.000 C 
BRANCH  19  21
ATOM     21  C   UNL     1      -7.688   5.392 132.395  0.00  0.00    +0.000 C 
BRANCH  21  25
ATOM     22  C   UNL     1      -5.917   4.399 128.577  0.00  0.00    +0.000 A 
ATOM     23  C   UNL     1      -5.191   5.114 129.535  0.00  0.00    +0.000 A 
ATOM     24  C   UNL     1      -5.742   5.393 130.792  0.00  0.00    +0.000 A 
ATOM     25  C   UNL     1      -7.069   5.055 131.056  0.00  0.00    +0.000 A 
ATOM     26  C   UNL     1      -7.799   4.418 130.043  0.00  0.00    +0.000 A 
ATOM     27  C   UNL     1      -7.220   4.029 128.853  0.00  0.00    +0.000 A 
BRANCH  22  29
ATOM     28  C   UNL     1      -4.093   4.808 127.144  0.00  0.00    +0.000 C 
ATOM     29  O   UNL     1      -5.271   4.053 127.425  0.00  0.00    +0.000 OA
ENDBRANCH  22  29
ENDBRANCH  21  25
ENDBRANCH  19  21
ENDBRANCH  17  19
ENDBRANCH  16  17
ENDBRANCH   1  16
TORSDOF 10
ENDMDL
