MODEL 1
REMARK VINA RESULT:      -8.2      0.000      0.000
REMARK  Name = Argatroban
REMARK  12 active torsions:
REMARK  status: ('A' for Active; 'I' for Inactive)
REMARK    1  A    between atoms: C_1  and  C_2
REMARK    2  A    between atoms: C_6  and  C_8
REMARK    3  A    between atoms: C_8  and  O_9
REMARK    4  A    between atoms: C_11  and  C_13
REMARK    5  A    between atoms: C_13  and  C_14
REMARK    6  A    between atoms: C_13  and  N_21
REMARK    7  A    between atoms: C_14  and  C_15
REMARK    8  A    between atoms: C_15  and  C_16
REMARK    9  A    between atoms: C_16  and  N_17
REMARK   10  A    between atoms: N_21  and  S_22
REMARK   11  A    between atoms: S_22  and  C_25
REMARK   12  A    between atoms: C_33  and  C_34
REMARK                            x       y       z     vdW  Elec       q    Type
REMARK                         _______ _______ _______ _____ _____    ______ ____
ROOT
ATOM      1  C   UNL     1      -6.650   2.194 128.813  0.00  0.00    +0.000 C 
ENDROOT
BRANCH   1   9
ATOM      2  C   UNL     1      -8.178   4.205 134.262  0.00  0.00    +0.000 C 
ATOM      3  C   UNL     1      -8.590   2.918 133.545  0.00  0.00    +0.000 C 
ATOM      4  C   UNL     1      -7.389   2.240 132.882  0.00  0.00    +0.000 C 
ATOM      5  C   UNL     1      -6.877   3.046 131.692  0.00  0.00    +0.000 C 
ATOM      6  N   UNL     1      -7.939   3.291 130.709  0.00  0.00    +0.000 N 
ATOM      7  C   UNL     1      -9.167   3.943 131.246  0.00  0.00    +0.000 C 
ATOM      8  C   UNL     1      -9.674   3.181 132.492  0.00  0.00    +0.000 C 
ATOM      9  C   UNL     1      -7.856   2.977 129.358  0.00  0.00    +0.000 C 
ATOM     10  O   UNL     1      -8.735   3.270 128.545  0.00  0.00    +0.000 OA
BRANCH   7  11
ATOM     11  C   UNL     1     -10.325   4.346 130.278  0.00  0.00    +0.000 C 
ATOM     12  O   UNL     1     -11.358   3.694 130.166  0.00  0.00    +0.000 OA
BRANCH  11  13
ATOM     13  O   UNL     1     -10.109   5.424 129.486  0.00  0.00    +0.000 OA
ATOM     14  H   UNL     1      -9.187   5.685 129.327  0.00  0.00    +0.000 HD
ENDBRANCH  11  13
ENDBRANCH   7  11
ENDBRANCH   1   9
BRANCH   1  15
ATOM     15  N   UNL     1      -7.150   0.920 128.184  0.00  0.00    +0.000 NA
ATOM     16  H   UNL     1      -6.894   0.886 127.199  0.00  0.00    +0.000 HD
BRANCH  15  17
ATOM     17  S   UNL     1      -6.510  -0.469 128.949  0.00  0.00    +0.000 S 
ATOM     18  O   UNL     1      -5.202  -0.626 128.355  0.00  0.00    +0.000 OA
ATOM     19  O   UNL     1      -6.644  -0.355 130.388  0.00  0.00    +0.000 OA
BRANCH  17  20
ATOM     20  C   UNL     1      -7.509  -1.828 128.432  0.00  0.00    +0.000 A 
ATOM     21  C   UNL     1      -8.017  -2.744 129.365  0.00  0.00    +0.000 A 
ATOM     22  C   UNL     1      -8.792  -3.819 128.930  0.00  0.00    +0.000 A 
ATOM     23  C   UNL     1      -9.045  -3.987 127.573  0.00  0.00    +0.000 A 
ATOM     24  C   UNL     1      -8.534  -3.075 126.641  0.00  0.00    +0.000 A 
ATOM     25  C   UNL     1      -7.753  -1.975 127.055  0.00  0.00    +0.000 A 
ATOM     26  N   UNL     1      -7.214  -1.120 126.101  0.00  0.00    +0.000 N 
ATOM     27  C   UNL     1      -7.164  -1.537 124.719  0.00  0.00    +0.000 C 
ATOM     28  C   UNL     1      -8.543  -2.058 124.337  0.00  0.00    +0.000 C 
ATOM     29  C   UNL     1      -8.631  -2.367 122.853  0.00  0.00    +0.000 C 
ATOM     30  C   UNL     1      -8.820  -3.308 125.176  0.00  0.00    +0.000 C 
ATOM     31  H   UNL     1      -6.806  -0.225 126.353  0.00  0.00    +0.000 HD
ENDBRANCH  17  20
ENDBRANCH  15  17
ENDBRANCH   1  15
BRANCH   1  32
ATOM     32  C   UNL     1      -5.913   3.106 127.815  0.00  0.00    +0.000 C 
BRANCH  32  33
ATOM     33  C   UNL     1      -5.366   2.435 126.552  0.00  0.00    +0.000 C 
BRANCH  33  34
ATOM     34  C   UNL     1      -6.279   2.739 125.367  0.00  0.00    +0.000 C 
BRANCH  34  35
ATOM     35  N   UNL     1      -7.491   3.424 125.767  0.00  0.00    +0.000 N 
ATOM     36  C   UNL     1      -7.736   4.746 125.618  0.00  0.00    +0.000 C 
ATOM     37  N   UNL     1      -6.808   5.480 124.992  0.00  0.00    +0.000 N 
ATOM     38  N   UNL     1      -8.811   5.329 126.014  0.00  0.00    +0.000 NA
ATOM     39  H   UNL     1      -8.188   2.876 126.252  0.00  0.00    +0.000 HD
ATOM     40  H   UNL     1      -5.898   5.138 124.742  0.00  0.00    +0.000 HD
ATOM     41  H   UNL     1      -6.977   6.475 124.943  0.00  0.00    +0.000 HD
ATOM     42  H   UNL     1      -9.436   4.653 126.450  0.00  0.00    +0.000 HD
ENDBRANCH  34  35
ENDBRANCH  33  34
ENDBRANCH  32  33
ENDBRANCH   1  32
TORSDOF 10
ENDMDL
MODEL 2
REMARK VINA RESULT:      -8.2      2.915      7.115
REMARK  Name = Argatroban
REMARK  12 active torsions:
REMARK  status: ('A' for Active; 'I' for Inactive)
REMARK    1  A    between atoms: C_1  and  C_2
REMARK    2  A    between atoms: C_6  and  C_8
REMARK    3  A    between atoms: C_8  and  O_9
REMARK    4  A    between atoms: C_11  and  C_13
REMARK    5  A    between atoms: C_13  and  C_14
REMARK    6  A    between atoms: C_13  and  N_21
REMARK    7  A    between atoms: C_14  and  C_15
REMARK    8  A    between atoms: C_15  and  C_16
REMARK    9  A    between atoms: C_16  and  N_17
REMARK   10  A    between atoms: N_21  and  S_22
REMARK   11  A    between atoms: S_22  and  C_25
REMARK   12  A    between atoms: C_33  and  C_34
REMARK                            x       y       z     vdW  Elec       q    Type
REMARK                         _______ _______ _______ _____ _____    ______ ____
ROOT
ATOM      1  C   UNL     1      -7.713   1.582 127.444  0.00  0.00    +0.000 C 
ENDROOT
BRANCH   1   9
ATOM      2  C   UNL     1      -1.994   3.183 126.549  0.00  0.00    +0.000 C 
ATOM      3  C   UNL     1      -3.073   3.851 127.402  0.00  0.00    +0.000 C 
ATOM      4  C   UNL     1      -3.846   2.823 128.230  0.00  0.00    +0.000 C 
ATOM      5  C   UNL     1      -4.724   1.940 127.348  0.00  0.00    +0.000 C 
ATOM      6  N   UNL     1      -5.643   2.739 126.529  0.00  0.00    +0.000 N 
ATOM      7  C   UNL     1      -4.999   3.784 125.683  0.00  0.00    +0.000 C 
ATOM      8  C   UNL     1      -4.054   4.657 126.541  0.00  0.00    +0.000 C 
ATOM      9  C   UNL     1      -7.021   2.568 126.488  0.00  0.00    +0.000 C 
ATOM     10  O   UNL     1      -7.755   3.204 125.728  0.00  0.00    +0.000 OA
BRANCH   7  11
ATOM     11  C   UNL     1      -5.861   4.630 124.693  0.00  0.00    +0.000 C 
ATOM     12  O   UNL     1      -5.977   4.350 123.503  0.00  0.00    +0.000 OA
BRANCH  11  13
ATOM     13  O   UNL     1      -6.425   5.759 125.185  0.00  0.00    +0.000 OA
ATOM     14  H   UNL     1      -7.387   5.854 125.096  0.00  0.00    +0.000 HD
ENDBRANCH  11  13
ENDBRANCH   7  11
ENDBRANCH   1   9
BRANCH   1  15
ATOM     15  N   UNL     1      -8.649   2.355 128.335  0.00  0.00    +0.000 NA
ATOM     16  H   UNL     1      -9.569   1.919 128.347  0.00  0.00    +0.000 HD
BRANCH  15  17
ATOM     17  S   UNL     1      -8.080   2.439 129.946  0.00  0.00    +0.000 S 
ATOM     18  O   UNL     1      -9.170   1.906 130.732  0.00  0.00    +0.000 OA
ATOM     19  O   UNL     1      -6.759   1.848 130.042  0.00  0.00    +0.000 OA
BRANCH  17  20
ATOM     20  C   UNL     1      -7.920   4.153 130.329  0.00  0.00    +0.000 A 
ATOM     21  C   UNL     1      -6.677   4.700 130.680  0.00  0.00    +0.000 A 
ATOM     22  C   UNL     1      -6.580   6.056 130.994  0.00  0.00    +0.000 A 
ATOM     23  C   UNL     1      -7.717   6.856 130.972  0.00  0.00    +0.000 A 
ATOM     24  C   UNL     1      -8.959   6.309 130.625  0.00  0.00    +0.000 A 
ATOM     25  C   UNL     1      -9.084   4.942 130.297  0.00  0.00    +0.000 A 
ATOM     26  N   UNL     1     -10.339   4.418 130.013  0.00  0.00    +0.000 N 
ATOM     27  C   UNL     1     -11.521   5.165 130.378  0.00  0.00    +0.000 C 
ATOM     28  C   UNL     1     -11.346   6.593 129.876  0.00  0.00    +0.000 C 
ATOM     29  C   UNL     1     -12.611   7.411 130.071  0.00  0.00    +0.000 C 
ATOM     30  C   UNL     1     -10.169   7.214 130.633  0.00  0.00    +0.000 C 
ATOM     31  H   UNL     1     -10.455   3.500 129.598  0.00  0.00    +0.000 HD
ENDBRANCH  17  20
ENDBRANCH  15  17
ENDBRANCH   1  15
BRANCH   1  32
ATOM     32  C   UNL     1      -8.435   0.528 126.585  0.00  0.00    +0.000 C 
BRANCH  32  33
ATOM     33  C   UNL     1      -7.594  -0.174 125.515  0.00  0.00    +0.000 C 
BRANCH  33  34
ATOM     34  C   UNL     1      -8.311  -0.110 124.168  0.00  0.00    +0.000 C 
BRANCH  34  35
ATOM     35  N   UNL     1      -8.036   1.120 123.456  0.00  0.00    +0.000 N 
ATOM     36  C   UNL     1      -8.905   2.142 123.282  0.00  0.00    +0.000 C 
ATOM     37  N   UNL     1     -10.105   2.040 123.867  0.00  0.00    +0.000 N 
ATOM     38  N   UNL     1      -8.639   3.209 122.615  0.00  0.00    +0.000 NA
ATOM     39  H   UNL     1      -7.136   1.196 123.002  0.00  0.00    +0.000 HD
ATOM     40  H   UNL     1     -10.440   1.207 124.316  0.00  0.00    +0.000 HD
ATOM     41  H   UNL     1     -10.765   2.781 123.677  0.00  0.00    +0.000 HD
ATOM     42  H   UNL     1      -7.691   3.165 122.246  0.00  0.00    +0.000 HD
ENDBRANCH  34  35
ENDBRANCH  33  34
ENDBRANCH  32  33
ENDBRANCH   1  32
TORSDOF 10
ENDMDL
MODEL 3
REMARK VINA RESULT:      -8.2      1.801      2.365
REMARK  Name = Argatroban
REMARK  12 active torsions:
REMARK  status: ('A' for Active; 'I' for Inactive)
REMARK    1  A    between atoms: C_1  and  C_2
REMARK    2  A    between atoms: C_6  and  C_8
REMARK    3  A    between atoms: C_8  and  O_9
REMARK    4  A    between atoms: C_11  and  C_13
REMARK    5  A    between atoms: C_13  and  C_14
REMARK    6  A    between atoms: C_13  and  N_21
REMARK    7  A    between atoms: C_14  and  C_15
REMARK    8  A    between atoms: C_15  and  C_16
REMARK    9  A    between atoms: C_16  and  N_17
REMARK   10  A    between atoms: N_21  and  S_22
REMARK   11  A    between atoms: S_22  and  C_25
REMARK   12  A    between atoms: C_33  and  C_34
REMARK                            x       y       z     vdW  Elec       q    Type
REMARK                         _______ _______ _______ _____ _____    ______ ____
ROOT
ATOM      1  C   UNL     1      -6.835   2.735 128.790  0.00  0.00    +0.000 C 
ENDROOT
BRANCH   1   9
ATOM      2  C   UNL     1      -8.145   4.297 134.440  0.00  0.00    +0.000 C 
ATOM      3  C   UNL     1      -8.485   3.016 133.678  0.00  0.00    +0.000 C 
ATOM      4  C   UNL     1      -7.277   2.495 132.896  0.00  0.00    +0.000 C 
ATOM      5  C   UNL     1      -6.931   3.408 131.724  0.00  0.00    +0.000 C 
ATOM      6  N   UNL     1      -8.080   3.600 130.831  0.00  0.00    +0.000 N 
ATOM      7  C   UNL     1      -9.322   4.098 131.488  0.00  0.00    +0.000 C 
ATOM      8  C   UNL     1      -9.663   3.226 132.718  0.00  0.00    +0.000 C 
ATOM      9  C   UNL     1      -8.067   3.366 129.461  0.00  0.00    +0.000 C 
ATOM     10  O   UNL     1      -9.027   3.614 128.728  0.00  0.00    +0.000 OA
BRANCH   7  11
ATOM     11  C   UNL     1     -10.580   4.437 130.626  0.00  0.00    +0.000 C 
ATOM     12  O   UNL     1     -10.854   5.577 130.265  0.00  0.00    +0.000 OA
BRANCH  11  13
ATOM     13  O   UNL     1     -11.425   3.414 130.353  0.00  0.00    +0.000 OA
ATOM     14  H   UNL     1     -11.705   2.854 131.095  0.00  0.00    +0.000 HD
ENDBRANCH  11  13
ENDBRANCH   7  11
ENDBRANCH   1   9
BRANCH   1  15
ATOM     15  N   UNL     1      -7.254   1.443 128.141  0.00  0.00    +0.000 NA
ATOM     16  H   UNL     1      -7.262   1.541 127.127  0.00  0.00    +0.000 HD
BRANCH  15  17
ATOM     17  S   UNL     1      -6.206   0.152 128.542  0.00  0.00    +0.000 S 
ATOM     18  O   UNL     1      -5.260   0.115 127.449  0.00  0.00    +0.000 OA
ATOM     19  O   UNL     1      -5.733   0.296 129.905  0.00  0.00    +0.000 OA
BRANCH  17  20
ATOM     20  C   UNL     1      -7.176  -1.319 128.472  0.00  0.00    +0.000 A 
ATOM     21  C   UNL     1      -7.422  -2.075 129.627  0.00  0.00    +0.000 A 
ATOM     22  C   UNL     1      -8.180  -3.243 129.542  0.00  0.00    +0.000 A 
ATOM     23  C   UNL     1      -8.675  -3.661 128.313  0.00  0.00    +0.000 A 
ATOM     24  C   UNL     1      -8.426  -2.909 127.157  0.00  0.00    +0.000 A 
ATOM     25  C   UNL     1      -7.667  -1.720 127.217  0.00  0.00    +0.000 A 
ATOM     26  N   UNL     1      -7.390  -1.026 126.044  0.00  0.00    +0.000 N 
ATOM     27  C   UNL     1      -7.574  -1.681 124.770  0.00  0.00    +0.000 C 
ATOM     28  C   UNL     1      -8.956  -2.321 124.767  0.00  0.00    +0.000 C 
ATOM     29  C   UNL     1      -9.303  -2.894 123.405  0.00  0.00    +0.000 C 
ATOM     30  C   UNL     1      -8.968  -3.413 125.841  0.00  0.00    +0.000 C 
ATOM     31  H   UNL     1      -7.013  -0.084 126.056  0.00  0.00    +0.000 HD
ENDBRANCH  17  20
ENDBRANCH  15  17
ENDBRANCH   1  15
BRANCH   1  32
ATOM     32  C   UNL     1      -6.275   3.757 127.786  0.00  0.00    +0.000 C 
BRANCH  32  33
ATOM     33  C   UNL     1      -5.143   4.659 128.289  0.00  0.00    +0.000 C 
BRANCH  33  34
ATOM     34  C   UNL     1      -4.002   3.803 128.832  0.00  0.00    +0.000 C 
BRANCH  34  35
ATOM     35  N   UNL     1      -2.787   3.948 128.057  0.00  0.00    +0.000 N 
ATOM     36  C   UNL     1      -2.406   3.153 127.032  0.00  0.00    +0.000 C 
ATOM     37  N   UNL     1      -3.247   2.182 126.656  0.00  0.00    +0.000 N 
ATOM     38  N   UNL     1      -1.304   3.290 126.384  0.00  0.00    +0.000 NA
ATOM     39  H   UNL     1      -2.144   4.672 128.345  0.00  0.00    +0.000 HD
ATOM     40  H   UNL     1      -4.076   1.931 127.164  0.00  0.00    +0.000 HD
ATOM     41  H   UNL     1      -2.922   1.557 125.931  0.00  0.00    +0.000 HD
ATOM     42  H   UNL     1      -0.773   4.075 126.757  0.00  0.00    +0.000 HD
ENDBRANCH  34  35
ENDBRANCH  33  34
ENDBRANCH  32  33
ENDBRANCH   1  32
TORSDOF 10
ENDMDL
MODEL 4
REMARK VINA RESULT:      -8.2      2.722      4.918
REMARK  Name = Argatroban
REMARK  12 active torsions:
REMARK  status: ('A' for Active; 'I' for Inactive)
REMARK    1  A    between atoms: C_1  and  C_2
REMARK    2  A    between atoms: C_6  and  C_8
REMARK    3  A    between atoms: C_8  and  O_9
REMARK    4  A    between atoms: C_11  and  C_13
REMARK    5  A    between atoms: C_13  and  C_14
REMARK    6  A    between atoms: C_13  and  N_21
REMARK    7  A    between atoms: C_14  and  C_15
REMARK    8  A    between atoms: C_15  and  C_16
REMARK    9  A    between atoms: C_16  and  N_17
REMARK   10  A    between atoms: N_21  and  S_22
REMARK   11  A    between atoms: S_22  and  C_25
REMARK   12  A    between atoms: C_33  and  C_34
REMARK                            x       y       z     vdW  Elec       q    Type
REMARK                         _______ _______ _______ _____ _____    ______ ____
ROOT
ATOM      1  C   UNL     1      -7.646   1.344 124.392  0.00  0.00    +0.000 C 
ENDROOT
BRANCH   1   9
ATOM      2  C   UNL     1      -3.597   4.600 127.405  0.00  0.00    +0.000 C 
ATOM      3  C   UNL     1      -4.297   3.300 127.804  0.00  0.00    +0.000 C 
ATOM      4  C   UNL     1      -4.313   2.298 126.648  0.00  0.00    +0.000 C 
ATOM      5  C   UNL     1      -5.238   2.754 125.523  0.00  0.00    +0.000 C 
ATOM      6  N   UNL     1      -6.600   3.001 126.011  0.00  0.00    +0.000 N 
ATOM      7  C   UNL     1      -6.706   3.958 127.149  0.00  0.00    +0.000 C 
ATOM      8  C   UNL     1      -5.733   3.554 128.280  0.00  0.00    +0.000 C 
ATOM      9  C   UNL     1      -7.748   2.426 125.480  0.00  0.00    +0.000 C 
ATOM     10  O   UNL     1      -8.883   2.717 125.862  0.00  0.00    +0.000 OA
BRANCH   7  11
ATOM     11  C   UNL     1      -8.111   4.379 127.688  0.00  0.00    +0.000 C 
ATOM     12  O   UNL     1      -8.663   5.425 127.364  0.00  0.00    +0.000 OA
BRANCH  11  13
ATOM     13  O   UNL     1      -8.676   3.567 128.614  0.00  0.00    +0.000 OA
ATOM     14  H   UNL     1      -8.094   2.942 129.076  0.00  0.00    +0.000 HD
ENDBRANCH  11  13
ENDBRANCH   7  11
ENDBRANCH   1   9
BRANCH   1  15
ATOM     15  N   UNL     1      -8.411   0.130 124.851  0.00  0.00    +0.000 NA
ATOM     16  H   UNL     1      -9.194  -0.052 124.227  0.00  0.00    +0.000 HD
BRANCH  15  17
ATOM     17  S   UNL     1      -7.429  -1.269 124.896  0.00  0.00    +0.000 S 
ATOM     18  O   UNL     1      -7.878  -2.050 123.765  0.00  0.00    +0.000 OA
ATOM     19  O   UNL     1      -6.032  -0.897 125.011  0.00  0.00    +0.000 OA
BRANCH  17  20
ATOM     20  C   UNL     1      -7.867  -2.138 126.366  0.00  0.00    +0.000 A 
ATOM     21  C   UNL     1      -8.535  -3.370 126.303  0.00  0.00    +0.000 A 
ATOM     22  C   UNL     1      -8.883  -4.031 127.481  0.00  0.00    +0.000 A 
ATOM     23  C   UNL     1      -8.582  -3.459 128.712  0.00  0.00    +0.000 A 
ATOM     24  C   UNL     1      -7.919  -2.226 128.776  0.00  0.00    +0.000 A 
ATOM     25  C   UNL     1      -7.549  -1.541 127.599  0.00  0.00    +0.000 A 
ATOM     26  N   UNL     1      -6.943  -0.294 127.695  0.00  0.00    +0.000 N 
ATOM     27  C   UNL     1      -7.003   0.431 128.943  0.00  0.00    +0.000 C 
ATOM     28  C   UNL     1      -6.586  -0.518 130.058  0.00  0.00    +0.000 C 
ATOM     29  C   UNL     1      -6.461   0.203 131.388  0.00  0.00    +0.000 C 
ATOM     30  C   UNL     1      -7.630  -1.636 130.136  0.00  0.00    +0.000 C 
ATOM     31  H   UNL     1      -6.499   0.149 126.898  0.00  0.00    +0.000 HD
ENDBRANCH  17  20
ENDBRANCH  15  17
ENDBRANCH   1  15
BRANCH   1  32
ATOM     32  C   UNL     1      -8.198   1.942 123.086  0.00  0.00    +0.000 C 
BRANCH  32  33
ATOM     33  C   UNL     1      -7.604   3.284 122.645  0.00  0.00    +0.000 C 
BRANCH  33  34
ATOM     34  C   UNL     1      -6.280   3.051 121.922  0.00  0.00    +0.000 C 
BRANCH  34  35
ATOM     35  N   UNL     1      -5.395   4.193 122.013  0.00  0.00    +0.000 N 
ATOM     36  C   UNL     1      -5.037   4.997 120.986  0.00  0.00    +0.000 C 
ATOM     37  N   UNL     1      -5.592   4.760 119.791  0.00  0.00    +0.000 N 
ATOM     38  N   UNL     1      -4.222   5.986 121.095  0.00  0.00    +0.000 NA
ATOM     39  H   UNL     1      -4.964   4.369 122.910  0.00  0.00    +0.000 HD
ATOM     40  H   UNL     1      -6.153   3.953 119.585  0.00  0.00    +0.000 HD
ATOM     41  H   UNL     1      -5.268   5.328 119.021  0.00  0.00    +0.000 HD
ATOM     42  H   UNL     1      -3.895   6.067 122.055  0.00  0.00    +0.000 HD
ENDBRANCH  34  35
ENDBRANCH  33  34
ENDBRANCH  32  33
ENDBRANCH   1  32
TORSDOF 10
ENDMDL
MODEL 5
REMARK VINA RESULT:      -8.0      3.051      7.341
REMARK  Name = Argatroban
REMARK  12 active torsions:
REMARK  status: ('A' for Active; 'I' for Inactive)
REMARK    1  A    between atoms: C_1  and  C_2
REMARK    2  A    between atoms: C_6  and  C_8
REMARK    3  A    between atoms: C_8  and  O_9
REMARK    4  A    between atoms: C_11  and  C_13
REMARK    5  A    between atoms: C_13  and  C_14
REMARK    6  A    between atoms: C_13  and  N_21
REMARK    7  A    between atoms: C_14  and  C_15
REMARK    8  A    between atoms: C_15  and  C_16
REMARK    9  A    between atoms: C_16  and  N_17
REMARK   10  A    between atoms: N_21  and  S_22
REMARK   11  A    between atoms: S_22  and  C_25
REMARK   12  A    between atoms: C_33  and  C_34
REMARK                            x       y       z     vdW  Elec       q    Type
REMARK                         _______ _______ _______ _____ _____    ______ ____
ROOT
ATOM      1  C   UNL     1      -7.939   2.212 127.766  0.00  0.00    +0.000 C 
ENDROOT
BRANCH   1   9
ATOM      2  C   UNL     1      -2.100   3.000 126.605  0.00  0.00    +0.000 C 
ATOM      3  C   UNL     1      -3.047   3.842 127.461  0.00  0.00    +0.000 C 
ATOM      4  C   UNL     1      -3.915   2.962 128.362  0.00  0.00    +0.000 C 
ATOM      5  C   UNL     1      -4.936   2.166 127.554  0.00  0.00    +0.000 C 
ATOM      6  N   UNL     1      -5.773   3.043 126.728  0.00  0.00    +0.000 N 
ATOM      7  C   UNL     1      -5.031   3.957 125.812  0.00  0.00    +0.000 C 
ATOM      8  C   UNL     1      -3.948   4.733 126.595  0.00  0.00    +0.000 C 
ATOM      9  C   UNL     1      -7.163   3.055 126.742  0.00  0.00    +0.000 C 
ATOM     10  O   UNL     1      -7.836   3.749 125.976  0.00  0.00    +0.000 OA
BRANCH   7  11
ATOM     11  C   UNL     1      -5.814   4.865 124.811  0.00  0.00    +0.000 C 
ATOM     12  O   UNL     1      -6.080   6.040 125.046  0.00  0.00    +0.000 OA
BRANCH  11  13
ATOM     13  O   UNL     1      -6.273   4.274 123.683  0.00  0.00    +0.000 OA
ATOM     14  H   UNL     1      -5.683   3.647 123.234  0.00  0.00    +0.000 HD
ENDBRANCH  11  13
ENDBRANCH   7  11
ENDBRANCH   1   9
BRANCH   1  15
ATOM     15  N   UNL     1      -8.750   3.138 128.633  0.00  0.00    +0.000 NA
ATOM     16  H   UNL     1      -9.414   2.608 129.196  0.00  0.00    +0.000 HD
BRANCH  15  17
ATOM     17  S   UNL     1      -7.767   4.054 129.691  0.00  0.00    +0.000 S 
ATOM     18  O   UNL     1      -7.044   3.058 130.449  0.00  0.00    +0.000 OA
ATOM     19  O   UNL     1      -7.043   5.068 128.950  0.00  0.00    +0.000 OA
BRANCH  17  20
ATOM     20  C   UNL     1      -8.863   4.887 130.794  0.00  0.00    +0.000 A 
ATOM     21  C   UNL     1      -8.871   4.588 132.164  0.00  0.00    +0.000 A 
ATOM     22  C   UNL     1      -9.758   5.251 133.013  0.00  0.00    +0.000 A 
ATOM     23  C   UNL     1     -10.640   6.192 132.496  0.00  0.00    +0.000 A 
ATOM     24  C   UNL     1     -10.636   6.487 131.126  0.00  0.00    +0.000 A 
ATOM     25  C   UNL     1      -9.744   5.837 130.247  0.00  0.00    +0.000 A 
ATOM     26  N   UNL     1      -9.803   6.111 128.886  0.00  0.00    +0.000 N 
ATOM     27  C   UNL     1     -10.965   6.777 128.344  0.00  0.00    +0.000 C 
ATOM     28  C   UNL     1     -11.251   7.999 129.208  0.00  0.00    +0.000 C 
ATOM     29  C   UNL     1     -12.358   8.853 128.617  0.00  0.00    +0.000 C 
ATOM     30  C   UNL     1     -11.626   7.504 130.607  0.00  0.00    +0.000 C 
ATOM     31  H   UNL     1      -9.073   5.813 128.247  0.00  0.00    +0.000 HD
ENDBRANCH  17  20
ENDBRANCH  15  17
ENDBRANCH   1  15
BRANCH   1  32
ATOM     32  C   UNL     1      -8.807   1.209 126.984  0.00  0.00    +0.000 C 
BRANCH  32  33
ATOM     33  C   UNL     1      -8.060   0.206 126.099  0.00  0.00    +0.000 C 
BRANCH  33  34
ATOM     34  C   UNL     1      -8.576   0.296 124.665  0.00  0.00    +0.000 C 
BRANCH  34  35
ATOM     35  N   UNL     1      -8.319   1.590 124.068  0.00  0.00    +0.000 N 
ATOM     36  C   UNL     1      -8.975   2.114 123.008  0.00  0.00    +0.000 C 
ATOM     37  N   UNL     1      -9.990   1.407 122.497  0.00  0.00    +0.000 N 
ATOM     38  N   UNL     1      -8.700   3.255 122.482  0.00  0.00    +0.000 NA
ATOM     39  H   UNL     1      -7.545   2.122 124.442  0.00  0.00    +0.000 HD
ATOM     40  H   UNL     1     -10.211   0.466 122.771  0.00  0.00    +0.000 HD
ATOM     41  H   UNL     1     -10.430   1.781 121.668  0.00  0.00    +0.000 HD
ATOM     42  H   UNL     1      -7.926   3.693 122.978  0.00  0.00    +0.000 HD
ENDBRANCH  34  35
ENDBRANCH  33  34
ENDBRANCH  32  33
ENDBRANCH   1  32
TORSDOF 10
ENDMDL
MODEL 6
REMARK VINA RESULT:      -8.0      3.202      7.704
REMARK  Name = Argatroban
REMARK  12 active torsions:
REMARK  status: ('A' for Active; 'I' for Inactive)
REMARK    1  A    between atoms: C_1  and  C_2
REMARK    2  A    between atoms: C_6  and  C_8
REMARK    3  A    between atoms: C_8  and  O_9
REMARK    4  A    between atoms: C_11  and  C_13
REMARK    5  A    between atoms: C_13  and  C_14
REMARK    6  A    between atoms: C_13  and  N_21
REMARK    7  A    between atoms: C_14  and  C_15
REMARK    8  A    between atoms: C_15  and  C_16
REMARK    9  A    between atoms: C_16  and  N_17
REMARK   10  A    between atoms: N_21  and  S_22
REMARK   11  A    between atoms: S_22  and  C_25
REMARK   12  A    between atoms: C_33  and  C_34
REMARK                            x       y       z     vdW  Elec       q    Type
REMARK                         _______ _______ _______ _____ _____    ______ ____
ROOT
ATOM      1  C   UNL     1      -7.925   3.372 129.432  0.00  0.00    +0.000 C 
ENDROOT
BRANCH   1   9
ATOM      2  C   UNL     1      -6.263  -0.994 125.657  0.00  0.00    +0.000 C 
ATOM      3  C   UNL     1      -5.493   0.244 126.116  0.00  0.00    +0.000 C 
ATOM      4  C   UNL     1      -5.618   0.450 127.627  0.00  0.00    +0.000 C 
ATOM      5  C   UNL     1      -7.033   0.865 128.021  0.00  0.00    +0.000 C 
ATOM      6  N   UNL     1      -7.463   2.067 127.299  0.00  0.00    +0.000 N 
ATOM      7  C   UNL     1      -7.375   1.985 125.813  0.00  0.00    +0.000 C 
ATOM      8  C   UNL     1      -5.968   1.507 125.387  0.00  0.00    +0.000 C 
ATOM      9  C   UNL     1      -7.944   3.224 127.901  0.00  0.00    +0.000 C 
ATOM     10  O   UNL     1      -8.373   4.186 127.260  0.00  0.00    +0.000 OA
BRANCH   7  11
ATOM     11  C   UNL     1      -7.900   3.164 124.932  0.00  0.00    +0.000 C 
ATOM     12  O   UNL     1      -7.159   4.010 124.440  0.00  0.00    +0.000 OA
BRANCH  11  13
ATOM     13  O   UNL     1      -9.243   3.271 124.795  0.00  0.00    +0.000 OA
ATOM     14  H   UNL     1      -9.720   3.792 125.461  0.00  0.00    +0.000 HD
ENDBRANCH  11  13
ENDBRANCH   7  11
ENDBRANCH   1   9
BRANCH   1  15
ATOM     15  N   UNL     1      -7.804   4.834 129.770  0.00  0.00    +0.000 NA
ATOM     16  H   UNL     1      -8.711   5.211 130.041  0.00  0.00    +0.000 HD
BRANCH  15  17
ATOM     17  S   UNL     1      -6.708   5.109 131.053  0.00  0.00    +0.000 S 
ATOM     18  O   UNL     1      -7.423   5.995 131.943  0.00  0.00    +0.000 OA
ATOM     19  O   UNL     1      -6.189   3.848 131.547  0.00  0.00    +0.000 OA
BRANCH  17  20
ATOM     20  C   UNL     1      -5.352   6.005 130.367  0.00  0.00    +0.000 A 
ATOM     21  C   UNL     1      -5.137   7.351 130.697  0.00  0.00    +0.000 A 
ATOM     22  C   UNL     1      -4.067   8.042 130.129  0.00  0.00    +0.000 A 
ATOM     23  C   UNL     1      -3.227   7.399 129.226  0.00  0.00    +0.000 A 
ATOM     24  C   UNL     1      -3.445   6.056 128.892  0.00  0.00    +0.000 A 
ATOM     25  C   UNL     1      -4.516   5.332 129.458  0.00  0.00    +0.000 A 
ATOM     26  N   UNL     1      -4.739   4.018 129.063  0.00  0.00    +0.000 N 
ATOM     27  C   UNL     1      -4.110   3.521 127.861  0.00  0.00    +0.000 C 
ATOM     28  C   UNL     1      -2.631   3.879 127.923  0.00  0.00    +0.000 C 
ATOM     29  C   UNL     1      -1.857   3.252 126.777  0.00  0.00    +0.000 C 
ATOM     30  C   UNL     1      -2.518   5.406 127.892  0.00  0.00    +0.000 C 
ATOM     31  H   UNL     1      -5.372   3.407 129.568  0.00  0.00    +0.000 HD
ENDBRANCH  17  20
ENDBRANCH  15  17
ENDBRANCH   1  15
BRANCH   1  32
ATOM     32  C   UNL     1      -9.214   2.733 129.979  0.00  0.00    +0.000 C 
BRANCH  32  33
ATOM     33  C   UNL     1      -9.041   1.680 131.078  0.00  0.00    +0.000 C 
BRANCH  33  34
ATOM     34  C   UNL     1      -9.891   2.053 132.290  0.00  0.00    +0.000 C 
BRANCH  34  35
ATOM     35  N   UNL     1      -9.111   2.674 133.340  0.00  0.00    +0.000 N 
ATOM     36  C   UNL     1      -9.189   3.970 133.719  0.00  0.00    +0.000 C 
ATOM     37  N   UNL     1     -10.106   4.736 133.119  0.00  0.00    +0.000 N 
ATOM     38  N   UNL     1      -8.457   4.497 134.635  0.00  0.00    +0.000 NA
ATOM     39  H   UNL     1      -8.408   2.102 133.787  0.00  0.00    +0.000 HD
ATOM     40  H   UNL     1     -10.648   4.444 132.325  0.00  0.00    +0.000 HD
ATOM     41  H   UNL     1     -10.111   5.715 133.368  0.00  0.00    +0.000 HD
ATOM     42  H   UNL     1      -7.822   3.802 135.022  0.00  0.00    +0.000 HD
ENDBRANCH  34  35
ENDBRANCH  33  34
ENDBRANCH  32  33
ENDBRANCH   1  32
TORSDOF 10
ENDMDL
MODEL 7
REMARK VINA RESULT:      -7.9      2.287      3.007
REMARK  Name = Argatroban
REMARK  12 active torsions:
REMARK  status: ('A' for Active; 'I' for Inactive)
REMARK    1  A    between atoms: C_1  and  C_2
REMARK    2  A    between atoms: C_6  and  C_8
REMARK    3  A    between atoms: C_8  and  O_9
REMARK    4  A    between atoms: C_11  and  C_13
REMARK    5  A    between atoms: C_13  and  C_14
REMARK    6  A    between atoms: C_13  and  N_21
REMARK    7  A    between atoms: C_14  and  C_15
REMARK    8  A    between atoms: C_15  and  C_16
REMARK    9  A    between atoms: C_16  and  N_17
REMARK   10  A    between atoms: N_21  and  S_22
REMARK   11  A    between atoms: S_22  and  C_25
REMARK   12  A    between atoms: C_33  and  C_34
REMARK                            x       y       z     vdW  Elec       q    Type
REMARK                         _______ _______ _______ _____ _____    ______ ____
ROOT
ATOM      1  C   UNL     1      -6.000   2.289 128.154  0.00  0.00    +0.000 C 
ENDROOT
BRANCH   1   9
ATOM      2  C   UNL     1      -9.402   2.700 133.087  0.00  0.00    +0.000 C 
ATOM      3  C   UNL     1      -9.799   2.340 131.654  0.00  0.00    +0.000 C 
ATOM      4  C   UNL     1      -8.814   1.346 131.036  0.00  0.00    +0.000 C 
ATOM      5  C   UNL     1      -7.457   1.992 130.773  0.00  0.00    +0.000 C 
ATOM      6  N   UNL     1      -7.581   3.187 129.931  0.00  0.00    +0.000 N 
ATOM      7  C   UNL     1      -8.526   4.225 130.432  0.00  0.00    +0.000 C 
ATOM      8  C   UNL     1      -9.894   3.586 130.765  0.00  0.00    +0.000 C 
ATOM      9  C   UNL     1      -6.882   3.399 128.749  0.00  0.00    +0.000 C 
ATOM     10  O   UNL     1      -6.951   4.450 128.108  0.00  0.00    +0.000 OA
BRANCH   7  11
ATOM     11  C   UNL     1      -8.668   5.584 129.675  0.00  0.00    +0.000 C 
ATOM     12  O   UNL     1      -8.196   6.635 130.098  0.00  0.00    +0.000 OA
BRANCH  11  13
ATOM     13  O   UNL     1      -9.420   5.579 128.549  0.00  0.00    +0.000 OA
ATOM     14  H   UNL     1      -9.575   6.432 128.111  0.00  0.00    +0.000 HD
ENDBRANCH  11  13
ENDBRANCH   7  11
ENDBRANCH   1   9
BRANCH   1  15
ATOM     15  N   UNL     1      -6.564   1.896 126.814  0.00  0.00    +0.000 NA
ATOM     16  H   UNL     1      -5.887   1.342 126.293  0.00  0.00    +0.000 HD
BRANCH  15  17
ATOM     17  S   UNL     1      -7.999   0.979 126.964  0.00  0.00    +0.000 S 
ATOM     18  O   UNL     1      -7.653  -0.065 127.903  0.00  0.00    +0.000 OA
ATOM     19  O   UNL     1      -9.126   1.852 127.233  0.00  0.00    +0.000 OA
BRANCH  17  20
ATOM     20  C   UNL     1      -8.277   0.227 125.393  0.00  0.00    +0.000 A 
ATOM     21  C   UNL     1      -9.385   0.583 124.610  0.00  0.00    +0.000 A 
ATOM     22  C   UNL     1      -9.591  -0.037 123.378  0.00  0.00    +0.000 A 
ATOM     23  C   UNL     1      -8.708  -1.016 122.938  0.00  0.00    +0.000 A 
ATOM     24  C   UNL     1      -7.604  -1.376 123.722  0.00  0.00    +0.000 A 
ATOM     25  C   UNL     1      -7.369  -0.759 124.969  0.00  0.00    +0.000 A 
ATOM     26  N   UNL     1      -6.297  -1.178 125.748  0.00  0.00    +0.000 N 
ATOM     27  C   UNL     1      -5.651  -2.435 125.452  0.00  0.00    +0.000 C 
ATOM     28  C   UNL     1      -5.347  -2.466 123.960  0.00  0.00    +0.000 C 
ATOM     29  C   UNL     1      -4.519  -3.682 123.584  0.00  0.00    +0.000 C 
ATOM     30  C   UNL     1      -6.682  -2.458 123.211  0.00  0.00    +0.000 C 
ATOM     31  H   UNL     1      -5.982  -0.648 126.555  0.00  0.00    +0.000 HD
ENDBRANCH  17  20
ENDBRANCH  15  17
ENDBRANCH   1  15
BRANCH   1  32
ATOM     32  C   UNL     1      -4.563   2.831 128.065  0.00  0.00    +0.000 C 
BRANCH  32  33
ATOM     33  C   UNL     1      -3.889   2.757 126.691  0.00  0.00    +0.000 C 
BRANCH  33  34
ATOM     34  C   UNL     1      -4.230   4.003 125.878  0.00  0.00    +0.000 C 
BRANCH  34  35
ATOM     35  N   UNL     1      -5.044   3.700 124.721  0.00  0.00    +0.000 N 
ATOM     36  C   UNL     1      -6.183   4.339 124.368  0.00  0.00    +0.000 C 
ATOM     37  N   UNL     1      -6.563   5.383 125.114  0.00  0.00    +0.000 N 
ATOM     38  N   UNL     1      -6.901   4.023 123.349  0.00  0.00    +0.000 NA
ATOM     39  H   UNL     1      -4.768   2.904 124.162  0.00  0.00    +0.000 HD
ATOM     40  H   UNL     1      -6.128   5.638 125.983  0.00  0.00    +0.000 HD
ATOM     41  H   UNL     1      -7.446   5.811 124.876  0.00  0.00    +0.000 HD
ATOM     42  H   UNL     1      -6.487   3.231 122.860  0.00  0.00    +0.000 HD
ENDBRANCH  34  35
ENDBRANCH  33  34
ENDBRANCH  32  33
ENDBRANCH   1  32
TORSDOF 10
ENDMDL
MODEL 8
REMARK VINA RESULT:      -7.9      3.304      7.528
REMARK  Name = Argatroban
REMARK  12 active torsions:
REMARK  status: ('A' for Active; 'I' for Inactive)
REMARK    1  A    between atoms: C_1  and  C_2
REMARK    2  A    between atoms: C_6  and  C_8
REMARK    3  A    between atoms: C_8  and  O_9
REMARK    4  A    between atoms: C_11  and  C_13
REMARK    5  A    between atoms: C_13  and  C_14
REMARK    6  A    between atoms: C_13  and  N_21
REMARK    7  A    between atoms: C_14  and  C_15
REMARK    8  A    between atoms: C_15  and  C_16
REMARK    9  A    between atoms: C_16  and  N_17
REMARK   10  A    between atoms: N_21  and  S_22
REMARK   11  A    between atoms: S_22  and  C_25
REMARK   12  A    between atoms: C_33  and  C_34
REMARK                            x       y       z     vdW  Elec       q    Type
REMARK                         _______ _______ _______ _____ _____    ______ ____
ROOT
ATOM      1  C   UNL     1      -8.560   4.985 129.787  0.00  0.00    +0.000 C 
ENDROOT
BRANCH   1   9
ATOM      2  C   UNL     1      -7.635  -0.596 127.771  0.00  0.00    +0.000 C 
ATOM      3  C   UNL     1      -6.631   0.528 128.028  0.00  0.00    +0.000 C 
ATOM      4  C   UNL     1      -6.899   1.220 129.366  0.00  0.00    +0.000 C 
ATOM      5  C   UNL     1      -8.191   2.032 129.327  0.00  0.00    +0.000 C 
ATOM      6  N   UNL     1      -8.181   3.009 128.233  0.00  0.00    +0.000 N 
ATOM      7  C   UNL     1      -7.918   2.447 126.877  0.00  0.00    +0.000 C 
ATOM      8  C   UNL     1      -6.647   1.568 126.901  0.00  0.00    +0.000 C 
ATOM      9  C   UNL     1      -8.411   4.371 128.385  0.00  0.00    +0.000 C 
ATOM     10  O   UNL     1      -8.476   5.152 127.432  0.00  0.00    +0.000 OA
BRANCH   7  11
ATOM     11  C   UNL     1      -7.984   3.373 125.620  0.00  0.00    +0.000 C 
ATOM     12  O   UNL     1      -8.962   3.425 124.881  0.00  0.00    +0.000 OA
BRANCH  11  13
ATOM     13  O   UNL     1      -6.864   4.072 125.319  0.00  0.00    +0.000 OA
ATOM     14  H   UNL     1      -6.085   3.567 125.033  0.00  0.00    +0.000 HD
ENDBRANCH  11  13
ENDBRANCH   7  11
ENDBRANCH   1   9
BRANCH   1  15
ATOM     15  N   UNL     1      -7.404   5.920 130.025  0.00  0.00    +0.000 NA
ATOM     16  H   UNL     1      -7.738   6.874 130.144  0.00  0.00    +0.000 HD
BRANCH  15  17
ATOM     17  S   UNL     1      -6.508   5.493 131.418  0.00  0.00    +0.000 S 
ATOM     18  O   UNL     1      -6.953   6.431 132.424  0.00  0.00    +0.000 OA
ATOM     19  O   UNL     1      -6.610   4.066 131.661  0.00  0.00    +0.000 OA
BRANCH  17  20
ATOM     20  C   UNL     1      -4.819   5.846 131.052  0.00  0.00    +0.000 A 
ATOM     21  C   UNL     1      -4.089   6.757 131.831  0.00  0.00    +0.000 A 
ATOM     22  C   UNL     1      -2.759   7.031 131.512  0.00  0.00    +0.000 A 
ATOM     23  C   UNL     1      -2.167   6.413 130.415  0.00  0.00    +0.000 A 
ATOM     24  C   UNL     1      -2.898   5.508 129.635  0.00  0.00    +0.000 A 
ATOM     25  C   UNL     1      -4.243   5.208 129.940  0.00  0.00    +0.000 A 
ATOM     26  N   UNL     1      -4.957   4.348 129.113  0.00  0.00    +0.000 N 
ATOM     27  C   UNL     1      -4.449   4.044 127.796  0.00  0.00    +0.000 C 
ATOM     28  C   UNL     1      -2.984   3.651 127.936  0.00  0.00    +0.000 C 
ATOM     29  C   UNL     1      -2.411   3.156 126.620  0.00  0.00    +0.000 C 
ATOM     30  C   UNL     1      -2.218   4.876 128.443  0.00  0.00    +0.000 C 
ATOM     31  H   UNL     1      -5.854   3.963 129.389  0.00  0.00    +0.000 HD
ENDBRANCH  17  20
ENDBRANCH  15  17
ENDBRANCH   1  15
BRANCH   1  32
ATOM     32  C   UNL     1      -9.925   5.693 129.845  0.00  0.00    +0.000 C 
BRANCH  32  33
ATOM     33  C   UNL     1     -10.107   6.737 130.950  0.00  0.00    +0.000 C 
BRANCH  33  34
ATOM     34  C   UNL     1     -10.758   6.091 132.171  0.00  0.00    +0.000 C 
BRANCH  34  35
ATOM     35  N   UNL     1      -9.798   5.793 133.213  0.00  0.00    +0.000 N 
ATOM     36  C   UNL     1      -9.337   4.562 133.532  0.00  0.00    +0.000 C 
ATOM     37  N   UNL     1      -9.754   3.533 132.785  0.00  0.00    +0.000 N 
ATOM     38  N   UNL     1      -8.508   4.328 134.486  0.00  0.00    +0.000 NA
ATOM     39  H   UNL     1      -9.491   6.565 133.788  0.00  0.00    +0.000 HD
ATOM     40  H   UNL     1     -10.476   3.601 132.091  0.00  0.00    +0.000 HD
ATOM     41  H   UNL     1      -9.451   2.613 133.073  0.00  0.00    +0.000 HD
ATOM     42  H   UNL     1      -8.257   5.197 134.955  0.00  0.00    +0.000 HD
ENDBRANCH  34  35
ENDBRANCH  33  34
ENDBRANCH  32  33
ENDBRANCH   1  32
TORSDOF 10
ENDMDL
MODEL 9
REMARK VINA RESULT:      -7.9      3.324      7.594
REMARK  Name = Argatroban
REMARK  12 active torsions:
REMARK  status: ('A' for Active; 'I' for Inactive)
REMARK    1  A    between atoms: C_1  and  C_2
REMARK    2  A    between atoms: C_6  and  C_8
REMARK    3  A    between atoms: C_8  and  O_9
REMARK    4  A    between atoms: C_11  and  C_13
REMARK    5  A    between atoms: C_13  and  C_14
REMARK    6  A    between atoms: C_13  and  N_21
REMARK    7  A    between atoms: C_14  and  C_15
REMARK    8  A    between atoms: C_15  and  C_16
REMARK    9  A    between atoms: C_16  and  N_17
REMARK   10  A    between atoms: N_21  and  S_22
REMARK   11  A    between atoms: S_22  and  C_25
REMARK   12  A    between atoms: C_33  and  C_34
REMARK                            x       y       z     vdW  Elec       q    Type
REMARK                         _______ _______ _______ _____ _____    ______ ____
ROOT
ATOM      1  C   UNL     1      -8.081   3.161 129.699  0.00  0.00    +0.000 C 
ENDROOT
BRANCH   1   9
ATOM      2  C   UNL     1      -6.973   0.568 124.396  0.00  0.00    +0.000 C 
ATOM      3  C   UNL     1      -5.996   1.105 125.443  0.00  0.00    +0.000 C 
ATOM      4  C   UNL     1      -6.399   0.673 126.854  0.00  0.00    +0.000 C 
ATOM      5  C   UNL     1      -7.677   1.371 127.311  0.00  0.00    +0.000 C 
ATOM      6  N   UNL     1      -7.551   2.831 127.235  0.00  0.00    +0.000 N 
ATOM      7  C   UNL     1      -7.152   3.368 125.903  0.00  0.00    +0.000 C 
ATOM      8  C   UNL     1      -5.893   2.635 125.387  0.00  0.00    +0.000 C 
ATOM      9  C   UNL     1      -7.791   3.703 128.290  0.00  0.00    +0.000 C 
ATOM     10  O   UNL     1      -7.754   4.930 128.169  0.00  0.00    +0.000 OA
BRANCH   7  11
ATOM     11  C   UNL     1      -7.084   4.911 125.670  0.00  0.00    +0.000 C 
ATOM     12  O   UNL     1      -6.036   5.548 125.722  0.00  0.00    +0.000 OA
BRANCH  11  13
ATOM     13  O   UNL     1      -8.263   5.552 125.486  0.00  0.00    +0.000 OA
ATOM     14  H   UNL     1      -9.056   5.154 125.883  0.00  0.00    +0.000 HD
ENDBRANCH  11  13
ENDBRANCH   7  11
ENDBRANCH   1   9
BRANCH   1  15
ATOM     15  N   UNL     1      -7.063   3.732 130.651  0.00  0.00    +0.000 NA
ATOM     16  H   UNL     1      -7.448   3.784 131.592  0.00  0.00    +0.000 HD
BRANCH  15  17
ATOM     17  S   UNL     1      -5.637   2.790 130.710  0.00  0.00    +0.000 S 
ATOM     18  O   UNL     1      -5.123   3.014 132.042  0.00  0.00    +0.000 OA
ATOM     19  O   UNL     1      -5.911   1.440 130.256  0.00  0.00    +0.000 OA
BRANCH  17  20
ATOM     20  C   UNL     1      -4.512   3.515 129.562  0.00  0.00    +0.000 A 
ATOM     21  C   UNL     1      -3.821   2.723 128.632  0.00  0.00    +0.000 A 
ATOM     22  C   UNL     1      -2.925   3.319 127.745  0.00  0.00    +0.000 A 
ATOM     23  C   UNL     1      -2.708   4.691 127.795  0.00  0.00    +0.000 A 
ATOM     24  C   UNL     1      -3.394   5.481 128.727  0.00  0.00    +0.000 A 
ATOM     25  C   UNL     1      -4.311   4.905 129.631  0.00  0.00    +0.000 A 
ATOM     26  N   UNL     1      -4.933   5.707 130.580  0.00  0.00    +0.000 N 
ATOM     27  C   UNL     1      -4.402   7.021 130.858  0.00  0.00    +0.000 C 
ATOM     28  C   UNL     1      -4.188   7.732 129.529  0.00  0.00    +0.000 C 
ATOM     29  C   UNL     1      -3.785   9.182 129.730  0.00  0.00    +0.000 C 
ATOM     30  C   UNL     1      -3.112   6.965 128.756  0.00  0.00    +0.000 C 
ATOM     31  H   UNL     1      -5.726   5.379 131.122  0.00  0.00    +0.000 HD
ENDBRANCH  17  20
ENDBRANCH  15  17
ENDBRANCH   1  15
BRANCH   1  32
ATOM     32  C   UNL     1      -9.525   3.549 130.061  0.00  0.00    +0.000 C 
BRANCH  32  33
ATOM     33  C   UNL     1      -9.792   3.896 131.529  0.00  0.00    +0.000 C 
BRANCH  33  34
ATOM     34  C   UNL     1      -9.886   5.410 131.695  0.00  0.00    +0.000 C 
BRANCH  34  35
ATOM     35  N   UNL     1     -11.236   5.851 131.977  0.00  0.00    +0.000 N 
ATOM     36  C   UNL     1     -11.928   6.773 131.270  0.00  0.00    +0.000 C 
ATOM     37  N   UNL     1     -11.344   7.283 130.179  0.00  0.00    +0.000 N 
ATOM     38  N   UNL     1     -13.115   7.167 131.566  0.00  0.00    +0.000 NA
ATOM     39  H   UNL     1     -11.676   5.479 132.807  0.00  0.00    +0.000 HD
ATOM     40  H   UNL     1     -10.385   7.118 129.928  0.00  0.00    +0.000 HD
ATOM     41  H   UNL     1     -11.846   8.015 129.697  0.00  0.00    +0.000 HD
ATOM     42  H   UNL     1     -13.447   6.685 132.400  0.00  0.00    +0.000 HD
ENDBRANCH  34  35
ENDBRANCH  33  34
ENDBRANCH  32  33
ENDBRANCH   1  32
TORSDOF 10
ENDMDL
