MODEL 1
REMARK VINA RESULT:      -8.0      0.000      0.000
REMARK  Name = Aripiprazole lauroxil
REMARK  21 active torsions:
REMARK  status: ('A' for Active; 'I' for Inactive)
REMARK    1  A    between atoms: C_1  and  C_2
REMARK    2  A    between atoms: C_2  and  C_3
REMARK    3  A    between atoms: C_3  and  C_4
REMARK    4  A    between atoms: C_4  and  C_5
REMARK    5  A    between atoms: C_5  and  C_6
REMARK    6  A    between atoms: C_6  and  C_7
REMARK    7  A    between atoms: C_7  and  C_8
REMARK    8  A    between atoms: C_8  and  C_9
REMARK    9  A    between atoms: C_9  and  C_10
REMARK   10  A    between atoms: C_10  and  C_11
REMARK   11  A    between atoms: C_11  and  C_12
REMARK   12  A    between atoms: C_12  and  O_14
REMARK   13  A    between atoms: O_14  and  C_15
REMARK   14  A    between atoms: C_15  and  N_16
REMARK   15  A    between atoms: C_24  and  O_25
REMARK   16  A    between atoms: O_25  and  C_26
REMARK   17  A    between atoms: C_26  and  C_27
REMARK   18  A    between atoms: C_27  and  C_28
REMARK   19  A    between atoms: C_28  and  C_29
REMARK   20  A    between atoms: C_29  and  N_30
REMARK   21  A    between atoms: N_33  and  C_36
REMARK                            x       y       z     vdW  Elec       q    Type
REMARK                         _______ _______ _______ _____ _____    ______ ____
ROOT
ATOM      1  N   UNL     1      -6.687  -1.727 125.214  0.00  0.00    +0.000 N 
ATOM      2  C   UNL     1      -7.051  -2.072 123.921  0.00  0.00    +0.000 C 
ATOM      3  O   UNL     1      -6.468  -1.650 122.919  0.00  0.00    +0.000 OA
ATOM      4  C   UNL     1      -8.297  -2.920 123.778  0.00  0.00    +0.000 C 
ATOM      5  C   UNL     1      -8.366  -3.998 124.842  0.00  0.00    +0.000 C 
ATOM      6  C   UNL     1      -8.203  -3.377 126.199  0.00  0.00    +0.000 A 
ATOM      7  C   UNL     1      -8.829  -3.933 127.325  0.00  0.00    +0.000 A 
ATOM      8  C   UNL     1      -8.630  -3.372 128.587  0.00  0.00    +0.000 A 
ATOM      9  C   UNL     1      -7.805  -2.263 128.736  0.00  0.00    +0.000 A 
ATOM     10  C   UNL     1      -7.172  -1.724 127.618  0.00  0.00    +0.000 A 
ATOM     11  C   UNL     1      -7.355  -2.271 126.348  0.00  0.00    +0.000 A 
ENDROOT
BRANCH   1  12
ATOM     12  C   UNL     1      -5.568  -0.804 125.394  0.00  0.00    +0.000 C 
BRANCH  12  13
ATOM     13  O   UNL     1      -6.037   0.543 125.239  0.00  0.00    +0.000 OA
BRANCH  13  14
ATOM     14  C   UNL     1      -5.526   1.380 126.187  0.00  0.00    +0.000 C 
ATOM     15  O   UNL     1      -4.350   1.692 126.265  0.00  0.00    +0.000 OA
BRANCH  14  16
ATOM     16  C   UNL     1      -6.606   1.845 127.147  0.00  0.00    +0.000 C 
BRANCH  16  17
ATOM     17  C   UNL     1      -6.467   3.346 127.408  0.00  0.00    +0.000 C 
BRANCH  17  18
ATOM     18  C   UNL     1      -7.672   4.138 126.913  0.00  0.00    +0.000 C 
BRANCH  18  19
ATOM     19  C   UNL     1      -7.543   4.421 125.420  0.00  0.00    +0.000 C 
BRANCH  19  20
ATOM     20  C   UNL     1      -6.184   5.029 125.108  0.00  0.00    +0.000 C 
BRANCH  20  21
ATOM     21  C   UNL     1      -5.552   4.331 123.914  0.00  0.00    +0.000 C 
BRANCH  21  22
ATOM     22  C   UNL     1      -6.559   3.402 123.256  0.00  0.00    +0.000 C 
BRANCH  22  23
ATOM     23  C   UNL     1      -6.403   3.445 121.744  0.00  0.00    +0.000 C 
BRANCH  23  24
ATOM     24  C   UNL     1      -5.348   4.468 121.353  0.00  0.00    +0.000 C 
BRANCH  24  26
ATOM     25  C   UNL     1      -6.847   4.506 119.357  0.00  0.00    +0.000 C 
ATOM     26  C   UNL     1      -5.453   4.806 119.872  0.00  0.00    +0.000 C 
ENDBRANCH  24  26
ENDBRANCH  23  24
ENDBRANCH  22  23
ENDBRANCH  21  22
ENDBRANCH  20  21
ENDBRANCH  19  20
ENDBRANCH  18  19
ENDBRANCH  17  18
ENDBRANCH  16  17
ENDBRANCH  14  16
ENDBRANCH  13  14
ENDBRANCH  12  13
ENDBRANCH   1  12
BRANCH   9  27
ATOM     27  O   UNL     1      -7.686  -1.779 130.009  0.00  0.00    +0.000 OA
BRANCH  27  28
ATOM     28  C   UNL     1      -7.125  -0.477 130.110  0.00  0.00    +0.000 C 
BRANCH  28  29
ATOM     29  C   UNL     1      -8.263   0.527 130.205  0.00  0.00    +0.000 C 
BRANCH  29  30
ATOM     30  C   UNL     1      -8.178   1.183 131.559  0.00  0.00    +0.000 C 
BRANCH  30  31
ATOM     31  C   UNL     1      -7.577   2.589 131.525  0.00  0.00    +0.000 C 
BRANCH  31  32
ATOM     32  N   UNL     1      -8.390   3.630 132.180  0.00  0.00    +0.000 NA
ATOM     33  C   UNL     1      -7.853   4.998 131.910  0.00  0.00    +0.000 C 
ATOM     34  C   UNL     1      -8.015   5.464 130.432  0.00  0.00    +0.000 C 
ATOM     35  N   UNL     1      -9.430   5.361 130.066  0.00  0.00    +0.000 N 
ATOM     36  C   UNL     1     -10.049   4.067 130.292  0.00  0.00    +0.000 C 
ATOM     37  C   UNL     1      -9.815   3.627 131.765  0.00  0.00    +0.000 C 
BRANCH  35  38
ATOM     38  C   UNL     1     -10.164   6.378 129.507  0.00  0.00    +0.000 A 
ATOM     39  C   UNL     1     -11.153   7.097 130.226  0.00  0.00    +0.000 A 
ATOM     40 CL   UNL     1     -11.451   6.782 131.913  0.00  0.00    +0.000 Cl
ATOM     41  C   UNL     1     -11.864   8.129 129.607  0.00  0.00    +0.000 A 
ATOM     42 CL   UNL     1     -13.066   9.056 130.441  0.00  0.00    +0.000 Cl
ATOM     43  C   UNL     1     -11.604   8.459 128.279  0.00  0.00    +0.000 A 
ATOM     44  C   UNL     1     -10.652   7.749 127.553  0.00  0.00    +0.000 A 
ATOM     45  C   UNL     1      -9.944   6.714 128.162  0.00  0.00    +0.000 A 
ENDBRANCH  35  38
ENDBRANCH  31  32
ENDBRANCH  30  31
ENDBRANCH  29  30
ENDBRANCH  28  29
ENDBRANCH  27  28
ENDBRANCH   9  27
TORSDOF 20
ENDMDL
MODEL 2
REMARK VINA RESULT:      -7.8      3.847      8.200
REMARK  Name = Aripiprazole lauroxil
REMARK  21 active torsions:
REMARK  status: ('A' for Active; 'I' for Inactive)
REMARK    1  A    between atoms: C_1  and  C_2
REMARK    2  A    between atoms: C_2  and  C_3
REMARK    3  A    between atoms: C_3  and  C_4
REMARK    4  A    between atoms: C_4  and  C_5
REMARK    5  A    between atoms: C_5  and  C_6
REMARK    6  A    between atoms: C_6  and  C_7
REMARK    7  A    between atoms: C_7  and  C_8
REMARK    8  A    between atoms: C_8  and  C_9
REMARK    9  A    between atoms: C_9  and  C_10
REMARK   10  A    between atoms: C_10  and  C_11
REMARK   11  A    between atoms: C_11  and  C_12
REMARK   12  A    between atoms: C_12  and  O_14
REMARK   13  A    between atoms: O_14  and  C_15
REMARK   14  A    between atoms: C_15  and  N_16
REMARK   15  A    between atoms: C_24  and  O_25
REMARK   16  A    between atoms: O_25  and  C_26
REMARK   17  A    between atoms: C_26  and  C_27
REMARK   18  A    between atoms: C_27  and  C_28
REMARK   19  A    between atoms: C_28  and  C_29
REMARK   20  A    between atoms: C_29  and  N_30
REMARK   21  A    between atoms: N_33  and  C_36
REMARK                            x       y       z     vdW  Elec       q    Type
REMARK                         _______ _______ _______ _____ _____    ______ ____
ROOT
ATOM      1  N   UNL     1      -9.258   3.843 130.594  0.00  0.00    +0.000 N 
ATOM      2  C   UNL     1     -10.548   4.291 130.354  0.00  0.00    +0.000 C 
ATOM      3  O   UNL     1     -11.510   3.533 130.202  0.00  0.00    +0.000 OA
ATOM      4  C   UNL     1     -10.716   5.784 130.168  0.00  0.00    +0.000 C 
ATOM      5  C   UNL     1      -9.867   6.569 131.147  0.00  0.00    +0.000 C 
ATOM      6  C   UNL     1      -8.443   6.102 131.067  0.00  0.00    +0.000 A 
ATOM      7  C   UNL     1      -7.381   6.983 131.317  0.00  0.00    +0.000 A 
ATOM      8  C   UNL     1      -6.064   6.522 131.285  0.00  0.00    +0.000 A 
ATOM      9  C   UNL     1      -5.799   5.185 131.011  0.00  0.00    +0.000 A 
ATOM     10  C   UNL     1      -6.858   4.309 130.780  0.00  0.00    +0.000 A 
ATOM     11  C   UNL     1      -8.181   4.749 130.810  0.00  0.00    +0.000 A 
ENDROOT
BRANCH   1  12
ATOM     12  C   UNL     1      -9.027   2.401 130.651  0.00  0.00    +0.000 C 
BRANCH  12  13
ATOM     13  O   UNL     1      -9.144   1.955 132.010  0.00  0.00    +0.000 OA
BRANCH  13  14
ATOM     14  C   UNL     1      -8.080   1.195 132.398  0.00  0.00    +0.000 C 
ATOM     15  O   UNL     1      -7.521   1.297 133.476  0.00  0.00    +0.000 OA
BRANCH  14  16
ATOM     16  C   UNL     1      -7.667   0.230 131.301  0.00  0.00    +0.000 C 
BRANCH  16  17
ATOM     17  C   UNL     1      -7.859  -1.213 131.771  0.00  0.00    +0.000 C 
BRANCH  17  18
ATOM     18  C   UNL     1      -7.369  -2.230 130.747  0.00  0.00    +0.000 C 
BRANCH  18  19
ATOM     19  C   UNL     1      -7.930  -1.905 129.366  0.00  0.00    +0.000 C 
BRANCH  19  20
ATOM     20  C   UNL     1      -6.816  -1.871 128.332  0.00  0.00    +0.000 C 
BRANCH  20  21
ATOM     21  C   UNL     1      -7.290  -2.479 127.021  0.00  0.00    +0.000 C 
BRANCH  21  22
ATOM     22  C   UNL     1      -8.637  -3.155 127.214  0.00  0.00    +0.000 C 
BRANCH  22  23
ATOM     23  C   UNL     1      -9.483  -3.009 125.959  0.00  0.00    +0.000 C 
BRANCH  23  24
ATOM     24  C   UNL     1      -8.685  -3.433 124.735  0.00  0.00    +0.000 C 
BRANCH  24  26
ATOM     25  C   UNL     1      -8.280  -2.074 122.680  0.00  0.00    +0.000 C 
ATOM     26  C   UNL     1      -9.307  -2.864 123.467  0.00  0.00    +0.000 C 
ENDBRANCH  24  26
ENDBRANCH  23  24
ENDBRANCH  22  23
ENDBRANCH  21  22
ENDBRANCH  20  21
ENDBRANCH  19  20
ENDBRANCH  18  19
ENDBRANCH  17  18
ENDBRANCH  16  17
ENDBRANCH  14  16
ENDBRANCH  13  14
ENDBRANCH  12  13
ENDBRANCH   1  12
BRANCH   9  27
ATOM     27  O   UNL     1      -4.478   4.835 130.988  0.00  0.00    +0.000 OA
BRANCH  27  28
ATOM     28  C   UNL     1      -3.564   5.920 131.053  0.00  0.00    +0.000 C 
BRANCH  28  29
ATOM     29  C   UNL     1      -2.378   5.601 130.157  0.00  0.00    +0.000 C 
BRANCH  29  30
ATOM     30  C   UNL     1      -2.867   5.626 128.731  0.00  0.00    +0.000 C 
BRANCH  30  31
ATOM     31  C   UNL     1      -2.970   4.241 128.091  0.00  0.00    +0.000 C 
BRANCH  31  32
ATOM     32  N   UNL     1      -3.499   4.228 126.715  0.00  0.00    +0.000 NA
ATOM     33  C   UNL     1      -3.603   2.837 126.180  0.00  0.00    +0.000 C 
ATOM     34  C   UNL     1      -4.704   1.973 126.866  0.00  0.00    +0.000 C 
ATOM     35  N   UNL     1      -5.981   2.685 126.765  0.00  0.00    +0.000 N 
ATOM     36  C   UNL     1      -5.985   4.050 127.259  0.00  0.00    +0.000 C 
ATOM     37  C   UNL     1      -4.838   4.853 126.582  0.00  0.00    +0.000 C 
BRANCH  35  38
ATOM     38  C   UNL     1      -7.141   2.134 126.279  0.00  0.00    +0.000 A 
ATOM     39  C   UNL     1      -7.571   2.307 124.938  0.00  0.00    +0.000 A 
ATOM     40 CL   UNL     1      -6.601   3.181 123.784  0.00  0.00    +0.000 Cl
ATOM     41  C   UNL     1      -8.758   1.716 124.496  0.00  0.00    +0.000 A 
ATOM     42 CL   UNL     1      -9.321   1.874 122.866  0.00  0.00    +0.000 Cl
ATOM     43  C   UNL     1      -9.525   0.950 125.370  0.00  0.00    +0.000 A 
ATOM     44  C   UNL     1      -9.129   0.788 126.695  0.00  0.00    +0.000 A 
ATOM     45  C   UNL     1      -7.950   1.380 127.144  0.00  0.00    +0.000 A 
ENDBRANCH  35  38
ENDBRANCH  31  32
ENDBRANCH  30  31
ENDBRANCH  29  30
ENDBRANCH  28  29
ENDBRANCH  27  28
ENDBRANCH   9  27
TORSDOF 20
ENDMDL
MODEL 3
REMARK VINA RESULT:      -7.7      3.172      4.762
REMARK  Name = Aripiprazole lauroxil
REMARK  21 active torsions:
REMARK  status: ('A' for Active; 'I' for Inactive)
REMARK    1  A    between atoms: C_1  and  C_2
REMARK    2  A    between atoms: C_2  and  C_3
REMARK    3  A    between atoms: C_3  and  C_4
REMARK    4  A    between atoms: C_4  and  C_5
REMARK    5  A    between atoms: C_5  and  C_6
REMARK    6  A    between atoms: C_6  and  C_7
REMARK    7  A    between atoms: C_7  and  C_8
REMARK    8  A    between atoms: C_8  and  C_9
REMARK    9  A    between atoms: C_9  and  C_10
REMARK   10  A    between atoms: C_10  and  C_11
REMARK   11  A    between atoms: C_11  and  C_12
REMARK   12  A    between atoms: C_12  and  O_14
REMARK   13  A    between atoms: O_14  and  C_15
REMARK   14  A    between atoms: C_15  and  N_16
REMARK   15  A    between atoms: C_24  and  O_25
REMARK   16  A    between atoms: O_25  and  C_26
REMARK   17  A    between atoms: C_26  and  C_27
REMARK   18  A    between atoms: C_27  and  C_28
REMARK   19  A    between atoms: C_28  and  C_29
REMARK   20  A    between atoms: C_29  and  N_30
REMARK   21  A    between atoms: N_33  and  C_36
REMARK                            x       y       z     vdW  Elec       q    Type
REMARK                         _______ _______ _______ _____ _____    ______ ____
ROOT
ATOM      1  N   UNL     1      -9.223   0.303 124.564  0.00  0.00    +0.000 N 
ATOM      2  C   UNL     1      -9.567   0.514 123.237  0.00  0.00    +0.000 C 
ATOM      3  O   UNL     1      -9.718   1.637 122.748  0.00  0.00    +0.000 OA
ATOM      4  C   UNL     1      -9.870  -0.723 122.418  0.00  0.00    +0.000 C 
ATOM      5  C   UNL     1      -8.903  -1.849 122.726  0.00  0.00    +0.000 C 
ATOM      6  C   UNL     1      -8.870  -2.092 124.206  0.00  0.00    +0.000 A 
ATOM      7  C   UNL     1      -8.624  -3.375 124.720  0.00  0.00    +0.000 A 
ATOM      8  C   UNL     1      -8.549  -3.576 126.099  0.00  0.00    +0.000 A 
ATOM      9  C   UNL     1      -8.709  -2.504 126.971  0.00  0.00    +0.000 A 
ATOM     10  C   UNL     1      -8.936  -1.229 126.457  0.00  0.00    +0.000 A 
ATOM     11  C   UNL     1      -9.013  -1.007 125.081  0.00  0.00    +0.000 A 
ENDROOT
BRANCH   1  12
ATOM     12  C   UNL     1      -9.049   1.471 125.426  0.00  0.00    +0.000 C 
BRANCH  12  13
ATOM     13  O   UNL     1      -7.696   1.937 125.325  0.00  0.00    +0.000 OA
BRANCH  13  14
ATOM     14  C   UNL     1      -7.628   3.286 125.132  0.00  0.00    +0.000 C 
ATOM     15  O   UNL     1      -8.593   4.030 125.143  0.00  0.00    +0.000 OA
BRANCH  14  16
ATOM     16  C   UNL     1      -6.200   3.731 124.873  0.00  0.00    +0.000 C 
BRANCH  16  17
ATOM     17  C   UNL     1      -5.561   4.229 126.171  0.00  0.00    +0.000 C 
BRANCH  17  18
ATOM     18  C   UNL     1      -4.302   3.452 126.538  0.00  0.00    +0.000 C 
BRANCH  18  19
ATOM     19  C   UNL     1      -4.507   1.962 126.283  0.00  0.00    +0.000 C 
BRANCH  19  20
ATOM     20  C   UNL     1      -4.904   1.251 127.568  0.00  0.00    +0.000 C 
BRANCH  20  21
ATOM     21  C   UNL     1      -5.534  -0.097 127.256  0.00  0.00    +0.000 C 
BRANCH  21  22
ATOM     22  C   UNL     1      -5.293  -0.465 125.801  0.00  0.00    +0.000 C 
BRANCH  22  23
ATOM     23  C   UNL     1      -5.321  -1.975 125.630  0.00  0.00    +0.000 C 
BRANCH  23  24
ATOM     24  C   UNL     1      -5.187  -2.340 124.159  0.00  0.00    +0.000 C 
BRANCH  24  26
ATOM     25  C   UNL     1      -3.975  -4.440 123.566  0.00  0.00    +0.000 C 
ATOM     26  C   UNL     1      -5.310  -3.846 123.968  0.00  0.00    +0.000 C 
ENDBRANCH  24  26
ENDBRANCH  23  24
ENDBRANCH  22  23
ENDBRANCH  21  22
ENDBRANCH  20  21
ENDBRANCH  19  20
ENDBRANCH  18  19
ENDBRANCH  17  18
ENDBRANCH  16  17
ENDBRANCH  14  16
ENDBRANCH  13  14
ENDBRANCH  12  13
ENDBRANCH   1  12
BRANCH   9  27
ATOM     27  O   UNL     1      -8.633  -2.806 128.302  0.00  0.00    +0.000 OA
BRANCH  27  28
ATOM     28  C   UNL     1      -7.606  -3.721 128.656  0.00  0.00    +0.000 C 
BRANCH  28  29
ATOM     29  C   UNL     1      -6.697  -3.049 129.673  0.00  0.00    +0.000 C 
BRANCH  29  30
ATOM     30  C   UNL     1      -7.557  -2.157 130.531  0.00  0.00    +0.000 C 
BRANCH  30  31
ATOM     31  C   UNL     1      -7.057  -0.714 130.612  0.00  0.00    +0.000 C 
BRANCH  31  32
ATOM     32  N   UNL     1      -8.006   0.241 131.215  0.00  0.00    +0.000 NA
ATOM     33  C   UNL     1      -7.382   0.997 132.344  0.00  0.00    +0.000 C 
ATOM     34  C   UNL     1      -6.279   2.004 131.901  0.00  0.00    +0.000 C 
ATOM     35  N   UNL     1      -6.852   2.908 130.901  0.00  0.00    +0.000 N 
ATOM     36  C   UNL     1      -7.486   2.271 129.761  0.00  0.00    +0.000 C 
ATOM     37  C   UNL     1      -8.539   1.241 130.257  0.00  0.00    +0.000 C 
BRANCH  35  38
ATOM     38  C   UNL     1      -6.790   4.279 130.967  0.00  0.00    +0.000 A 
ATOM     39  C   UNL     1      -5.613   5.011 130.664  0.00  0.00    +0.000 A 
ATOM     40 CL   UNL     1      -4.170   4.210 130.107  0.00  0.00    +0.000 Cl
ATOM     41  C   UNL     1      -5.612   6.406 130.741  0.00  0.00    +0.000 A 
ATOM     42 CL   UNL     1      -4.213   7.353 130.362  0.00  0.00    +0.000 Cl
ATOM     43  C   UNL     1      -6.768   7.088 131.114  0.00  0.00    +0.000 A 
ATOM     44  C   UNL     1      -7.925   6.383 131.436  0.00  0.00    +0.000 A 
ATOM     45  C   UNL     1      -7.932   4.992 131.368  0.00  0.00    +0.000 A 
ENDBRANCH  35  38
ENDBRANCH  31  32
ENDBRANCH  30  31
ENDBRANCH  29  30
ENDBRANCH  28  29
ENDBRANCH  27  28
ENDBRANCH   9  27
TORSDOF 20
ENDMDL
MODEL 4
REMARK VINA RESULT:      -7.7      3.754      8.451
REMARK  Name = Aripiprazole lauroxil
REMARK  21 active torsions:
REMARK  status: ('A' for Active; 'I' for Inactive)
REMARK    1  A    between atoms: C_1  and  C_2
REMARK    2  A    between atoms: C_2  and  C_3
REMARK    3  A    between atoms: C_3  and  C_4
REMARK    4  A    between atoms: C_4  and  C_5
REMARK    5  A    between atoms: C_5  and  C_6
REMARK    6  A    between atoms: C_6  and  C_7
REMARK    7  A    between atoms: C_7  and  C_8
REMARK    8  A    between atoms: C_8  and  C_9
REMARK    9  A    between atoms: C_9  and  C_10
REMARK   10  A    between atoms: C_10  and  C_11
REMARK   11  A    between atoms: C_11  and  C_12
REMARK   12  A    between atoms: C_12  and  O_14
REMARK   13  A    between atoms: O_14  and  C_15
REMARK   14  A    between atoms: C_15  and  N_16
REMARK   15  A    between atoms: C_24  and  O_25
REMARK   16  A    between atoms: O_25  and  C_26
REMARK   17  A    between atoms: C_26  and  C_27
REMARK   18  A    between atoms: C_27  and  C_28
REMARK   19  A    between atoms: C_28  and  C_29
REMARK   20  A    between atoms: C_29  and  N_30
REMARK   21  A    between atoms: N_33  and  C_36
REMARK                            x       y       z     vdW  Elec       q    Type
REMARK                         _______ _______ _______ _____ _____    ______ ____
ROOT
ATOM      1  N   UNL     1      -7.917   2.706 130.415  0.00  0.00    +0.000 N 
ATOM      2  C   UNL     1      -8.086   2.402 131.758  0.00  0.00    +0.000 C 
ATOM      3  O   UNL     1      -9.193   2.280 132.289  0.00  0.00    +0.000 OA
ATOM      4  C   UNL     1      -6.826   2.335 132.595  0.00  0.00    +0.000 C 
ATOM      5  C   UNL     1      -5.696   1.650 131.852  0.00  0.00    +0.000 C 
ATOM      6  C   UNL     1      -5.504   2.301 130.514  0.00  0.00    +0.000 A 
ATOM      7  C   UNL     1      -4.237   2.355 129.914  0.00  0.00    +0.000 A 
ATOM      8  C   UNL     1      -4.084   2.922 128.648  0.00  0.00    +0.000 A 
ATOM      9  C   UNL     1      -5.187   3.430 127.972  0.00  0.00    +0.000 A 
ATOM     10  C   UNL     1      -6.447   3.359 128.564  0.00  0.00    +0.000 A 
ATOM     11  C   UNL     1      -6.622   2.794 129.827  0.00  0.00    +0.000 A 
ENDROOT
BRANCH   1  12
ATOM     12  C   UNL     1      -9.110   2.909 129.597  0.00  0.00    +0.000 C 
BRANCH  12  13
ATOM     13  O   UNL     1      -9.421   4.309 129.551  0.00  0.00    +0.000 OA
BRANCH  13  14
ATOM     14  C   UNL     1     -10.627   4.590 130.122  0.00  0.00    +0.000 C 
ATOM     15  O   UNL     1     -11.544   3.792 130.216  0.00  0.00    +0.000 OA
BRANCH  14  16
ATOM     16  C   UNL     1     -10.687   6.031 130.594  0.00  0.00    +0.000 C 
BRANCH  16  17
ATOM     17  C   UNL     1     -10.240   6.126 132.054  0.00  0.00    +0.000 C 
BRANCH  17  18
ATOM     18  C   UNL     1      -8.724   6.073 132.204  0.00  0.00    +0.000 C 
BRANCH  18  19
ATOM     19  C   UNL     1      -8.057   6.950 131.150  0.00  0.00    +0.000 C 
BRANCH  19  20
ATOM     20  C   UNL     1      -6.587   6.587 131.006  0.00  0.00    +0.000 C 
BRANCH  20  21
ATOM     21  C   UNL     1      -6.111   5.807 132.221  0.00  0.00    +0.000 C 
BRANCH  21  22
ATOM     22  C   UNL     1      -4.622   5.521 132.111  0.00  0.00    +0.000 C 
BRANCH  22  23
ATOM     23  C   UNL     1      -4.091   6.011 130.774  0.00  0.00    +0.000 C 
BRANCH  23  24
ATOM     24  C   UNL     1      -2.623   5.640 130.624  0.00  0.00    +0.000 C 
BRANCH  24  26
ATOM     25  C   UNL     1      -2.597   6.232 128.198  0.00  0.00    +0.000 C 
ATOM     26  C   UNL     1      -1.962   6.494 129.550  0.00  0.00    +0.000 C 
ENDBRANCH  24  26
ENDBRANCH  23  24
ENDBRANCH  22  23
ENDBRANCH  21  22
ENDBRANCH  20  21
ENDBRANCH  19  20
ENDBRANCH  18  19
ENDBRANCH  17  18
ENDBRANCH  16  17
ENDBRANCH  14  16
ENDBRANCH  13  14
ENDBRANCH  12  13
ENDBRANCH   1  12
BRANCH   9  27
ATOM     27  O   UNL     1      -4.932   3.977 126.746  0.00  0.00    +0.000 OA
BRANCH  27  28
ATOM     28  C   UNL     1      -6.081   4.280 125.967  0.00  0.00    +0.000 C 
BRANCH  28  29
ATOM     29  C   UNL     1      -5.644   4.471 124.524  0.00  0.00    +0.000 C 
BRANCH  29  30
ATOM     30  C   UNL     1      -6.338   3.420 123.696  0.00  0.00    +0.000 C 
BRANCH  30  31
ATOM     31  C   UNL     1      -7.745   3.078 124.188  0.00  0.00    +0.000 C 
BRANCH  31  32
ATOM     32  N   UNL     1      -8.142   1.669 124.009  0.00  0.00    +0.000 NA
ATOM     33  C   UNL     1      -6.999   0.740 124.265  0.00  0.00    +0.000 C 
ATOM     34  C   UNL     1      -6.556   0.676 125.758  0.00  0.00    +0.000 C 
ATOM     35  N   UNL     1      -7.722   0.329 126.573  0.00  0.00    +0.000 N 
ATOM     36  C   UNL     1      -8.890   1.174 126.397  0.00  0.00    +0.000 C 
ATOM     37  C   UNL     1      -9.259   1.245 124.889  0.00  0.00    +0.000 C 
BRANCH  35  38
ATOM     38  C   UNL     1      -7.754  -0.693 127.489  0.00  0.00    +0.000 A 
ATOM     39  C   UNL     1      -8.333  -1.958 127.209  0.00  0.00    +0.000 A 
ATOM     40 CL   UNL     1      -8.984  -2.325 125.636  0.00  0.00    +0.000 Cl
ATOM     41  C   UNL     1      -8.330  -2.965 128.179  0.00  0.00    +0.000 A 
ATOM     42 CL   UNL     1      -9.002  -4.534 127.887  0.00  0.00    +0.000 Cl
ATOM     43  C   UNL     1      -7.755  -2.733 129.426  0.00  0.00    +0.000 A 
ATOM     44  C   UNL     1      -7.202  -1.491 129.724  0.00  0.00    +0.000 A 
ATOM     45  C   UNL     1      -7.208  -0.480 128.765  0.00  0.00    +0.000 A 
ENDBRANCH  35  38
ENDBRANCH  31  32
ENDBRANCH  30  31
ENDBRANCH  29  30
ENDBRANCH  28  29
ENDBRANCH  27  28
ENDBRANCH   9  27
TORSDOF 20
ENDMDL
MODEL 5
REMARK VINA RESULT:      -7.7      2.568      5.660
REMARK  Name = Aripiprazole lauroxil
REMARK  21 active torsions:
REMARK  status: ('A' for Active; 'I' for Inactive)
REMARK    1  A    between atoms: C_1  and  C_2
REMARK    2  A    between atoms: C_2  and  C_3
REMARK    3  A    between atoms: C_3  and  C_4
REMARK    4  A    between atoms: C_4  and  C_5
REMARK    5  A    between atoms: C_5  and  C_6
REMARK    6  A    between atoms: C_6  and  C_7
REMARK    7  A    between atoms: C_7  and  C_8
REMARK    8  A    between atoms: C_8  and  C_9
REMARK    9  A    between atoms: C_9  and  C_10
REMARK   10  A    between atoms: C_10  and  C_11
REMARK   11  A    between atoms: C_11  and  C_12
REMARK   12  A    between atoms: C_12  and  O_14
REMARK   13  A    between atoms: O_14  and  C_15
REMARK   14  A    between atoms: C_15  and  N_16
REMARK   15  A    between atoms: C_24  and  O_25
REMARK   16  A    between atoms: O_25  and  C_26
REMARK   17  A    between atoms: C_26  and  C_27
REMARK   18  A    between atoms: C_27  and  C_28
REMARK   19  A    between atoms: C_28  and  C_29
REMARK   20  A    between atoms: C_29  and  N_30
REMARK   21  A    between atoms: N_33  and  C_36
REMARK                            x       y       z     vdW  Elec       q    Type
REMARK                         _______ _______ _______ _____ _____    ______ ____
ROOT
ATOM      1  N   UNL     1      -5.362   1.907 127.418  0.00  0.00    +0.000 N 
ATOM      2  C   UNL     1      -4.596   2.802 126.686  0.00  0.00    +0.000 C 
ATOM      3  O   UNL     1      -4.805   3.054 125.496  0.00  0.00    +0.000 OA
ATOM      4  C   UNL     1      -3.392   3.389 127.391  0.00  0.00    +0.000 C 
ATOM      5  C   UNL     1      -3.703   3.740 128.832  0.00  0.00    +0.000 C 
ATOM      6  C   UNL     1      -4.293   2.547 129.525  0.00  0.00    +0.000 A 
ATOM      7  C   UNL     1      -4.089   2.337 130.897  0.00  0.00    +0.000 A 
ATOM      8  C   UNL     1      -4.683   1.248 131.537  0.00  0.00    +0.000 A 
ATOM      9  C   UNL     1      -5.488   0.371 130.819  0.00  0.00    +0.000 A 
ATOM     10  C   UNL     1      -5.702   0.592 129.460  0.00  0.00    +0.000 A 
ATOM     11  C   UNL     1      -5.119   1.675 128.802  0.00  0.00    +0.000 A 
ENDROOT
BRANCH   1  12
ATOM     12  C   UNL     1      -6.457   1.217 126.739  0.00  0.00    +0.000 C 
BRANCH  12  13
ATOM     13  O   UNL     1      -7.581   2.101 126.635  0.00  0.00    +0.000 OA
BRANCH  13  14
ATOM     14  C   UNL     1      -8.270   1.926 125.471  0.00  0.00    +0.000 C 
ATOM     15  O   UNL     1      -9.264   2.561 125.160  0.00  0.00    +0.000 OA
BRANCH  14  16
ATOM     16  C   UNL     1      -7.657   0.820 124.631  0.00  0.00    +0.000 C 
BRANCH  16  17
ATOM     17  C   UNL     1      -8.350   0.747 123.270  0.00  0.00    +0.000 C 
BRANCH  17  18
ATOM     18  C   UNL     1      -9.257  -0.471 123.141  0.00  0.00    +0.000 C 
BRANCH  18  19
ATOM     19  C   UNL     1      -8.423  -1.732 122.933  0.00  0.00    +0.000 C 
BRANCH  19  20
ATOM     20  C   UNL     1      -9.217  -2.967 123.328  0.00  0.00    +0.000 C 
BRANCH  20  21
ATOM     21  C   UNL     1      -8.484  -3.747 124.408  0.00  0.00    +0.000 C 
BRANCH  21  22
ATOM     22  C   UNL     1      -7.587  -2.816 125.209  0.00  0.00    +0.000 C 
BRANCH  22  23
ATOM     23  C   UNL     1      -8.312  -2.330 126.454  0.00  0.00    +0.000 C 
BRANCH  23  24
ATOM     24  C   UNL     1      -7.391  -2.405 127.662  0.00  0.00    +0.000 C 
BRANCH  24  26
ATOM     25  C   UNL     1      -9.129  -4.058 128.354  0.00  0.00    +0.000 C 
ATOM     26  C   UNL     1      -8.106  -3.051 128.841  0.00  0.00    +0.000 C 
ENDBRANCH  24  26
ENDBRANCH  23  24
ENDBRANCH  22  23
ENDBRANCH  21  22
ENDBRANCH  20  21
ENDBRANCH  19  20
ENDBRANCH  18  19
ENDBRANCH  17  18
ENDBRANCH  16  17
ENDBRANCH  14  16
ENDBRANCH  13  14
ENDBRANCH  12  13
ENDBRANCH   1  12
BRANCH   9  27
ATOM     27  O   UNL     1      -6.012  -0.671 131.532  0.00  0.00    +0.000 OA
BRANCH  27  28
ATOM     28  C   UNL     1      -7.042  -0.321 132.446  0.00  0.00    +0.000 C 
BRANCH  28  29
ATOM     29  C   UNL     1      -8.375  -0.735 131.844  0.00  0.00    +0.000 C 
BRANCH  29  30
ATOM     30  C   UNL     1      -9.243   0.496 131.773  0.00  0.00    +0.000 C 
BRANCH  30  31
ATOM     31  C   UNL     1      -8.547   1.768 132.258  0.00  0.00    +0.000 C 
BRANCH  31  32
ATOM     32  N   UNL     1      -8.211   2.736 131.198  0.00  0.00    +0.000 NA
ATOM     33  C   UNL     1      -9.270   2.787 130.144  0.00  0.00    +0.000 C 
ATOM     34  C   UNL     1     -10.613   3.415 130.623  0.00  0.00    +0.000 C 
ATOM     35  N   UNL     1     -10.334   4.746 131.168  0.00  0.00    +0.000 N 
ATOM     36  C   UNL     1      -9.315   4.805 132.201  0.00  0.00    +0.000 C 
ATOM     37  C   UNL     1      -8.015   4.122 131.692  0.00  0.00    +0.000 C 
BRANCH  35  38
ATOM     38  C   UNL     1     -10.989   5.892 130.791  0.00  0.00    +0.000 A 
ATOM     39  C   UNL     1     -10.673   6.602 129.604  0.00  0.00    +0.000 A 
ATOM     40 CL   UNL     1      -9.467   6.014 128.493  0.00  0.00    +0.000 Cl
ATOM     41  C   UNL     1     -11.379   7.760 129.266  0.00  0.00    +0.000 A 
ATOM     42 CL   UNL     1     -11.054   8.655 127.820  0.00  0.00    +0.000 Cl
ATOM     43  C   UNL     1     -12.400   8.224 130.094  0.00  0.00    +0.000 A 
ATOM     44  C   UNL     1     -12.707   7.551 131.273  0.00  0.00    +0.000 A 
ATOM     45  C   UNL     1     -12.002   6.400 131.619  0.00  0.00    +0.000 A 
ENDBRANCH  35  38
ENDBRANCH  31  32
ENDBRANCH  30  31
ENDBRANCH  29  30
ENDBRANCH  28  29
ENDBRANCH  27  28
ENDBRANCH   9  27
TORSDOF 20
ENDMDL
MODEL 6
REMARK VINA RESULT:      -7.6      2.097      6.167
REMARK  Name = Aripiprazole lauroxil
REMARK  21 active torsions:
REMARK  status: ('A' for Active; 'I' for Inactive)
REMARK    1  A    between atoms: C_1  and  C_2
REMARK    2  A    between atoms: C_2  and  C_3
REMARK    3  A    between atoms: C_3  and  C_4
REMARK    4  A    between atoms: C_4  and  C_5
REMARK    5  A    between atoms: C_5  and  C_6
REMARK    6  A    between atoms: C_6  and  C_7
REMARK    7  A    between atoms: C_7  and  C_8
REMARK    8  A    between atoms: C_8  and  C_9
REMARK    9  A    between atoms: C_9  and  C_10
REMARK   10  A    between atoms: C_10  and  C_11
REMARK   11  A    between atoms: C_11  and  C_12
REMARK   12  A    between atoms: C_12  and  O_14
REMARK   13  A    between atoms: O_14  and  C_15
REMARK   14  A    between atoms: C_15  and  N_16
REMARK   15  A    between atoms: C_24  and  O_25
REMARK   16  A    between atoms: O_25  and  C_26
REMARK   17  A    between atoms: C_26  and  C_27
REMARK   18  A    between atoms: C_27  and  C_28
REMARK   19  A    between atoms: C_28  and  C_29
REMARK   20  A    between atoms: C_29  and  N_30
REMARK   21  A    between atoms: N_33  and  C_36
REMARK                            x       y       z     vdW  Elec       q    Type
REMARK                         _______ _______ _______ _____ _____    ______ ____
ROOT
ATOM      1  N   UNL     1      -7.814   2.437 124.077  0.00  0.00    +0.000 N 
ATOM      2  C   UNL     1      -7.756   3.071 122.844  0.00  0.00    +0.000 C 
ATOM      3  O   UNL     1      -8.708   3.112 122.060  0.00  0.00    +0.000 OA
ATOM      4  C   UNL     1      -6.408   3.630 122.439  0.00  0.00    +0.000 C 
ATOM      5  C   UNL     1      -5.702   4.290 123.607  0.00  0.00    +0.000 C 
ATOM      6  C   UNL     1      -5.644   3.337 124.764  0.00  0.00    +0.000 A 
ATOM      7  C   UNL     1      -4.576   3.373 125.674  0.00  0.00    +0.000 A 
ATOM      8  C   UNL     1      -4.560   2.512 126.772  0.00  0.00    +0.000 A 
ATOM      9  C   UNL     1      -5.606   1.618 126.974  0.00  0.00    +0.000 A 
ATOM     10  C   UNL     1      -6.672   1.597 126.078  0.00  0.00    +0.000 A 
ATOM     11  C   UNL     1      -6.709   2.450 124.975  0.00  0.00    +0.000 A 
ENDROOT
BRANCH   1  12
ATOM     12  C   UNL     1      -9.058   1.770 124.453  0.00  0.00    +0.000 C 
BRANCH  12  13
ATOM     13  O   UNL     1      -8.844   0.352 124.489  0.00  0.00    +0.000 OA
BRANCH  13  14
ATOM     14  C   UNL     1      -9.237  -0.260 123.336  0.00  0.00    +0.000 C 
ATOM     15  O   UNL     1     -10.238   0.038 122.708  0.00  0.00    +0.000 OA
BRANCH  14  16
ATOM     16  C   UNL     1      -8.284  -1.380 122.958  0.00  0.00    +0.000 C 
BRANCH  16  17
ATOM     17  C   UNL     1      -9.047  -2.700 122.831  0.00  0.00    +0.000 C 
BRANCH  17  18
ATOM     18  C   UNL     1      -9.285  -3.367 124.180  0.00  0.00    +0.000 C 
BRANCH  18  19
ATOM     19  C   UNL     1      -8.040  -3.255 125.054  0.00  0.00    +0.000 C 
BRANCH  19  20
ATOM     20  C   UNL     1      -8.427  -3.006 126.504  0.00  0.00    +0.000 C 
BRANCH  20  21
ATOM     21  C   UNL     1      -7.608  -1.863 127.083  0.00  0.00    +0.000 C 
BRANCH  21  22
ATOM     22  C   UNL     1      -6.662  -2.385 128.152  0.00  0.00    +0.000 C 
BRANCH  22  23
ATOM     23  C   UNL     1      -7.399  -3.323 129.094  0.00  0.00    +0.000 C 
BRANCH  23  24
ATOM     24  C   UNL     1      -7.777  -2.592 130.373  0.00  0.00    +0.000 C 
BRANCH  24  26
ATOM     25  C   UNL     1      -5.969  -4.156 131.091  0.00  0.00    +0.000 C 
ATOM     26  C   UNL     1      -6.865  -3.010 131.519  0.00  0.00    +0.000 C 
ENDBRANCH  24  26
ENDBRANCH  23  24
ENDBRANCH  22  23
ENDBRANCH  21  22
ENDBRANCH  20  21
ENDBRANCH  19  20
ENDBRANCH  18  19
ENDBRANCH  17  18
ENDBRANCH  16  17
ENDBRANCH  14  16
ENDBRANCH  13  14
ENDBRANCH  12  13
ENDBRANCH   1  12
BRANCH   9  27
ATOM     27  O   UNL     1      -5.490   0.807 128.068  0.00  0.00    +0.000 OA
BRANCH  27  28
ATOM     28  C   UNL     1      -4.705   1.333 129.129  0.00  0.00    +0.000 C 
BRANCH  28  29
ATOM     29  C   UNL     1      -5.340   0.916 130.446  0.00  0.00    +0.000 C 
BRANCH  29  30
ATOM     30  C   UNL     1      -6.782   1.354 130.414  0.00  0.00    +0.000 C 
BRANCH  30  31
ATOM     31  C   UNL     1      -6.968   2.867 130.548  0.00  0.00    +0.000 C 
BRANCH  31  32
ATOM     32  N   UNL     1      -7.849   3.289 131.652  0.00  0.00    +0.000 NA
ATOM     33  C   UNL     1      -7.708   4.749 131.940  0.00  0.00    +0.000 C 
ATOM     34  C   UNL     1      -8.269   5.675 130.819  0.00  0.00    +0.000 C 
ATOM     35  N   UNL     1      -9.666   5.309 130.572  0.00  0.00    +0.000 N 
ATOM     36  C   UNL     1      -9.911   3.908 130.284  0.00  0.00    +0.000 C 
ATOM     37  C   UNL     1      -9.289   3.028 131.404  0.00  0.00    +0.000 C 
BRANCH  35  38
ATOM     38  C   UNL     1     -10.712   6.199 130.564  0.00  0.00    +0.000 A 
ATOM     39  C   UNL     1     -11.033   6.997 129.436  0.00  0.00    +0.000 A 
ATOM     40 CL   UNL     1     -10.155   6.842 127.940  0.00  0.00    +0.000 Cl
ATOM     41  C   UNL     1     -12.116   7.881 129.484  0.00  0.00    +0.000 A 
ATOM     42 CL   UNL     1     -12.569   8.863 128.131  0.00  0.00    +0.000 Cl
ATOM     43  C   UNL     1     -12.887   7.981 130.639  0.00  0.00    +0.000 A 
ATOM     44  C   UNL     1     -12.571   7.222 131.762  0.00  0.00    +0.000 A 
ATOM     45  C   UNL     1     -11.489   6.344 131.724  0.00  0.00    +0.000 A 
ENDBRANCH  35  38
ENDBRANCH  31  32
ENDBRANCH  30  31
ENDBRANCH  29  30
ENDBRANCH  28  29
ENDBRANCH  27  28
ENDBRANCH   9  27
TORSDOF 20
ENDMDL
MODEL 7
REMARK VINA RESULT:      -7.6      3.974      7.989
REMARK  Name = Aripiprazole lauroxil
REMARK  21 active torsions:
REMARK  status: ('A' for Active; 'I' for Inactive)
REMARK    1  A    between atoms: C_1  and  C_2
REMARK    2  A    between atoms: C_2  and  C_3
REMARK    3  A    between atoms: C_3  and  C_4
REMARK    4  A    between atoms: C_4  and  C_5
REMARK    5  A    between atoms: C_5  and  C_6
REMARK    6  A    between atoms: C_6  and  C_7
REMARK    7  A    between atoms: C_7  and  C_8
REMARK    8  A    between atoms: C_8  and  C_9
REMARK    9  A    between atoms: C_9  and  C_10
REMARK   10  A    between atoms: C_10  and  C_11
REMARK   11  A    between atoms: C_11  and  C_12
REMARK   12  A    between atoms: C_12  and  O_14
REMARK   13  A    between atoms: O_14  and  C_15
REMARK   14  A    between atoms: C_15  and  N_16
REMARK   15  A    between atoms: C_24  and  O_25
REMARK   16  A    between atoms: O_25  and  C_26
REMARK   17  A    between atoms: C_26  and  C_27
REMARK   18  A    between atoms: C_27  and  C_28
REMARK   19  A    between atoms: C_28  and  C_29
REMARK   20  A    between atoms: C_29  and  N_30
REMARK   21  A    between atoms: N_33  and  C_36
REMARK                            x       y       z     vdW  Elec       q    Type
REMARK                         _______ _______ _______ _____ _____    ______ ____
ROOT
ATOM      1  N   UNL     1      -6.868   2.526 132.119  0.00  0.00    +0.000 N 
ATOM      2  C   UNL     1      -7.892   1.878 132.794  0.00  0.00    +0.000 C 
ATOM      3  O   UNL     1      -7.865   0.676 133.069  0.00  0.00    +0.000 OA
ATOM      4  C   UNL     1      -9.127   2.702 133.090  0.00  0.00    +0.000 C 
ATOM      5  C   UNL     1      -8.771   4.108 133.529  0.00  0.00    +0.000 C 
ATOM      6  C   UNL     1      -7.850   4.732 132.522  0.00  0.00    +0.000 A 
ATOM      7  C   UNL     1      -7.865   6.116 132.292  0.00  0.00    +0.000 A 
ATOM      8  C   UNL     1      -6.970   6.687 131.386  0.00  0.00    +0.000 A 
ATOM      9  C   UNL     1      -6.053   5.887 130.712  0.00  0.00    +0.000 A 
ATOM     10  C   UNL     1      -6.030   4.516 130.956  0.00  0.00    +0.000 A 
ATOM     11  C   UNL     1      -6.914   3.925 131.859  0.00  0.00    +0.000 A 
ENDROOT
BRANCH   1  12
ATOM     12  C   UNL     1      -5.712   1.738 131.697  0.00  0.00    +0.000 C 
BRANCH  12  13
ATOM     13  O   UNL     1      -5.978   1.155 130.413  0.00  0.00    +0.000 OA
BRANCH  13  14
ATOM     14  C   UNL     1      -5.179   0.080 130.158  0.00  0.00    +0.000 C 
ATOM     15  O   UNL     1      -3.961   0.122 130.130  0.00  0.00    +0.000 OA
BRANCH  14  16
ATOM     16  C   UNL     1      -6.005  -1.163 129.883  0.00  0.00    +0.000 C 
BRANCH  16  17
ATOM     17  C   UNL     1      -5.285  -2.060 128.874  0.00  0.00    +0.000 C 
BRANCH  17  18
ATOM     18  C   UNL     1      -5.970  -2.073 127.512  0.00  0.00    +0.000 C 
BRANCH  18  19
ATOM     19  C   UNL     1      -7.485  -2.031 127.681  0.00  0.00    +0.000 C 
BRANCH  19  20
ATOM     20  C   UNL     1      -8.033  -3.427 127.935  0.00  0.00    +0.000 C 
BRANCH  20  21
ATOM     21  C   UNL     1      -9.233  -3.697 127.042  0.00  0.00    +0.000 C 
BRANCH  21  22
ATOM     22  C   UNL     1      -9.327  -2.638 125.956  0.00  0.00    +0.000 C 
BRANCH  22  23
ATOM     23  C   UNL     1      -8.894  -3.217 124.618  0.00  0.00    +0.000 C 
BRANCH  23  24
ATOM     24  C   UNL     1      -8.910  -2.137 123.548  0.00  0.00    +0.000 C 
BRANCH  24  26
ATOM     25  C   UNL     1      -6.616  -1.240 123.957  0.00  0.00    +0.000 C 
ATOM     26  C   UNL     1      -7.518  -1.943 122.961  0.00  0.00    +0.000 C 
ENDBRANCH  24  26
ENDBRANCH  23  24
ENDBRANCH  22  23
ENDBRANCH  21  22
ENDBRANCH  20  21
ENDBRANCH  19  20
ENDBRANCH  18  19
ENDBRANCH  17  18
ENDBRANCH  16  17
ENDBRANCH  14  16
ENDBRANCH  13  14
ENDBRANCH  12  13
ENDBRANCH   1  12
BRANCH   9  27
ATOM     27  O   UNL     1      -5.230   6.538 129.836  0.00  0.00    +0.000 OA
BRANCH  27  28
ATOM     28  C   UNL     1      -4.014   7.020 130.393  0.00  0.00    +0.000 C 
BRANCH  28  29
ATOM     29  C   UNL     1      -2.972   5.918 130.292  0.00  0.00    +0.000 C 
BRANCH  29  30
ATOM     30  C   UNL     1      -2.619   5.758 128.835  0.00  0.00    +0.000 C 
BRANCH  30  31
ATOM     31  C   UNL     1      -2.883   4.354 128.288  0.00  0.00    +0.000 C 
BRANCH  31  32
ATOM     32  N   UNL     1      -3.348   4.308 126.890  0.00  0.00    +0.000 NA
ATOM     33  C   UNL     1      -3.458   2.902 126.394  0.00  0.00    +0.000 C 
ATOM     34  C   UNL     1      -4.607   2.084 127.056  0.00  0.00    +0.000 C 
ATOM     35  N   UNL     1      -5.863   2.816 126.875  0.00  0.00    +0.000 N 
ATOM     36  C   UNL     1      -5.859   4.197 127.325  0.00  0.00    +0.000 C 
ATOM     37  C   UNL     1      -4.667   4.954 126.676  0.00  0.00    +0.000 C 
BRANCH  35  38
ATOM     38  C   UNL     1      -7.011   2.273 126.353  0.00  0.00    +0.000 A 
ATOM     39  C   UNL     1      -7.368   2.399 124.986  0.00  0.00    +0.000 A 
ATOM     40 CL   UNL     1      -6.318   3.197 123.848  0.00  0.00    +0.000 Cl
ATOM     41  C   UNL     1      -8.547   1.817 124.509  0.00  0.00    +0.000 A 
ATOM     42 CL   UNL     1      -9.022   1.918 122.847  0.00  0.00    +0.000 Cl
ATOM     43  C   UNL     1      -9.377   1.109 125.374  0.00  0.00    +0.000 A 
ATOM     44  C   UNL     1      -9.052   0.996 126.723  0.00  0.00    +0.000 A 
ATOM     45  C   UNL     1      -7.882   1.578 127.207  0.00  0.00    +0.000 A 
ENDBRANCH  35  38
ENDBRANCH  31  32
ENDBRANCH  30  31
ENDBRANCH  29  30
ENDBRANCH  28  29
ENDBRANCH  27  28
ENDBRANCH   9  27
TORSDOF 20
ENDMDL
MODEL 8
REMARK VINA RESULT:      -7.5      3.771      8.305
REMARK  Name = Aripiprazole lauroxil
REMARK  21 active torsions:
REMARK  status: ('A' for Active; 'I' for Inactive)
REMARK    1  A    between atoms: C_1  and  C_2
REMARK    2  A    between atoms: C_2  and  C_3
REMARK    3  A    between atoms: C_3  and  C_4
REMARK    4  A    between atoms: C_4  and  C_5
REMARK    5  A    between atoms: C_5  and  C_6
REMARK    6  A    between atoms: C_6  and  C_7
REMARK    7  A    between atoms: C_7  and  C_8
REMARK    8  A    between atoms: C_8  and  C_9
REMARK    9  A    between atoms: C_9  and  C_10
REMARK   10  A    between atoms: C_10  and  C_11
REMARK   11  A    between atoms: C_11  and  C_12
REMARK   12  A    between atoms: C_12  and  O_14
REMARK   13  A    between atoms: O_14  and  C_15
REMARK   14  A    between atoms: C_15  and  N_16
REMARK   15  A    between atoms: C_24  and  O_25
REMARK   16  A    between atoms: O_25  and  C_26
REMARK   17  A    between atoms: C_26  and  C_27
REMARK   18  A    between atoms: C_27  and  C_28
REMARK   19  A    between atoms: C_28  and  C_29
REMARK   20  A    between atoms: C_29  and  N_30
REMARK   21  A    between atoms: N_33  and  C_36
REMARK                            x       y       z     vdW  Elec       q    Type
REMARK                         _______ _______ _______ _____ _____    ______ ____
ROOT
ATOM      1  N   UNL     1      -7.072   4.098 126.981  0.00  0.00    +0.000 N 
ATOM      2  C   UNL     1      -7.458   4.009 125.651  0.00  0.00    +0.000 C 
ATOM      3  O   UNL     1      -8.621   4.169 125.273  0.00  0.00    +0.000 OA
ATOM      4  C   UNL     1      -6.387   3.583 124.669  0.00  0.00    +0.000 C 
ATOM      5  C   UNL     1      -5.054   4.237 124.975  0.00  0.00    +0.000 C 
ATOM      6  C   UNL     1      -4.693   3.996 126.412  0.00  0.00    +0.000 A 
ATOM      7  C   UNL     1      -3.352   3.891 126.810  0.00  0.00    +0.000 A 
ATOM      8  C   UNL     1      -3.031   3.714 128.157  0.00  0.00    +0.000 A 
ATOM      9  C   UNL     1      -4.039   3.650 129.112  0.00  0.00    +0.000 A 
ATOM     10  C   UNL     1      -5.369   3.773 128.715  0.00  0.00    +0.000 A 
ATOM     11  C   UNL     1      -5.711   3.952 127.375  0.00  0.00    +0.000 A 
ENDROOT
BRANCH   1  12
ATOM     12  C   UNL     1      -8.100   4.379 127.981  0.00  0.00    +0.000 C 
BRANCH  12  13
ATOM     13  O   UNL     1      -8.706   3.147 128.396  0.00  0.00    +0.000 OA
BRANCH  13  14
ATOM     14  C   UNL     1      -8.971   3.126 129.734  0.00  0.00    +0.000 C 
ATOM     15  O   UNL     1      -8.672   2.208 130.478  0.00  0.00    +0.000 OA
BRANCH  14  16
ATOM     16  C   UNL     1      -9.713   4.378 130.165  0.00  0.00    +0.000 C 
BRANCH  16  17
ATOM     17  C   UNL     1      -9.100   4.937 131.450  0.00  0.00    +0.000 C 
BRANCH  17  18
ATOM     18  C   UNL     1      -9.528   6.374 131.724  0.00  0.00    +0.000 C 
BRANCH  18  19
ATOM     19  C   UNL     1     -10.610   6.801 130.738  0.00  0.00    +0.000 C 
BRANCH  19  20
ATOM     20  C   UNL     1     -11.970   6.833 131.419  0.00  0.00    +0.000 C 
BRANCH  20  21
ATOM     21  C   UNL     1     -13.036   7.322 130.453  0.00  0.00    +0.000 C 
BRANCH  21  22
ATOM     22  C   UNL     1     -12.732   8.745 130.012  0.00  0.00    +0.000 C 
BRANCH  22  23
ATOM     23  C   UNL     1     -12.858   8.865 128.501  0.00  0.00    +0.000 C 
BRANCH  23  24
ATOM     24  C   UNL     1     -13.275   7.531 127.901  0.00  0.00    +0.000 C 
BRANCH  24  26
ATOM     25  C   UNL     1     -10.947   7.692 127.013  0.00  0.00    +0.000 C 
ATOM     26  C   UNL     1     -12.336   7.137 126.768  0.00  0.00    +0.000 C 
ENDBRANCH  24  26
ENDBRANCH  23  24
ENDBRANCH  22  23
ENDBRANCH  21  22
ENDBRANCH  20  21
ENDBRANCH  19  20
ENDBRANCH  18  19
ENDBRANCH  17  18
ENDBRANCH  16  17
ENDBRANCH  14  16
ENDBRANCH  13  14
ENDBRANCH  12  13
ENDBRANCH   1  12
BRANCH   9  27
ATOM     27  O   UNL     1      -3.624   3.461 130.401  0.00  0.00    +0.000 OA
BRANCH  27  28
ATOM     28  C   UNL     1      -4.540   3.887 131.399  0.00  0.00    +0.000 C 
BRANCH  28  29
ATOM     29  C   UNL     1      -4.921   2.682 132.244  0.00  0.00    +0.000 C 
BRANCH  29  30
ATOM     30  C   UNL     1      -3.825   1.657 132.093  0.00  0.00    +0.000 C 
BRANCH  30  31
ATOM     31  C   UNL     1      -4.324   0.285 131.637  0.00  0.00    +0.000 C 
BRANCH  31  32
ATOM     32  N   UNL     1      -4.118  -0.010 130.208  0.00  0.00    +0.000 NA
ATOM     33  C   UNL     1      -3.999  -1.479 129.961  0.00  0.00    +0.000 C 
ATOM     34  C   UNL     1      -5.324  -2.269 130.179  0.00  0.00    +0.000 C 
ATOM     35  N   UNL     1      -6.365  -1.667 129.342  0.00  0.00    +0.000 N 
ATOM     36  C   UNL     1      -6.560  -0.238 129.505  0.00  0.00    +0.000 C 
ATOM     37  C   UNL     1      -5.201   0.497 129.329  0.00  0.00    +0.000 C 
BRANCH  35  38
ATOM     38  C   UNL     1      -7.162  -2.367 128.469  0.00  0.00    +0.000 A 
ATOM     39  C   UNL     1      -6.953  -2.363 127.066  0.00  0.00    +0.000 A 
ATOM     40 CL   UNL     1      -5.606  -1.517 126.356  0.00  0.00    +0.000 Cl
ATOM     41  C   UNL     1      -7.792  -3.101 126.227  0.00  0.00    +0.000 A 
ATOM     42 CL   UNL     1      -7.572  -3.152 124.510  0.00  0.00    +0.000 Cl
ATOM     43  C   UNL     1      -8.838  -3.849 126.764  0.00  0.00    +0.000 A 
ATOM     44  C   UNL     1      -9.069  -3.845 128.136  0.00  0.00    +0.000 A 
ATOM     45  C   UNL     1      -8.241  -3.106 128.979  0.00  0.00    +0.000 A 
ENDBRANCH  35  38
ENDBRANCH  31  32
ENDBRANCH  30  31
ENDBRANCH  29  30
ENDBRANCH  28  29
ENDBRANCH  27  28
ENDBRANCH   9  27
TORSDOF 20
ENDMDL
MODEL 9
REMARK VINA RESULT:      -7.5      3.565      8.250
REMARK  Name = Aripiprazole lauroxil
REMARK  21 active torsions:
REMARK  status: ('A' for Active; 'I' for Inactive)
REMARK    1  A    between atoms: C_1  and  C_2
REMARK    2  A    between atoms: C_2  and  C_3
REMARK    3  A    between atoms: C_3  and  C_4
REMARK    4  A    between atoms: C_4  and  C_5
REMARK    5  A    between atoms: C_5  and  C_6
REMARK    6  A    between atoms: C_6  and  C_7
REMARK    7  A    between atoms: C_7  and  C_8
REMARK    8  A    between atoms: C_8  and  C_9
REMARK    9  A    between atoms: C_9  and  C_10
REMARK   10  A    between atoms: C_10  and  C_11
REMARK   11  A    between atoms: C_11  and  C_12
REMARK   12  A    between atoms: C_12  and  O_14
REMARK   13  A    between atoms: O_14  and  C_15
REMARK   14  A    between atoms: C_15  and  N_16
REMARK   15  A    between atoms: C_24  and  O_25
REMARK   16  A    between atoms: O_25  and  C_26
REMARK   17  A    between atoms: C_26  and  C_27
REMARK   18  A    between atoms: C_27  and  C_28
REMARK   19  A    between atoms: C_28  and  C_29
REMARK   20  A    between atoms: C_29  and  N_30
REMARK   21  A    between atoms: N_33  and  C_36
REMARK                            x       y       z     vdW  Elec       q    Type
REMARK                         _______ _______ _______ _____ _____    ______ ____
ROOT
ATOM      1  N   UNL     1      -9.027   3.724 130.821  0.00  0.00    +0.000 N 
ATOM      2  C   UNL     1     -10.261   4.149 130.352  0.00  0.00    +0.000 C 
ATOM      3  O   UNL     1     -11.214   3.387 130.170  0.00  0.00    +0.000 OA
ATOM      4  C   UNL     1     -10.362   5.606 129.955  0.00  0.00    +0.000 C 
ATOM      5  C   UNL     1      -9.630   6.505 130.931  0.00  0.00    +0.000 C 
ATOM      6  C   UNL     1      -8.221   6.018 131.105  0.00  0.00    +0.000 A 
ATOM      7  C   UNL     1      -7.178   6.914 131.382  0.00  0.00    +0.000 A 
ATOM      8  C   UNL     1      -5.881   6.439 131.588  0.00  0.00    +0.000 A 
ATOM      9  C   UNL     1      -5.619   5.075 131.527  0.00  0.00    +0.000 A 
ATOM     10  C   UNL     1      -6.661   4.187 131.269  0.00  0.00    +0.000 A 
ATOM     11  C   UNL     1      -7.964   4.640 131.062  0.00  0.00    +0.000 A 
ENDROOT
BRANCH   1  12
ATOM     12  C   UNL     1      -8.845   2.300 131.094  0.00  0.00    +0.000 C 
BRANCH  12  13
ATOM     13  O   UNL     1      -8.399   1.642 129.899  0.00  0.00    +0.000 OA
BRANCH  13  14
ATOM     14  C   UNL     1      -7.516   0.637 130.161  0.00  0.00    +0.000 C 
ATOM     15  O   UNL     1      -6.438   0.797 130.708  0.00  0.00    +0.000 OA
BRANCH  14  16
ATOM     16  C   UNL     1      -8.036  -0.697 129.656  0.00  0.00    +0.000 C 
BRANCH  16  17
ATOM     17  C   UNL     1      -7.067  -1.817 130.035  0.00  0.00    +0.000 C 
BRANCH  17  18
ATOM     18  C   UNL     1      -7.072  -2.960 129.027  0.00  0.00    +0.000 C 
BRANCH  18  19
ATOM     19  C   UNL     1      -8.499  -3.435 128.773  0.00  0.00    +0.000 C 
BRANCH  19  20
ATOM     20  C   UNL     1      -8.687  -3.798 127.307  0.00  0.00    +0.000 C 
BRANCH  20  21
ATOM     21  C   UNL     1      -9.096  -2.573 126.505  0.00  0.00    +0.000 C 
BRANCH  21  22
ATOM     22  C   UNL     1      -8.455  -2.610 125.128  0.00  0.00    +0.000 C 
BRANCH  22  23
ATOM     23  C   UNL     1      -6.944  -2.490 125.249  0.00  0.00    +0.000 C 
BRANCH  23  24
ATOM     24  C   UNL     1      -6.280  -2.853 123.929  0.00  0.00    +0.000 C 
BRANCH  24  26
ATOM     25  C   UNL     1      -4.113  -4.050 123.607  0.00  0.00    +0.000 C 
ATOM     26  C   UNL     1      -5.559  -4.189 124.042  0.00  0.00    +0.000 C 
ENDBRANCH  24  26
ENDBRANCH  23  24
ENDBRANCH  22  23
ENDBRANCH  21  22
ENDBRANCH  20  21
ENDBRANCH  19  20
ENDBRANCH  18  19
ENDBRANCH  17  18
ENDBRANCH  16  17
ENDBRANCH  14  16
ENDBRANCH  13  14
ENDBRANCH  12  13
ENDBRANCH   1  12
BRANCH   9  27
ATOM     27  O   UNL     1      -4.317   4.713 131.728  0.00  0.00    +0.000 OA
BRANCH  27  28
ATOM     28  C   UNL     1      -3.414   5.790 131.937  0.00  0.00    +0.000 C 
BRANCH  28  29
ATOM     29  C   UNL     1      -2.262   5.645 130.955  0.00  0.00    +0.000 C 
BRANCH  29  30
ATOM     30  C   UNL     1      -2.709   6.232 129.640  0.00  0.00    +0.000 C 
BRANCH  30  31
ATOM     31  C   UNL     1      -2.529   5.286 128.452  0.00  0.00    +0.000 C 
BRANCH  31  32
ATOM     32  N   UNL     1      -3.466   4.148 128.414  0.00  0.00    +0.000 NA
ATOM     33  C   UNL     1      -4.863   4.596 128.128  0.00  0.00    +0.000 C 
ATOM     34  C   UNL     1      -5.075   5.128 126.679  0.00  0.00    +0.000 C 
ATOM     35  N   UNL     1      -4.640   4.094 125.737  0.00  0.00    +0.000 N 
ATOM     36  C   UNL     1      -3.293   3.588 125.932  0.00  0.00    +0.000 C 
ATOM     37  C   UNL     1      -3.119   3.119 127.403  0.00  0.00    +0.000 C 
BRANCH  35  38
ATOM     38  C   UNL     1      -5.401   3.621 124.696  0.00  0.00    +0.000 A 
ATOM     39  C   UNL     1      -6.198   2.452 124.796  0.00  0.00    +0.000 A 
ATOM     40 CL   UNL     1      -6.323   1.569 126.292  0.00  0.00    +0.000 Cl
ATOM     41  C   UNL     1      -6.958   2.022 123.704  0.00  0.00    +0.000 A 
ATOM     42 CL   UNL     1      -7.967   0.616 123.774  0.00  0.00    +0.000 Cl
ATOM     43  C   UNL     1      -6.940   2.742 122.512  0.00  0.00    +0.000 A 
ATOM     44  C   UNL     1      -6.146   3.879 122.391  0.00  0.00    +0.000 A 
ATOM     45  C   UNL     1      -5.380   4.310 123.473  0.00  0.00    +0.000 A 
ENDBRANCH  35  38
ENDBRANCH  31  32
ENDBRANCH  30  31
ENDBRANCH  29  30
ENDBRANCH  28  29
ENDBRANCH  27  28
ENDBRANCH   9  27
TORSDOF 20
ENDMDL
