MODEL 1
REMARK VINA RESULT:      -8.3      0.000      0.000
REMARK  Name = Aripiprazole
REMARK  7 active torsions:
REMARK  status: ('A' for Active; 'I' for Inactive)
REMARK    1  A    between atoms: C_6  and  N_7
REMARK    2  A    between atoms: N_10  and  C_11
REMARK    3  A    between atoms: C_11  and  C_12
REMARK    4  A    between atoms: C_12  and  C_13
REMARK    5  A    between atoms: C_13  and  C_14
REMARK    6  A    between atoms: C_14  and  O_15
REMARK    7  A    between atoms: O_15  and  C_16
REMARK                            x       y       z     vdW  Elec       q    Type
REMARK                         _______ _______ _______ _____ _____    ______ ____
ROOT
ATOM      1  C   UNL     1      -8.161   1.397 128.577  0.00  0.00    +0.000 C 
ENDROOT
BRANCH   1   2
ATOM      2  C   UNL     1      -7.987   1.830 127.124  0.00  0.00    +0.000 C 
BRANCH   2   6
ATOM      3  N   UNL     1      -6.706   3.026 124.023  0.00  0.00    +0.000 N 
ATOM      4  C   UNL     1      -6.690   1.597 124.366  0.00  0.00    +0.000 C 
ATOM      5  C   UNL     1      -6.020   1.426 125.763  0.00  0.00    +0.000 C 
ATOM      6  N   UNL     1      -6.612   2.278 126.836  0.00  0.00    +0.000 NA
ATOM      7  C   UNL     1      -6.573   3.690 126.362  0.00  0.00    +0.000 C 
ATOM      8  C   UNL     1      -7.308   3.907 125.023  0.00  0.00    +0.000 C 
BRANCH   3  14
ATOM      9 CL   UNL     1      -7.639   4.248 119.031  0.00  0.00    +0.000 Cl
ATOM     10  C   UNL     1      -6.690   4.190 120.477  0.00  0.00    +0.000 A 
ATOM     11  C   UNL     1      -5.430   4.797 120.430  0.00  0.00    +0.000 A 
ATOM     12  C   UNL     1      -4.613   4.784 121.552  0.00  0.00    +0.000 A 
ATOM     13  C   UNL     1      -5.062   4.167 122.718  0.00  0.00    +0.000 A 
ATOM     14  C   UNL     1      -6.332   3.557 122.806  0.00  0.00    +0.000 A 
ATOM     15  C   UNL     1      -7.149   3.575 121.657  0.00  0.00    +0.000 A 
ATOM     16 CL   UNL     1      -8.766   2.936 121.726  0.00  0.00    +0.000 Cl
ENDBRANCH   3  14
ENDBRANCH   2   6
ENDBRANCH   1   2
BRANCH   1  17
ATOM     17  C   UNL     1      -6.979   0.561 129.047  0.00  0.00    +0.000 C 
BRANCH  17  18
ATOM     18  C   UNL     1      -7.480  -0.657 129.810  0.00  0.00    +0.000 C 
BRANCH  18  19
ATOM     19  O   UNL     1      -6.776  -1.812 129.337  0.00  0.00    +0.000 OA
BRANCH  19  20
ATOM     20  C   UNL     1      -7.239  -2.253 128.126  0.00  0.00    +0.000 A 
ATOM     21  C   UNL     1      -6.577  -1.997 126.926  0.00  0.00    +0.000 A 
ATOM     22  C   UNL     1      -7.140  -2.429 125.729  0.00  0.00    +0.000 A 
ATOM     23  C   UNL     1      -8.338  -3.152 125.713  0.00  0.00    +0.000 A 
ATOM     24  C   UNL     1      -8.877  -3.628 124.392  0.00  0.00    +0.000 C 
ATOM     25  C   UNL     1      -8.564  -2.611 123.303  0.00  0.00    +0.000 C 
ATOM     26  C   UNL     1      -7.094  -2.262 123.297  0.00  0.00    +0.000 C 
ATOM     27  O   UNL     1      -6.480  -1.995 122.262  0.00  0.00    +0.000 OA
ATOM     28  N   UNL     1      -6.498  -2.134 124.522  0.00  0.00    +0.000 N 
ATOM     29  C   UNL     1      -8.950  -3.479 126.927  0.00  0.00    +0.000 A 
ATOM     30  C   UNL     1      -8.398  -3.031 128.131  0.00  0.00    +0.000 A 
ATOM     31  H   UNL     1      -5.553  -1.772 124.522  0.00  0.00    +0.000 HD
ENDBRANCH  19  20
ENDBRANCH  18  19
ENDBRANCH  17  18
ENDBRANCH   1  17
TORSDOF 7
ENDMDL
MODEL 2
REMARK VINA RESULT:      -7.9      5.442      8.351
REMARK  Name = Aripiprazole
REMARK  7 active torsions:
REMARK  status: ('A' for Active; 'I' for Inactive)
REMARK    1  A    between atoms: C_6  and  N_7
REMARK    2  A    between atoms: N_10  and  C_11
REMARK    3  A    between atoms: C_11  and  C_12
REMARK    4  A    between atoms: C_12  and  C_13
REMARK    5  A    between atoms: C_13  and  C_14
REMARK    6  A    between atoms: C_14  and  O_15
REMARK    7  A    between atoms: O_15  and  C_16
REMARK                            x       y       z     vdW  Elec       q    Type
REMARK                         _______ _______ _______ _____ _____    ______ ____
ROOT
ATOM      1  C   UNL     1      -9.133   3.448 133.661  0.00  0.00    +0.000 C 
ENDROOT
BRANCH   1   2
ATOM      2  C   UNL     1      -8.492   2.302 132.883  0.00  0.00    +0.000 C 
BRANCH   2   6
ATOM      3  N   UNL     1      -8.197   2.061 129.342  0.00  0.00    +0.000 N 
ATOM      4  C   UNL     1      -8.849   3.209 129.987  0.00  0.00    +0.000 C 
ATOM      5  C   UNL     1      -9.935   2.680 130.971  0.00  0.00    +0.000 C 
ATOM      6  N   UNL     1      -9.438   1.666 131.948  0.00  0.00    +0.000 NA
ATOM      7  C   UNL     1      -8.800   0.568 131.169  0.00  0.00    +0.000 C 
ATOM      8  C   UNL     1      -7.658   1.050 130.252  0.00  0.00    +0.000 C 
BRANCH   3  14
ATOM      9 CL   UNL     1      -5.450   3.161 125.037  0.00  0.00    +0.000 Cl
ATOM     10  C   UNL     1      -6.705   2.377 125.936  0.00  0.00    +0.000 A 
ATOM     11  C   UNL     1      -7.519   1.482 125.234  0.00  0.00    +0.000 A 
ATOM     12  C   UNL     1      -8.548   0.821 125.890  0.00  0.00    +0.000 A 
ATOM     13  C   UNL     1      -8.757   1.056 127.248  0.00  0.00    +0.000 A 
ATOM     14  C   UNL     1      -7.947   1.942 127.991  0.00  0.00    +0.000 A 
ATOM     15  C   UNL     1      -6.907   2.608 127.309  0.00  0.00    +0.000 A 
ATOM     16 CL   UNL     1      -5.806   3.632 128.186  0.00  0.00    +0.000 Cl
ENDBRANCH   3  14
ENDBRANCH   2   6
ENDBRANCH   1   2
BRANCH   1  17
ATOM     17  C   UNL     1      -8.180   4.628 133.787  0.00  0.00    +0.000 C 
BRANCH  17  18
ATOM     18  C   UNL     1      -8.939   5.930 133.574  0.00  0.00    +0.000 C 
BRANCH  18  19
ATOM     19  O   UNL     1      -8.557   6.479 132.307  0.00  0.00    +0.000 OA
BRANCH  19  20
ATOM     20  C   UNL     1      -9.595   6.521 131.415  0.00  0.00    +0.000 A 
ATOM     21  C   UNL     1      -9.409   6.734 130.050  0.00  0.00    +0.000 A 
ATOM     22  C   UNL     1     -10.519   6.820 129.215  0.00  0.00    +0.000 A 
ATOM     23  C   UNL     1     -11.814   6.655 129.715  0.00  0.00    +0.000 A 
ATOM     24  C   UNL     1     -12.972   6.718 128.756  0.00  0.00    +0.000 C 
ATOM     25  C   UNL     1     -12.684   7.727 127.654  0.00  0.00    +0.000 C 
ATOM     26  C   UNL     1     -11.344   7.454 127.010  0.00  0.00    +0.000 C 
ATOM     27  O   UNL     1     -11.129   7.663 125.814  0.00  0.00    +0.000 OA
ATOM     28  N   UNL     1     -10.334   7.077 127.852  0.00  0.00    +0.000 N 
ATOM     29  C   UNL     1     -11.987   6.355 131.069  0.00  0.00    +0.000 A 
ATOM     30  C   UNL     1     -10.877   6.286 131.917  0.00  0.00    +0.000 A 
ATOM     31  H   UNL     1      -9.410   7.024 127.444  0.00  0.00    +0.000 HD
ENDBRANCH  19  20
ENDBRANCH  18  19
ENDBRANCH  17  18
ENDBRANCH   1  17
TORSDOF 7
ENDMDL
MODEL 3
REMARK VINA RESULT:      -7.9      4.443      6.379
REMARK  Name = Aripiprazole
REMARK  7 active torsions:
REMARK  status: ('A' for Active; 'I' for Inactive)
REMARK    1  A    between atoms: C_6  and  N_7
REMARK    2  A    between atoms: N_10  and  C_11
REMARK    3  A    between atoms: C_11  and  C_12
REMARK    4  A    between atoms: C_12  and  C_13
REMARK    5  A    between atoms: C_13  and  C_14
REMARK    6  A    between atoms: C_14  and  O_15
REMARK    7  A    between atoms: O_15  and  C_16
REMARK                            x       y       z     vdW  Elec       q    Type
REMARK                         _______ _______ _______ _____ _____    ______ ____
ROOT
ATOM      1  C   UNL     1      -9.007   0.487 131.891  0.00  0.00    +0.000 C 
ENDROOT
BRANCH   1   2
ATOM      2  C   UNL     1      -8.603   1.884 132.356  0.00  0.00    +0.000 C 
BRANCH   2   6
ATOM      3  N   UNL     1     -10.276   4.762 131.090  0.00  0.00    +0.000 N 
ATOM      4  C   UNL     1     -10.569   3.414 130.585  0.00  0.00    +0.000 C 
ATOM      5  C   UNL     1      -9.230   2.733 130.172  0.00  0.00    +0.000 C 
ATOM      6  N   UNL     1      -8.181   2.744 131.234  0.00  0.00    +0.000 NA
ATOM      7  C   UNL     1      -7.987   4.158 131.658  0.00  0.00    +0.000 C 
ATOM      8  C   UNL     1      -9.281   4.831 132.159  0.00  0.00    +0.000 C 
BRANCH   3  14
ATOM      9 CL   UNL     1     -11.306   8.685 127.798  0.00  0.00    +0.000 Cl
ATOM     10  C   UNL     1     -11.518   7.760 129.246  0.00  0.00    +0.000 A 
ATOM     11  C   UNL     1     -12.520   8.184 130.125  0.00  0.00    +0.000 A 
ATOM     12  C   UNL     1     -12.742   7.492 131.307  0.00  0.00    +0.000 A 
ATOM     13  C   UNL     1     -11.962   6.375 131.603  0.00  0.00    +0.000 A 
ATOM     14  C   UNL     1     -10.952   5.910 130.734  0.00  0.00    +0.000 A 
ATOM     15  C   UNL     1     -10.736   6.626 129.538  0.00  0.00    +0.000 A 
ATOM     16 CL   UNL     1      -9.581   6.048 128.372  0.00  0.00    +0.000 Cl
ENDBRANCH   3  14
ENDBRANCH   2   6
ENDBRANCH   1   2
BRANCH   1  17
ATOM     17  C   UNL     1      -7.785  -0.370 131.598  0.00  0.00    +0.000 C 
BRANCH  17  18
ATOM     18  C   UNL     1      -8.113  -1.381 130.508  0.00  0.00    +0.000 C 
BRANCH  18  19
ATOM     19  O   UNL     1      -7.007  -1.447 129.600  0.00  0.00    +0.000 OA
BRANCH  19  20
ATOM     20  C   UNL     1      -7.343  -2.018 128.401  0.00  0.00    +0.000 A 
ATOM     21  C   UNL     1      -6.707  -1.691 127.204  0.00  0.00    +0.000 A 
ATOM     22  C   UNL     1      -7.143  -2.272 126.017  0.00  0.00    +0.000 A 
ATOM     23  C   UNL     1      -8.180  -3.210 126.010  0.00  0.00    +0.000 A 
ATOM     24  C   UNL     1      -8.581  -3.835 124.702  0.00  0.00    +0.000 C 
ATOM     25  C   UNL     1      -8.436  -2.823 123.574  0.00  0.00    +0.000 C 
ATOM     26  C   UNL     1      -7.059  -2.201 123.581  0.00  0.00    +0.000 C 
ATOM     27  O   UNL     1      -6.477  -1.865 122.548  0.00  0.00    +0.000 OA
ATOM     28  N   UNL     1      -6.533  -1.910 124.811  0.00  0.00    +0.000 N 
ATOM     29  C   UNL     1      -8.755  -3.597 127.225  0.00  0.00    +0.000 A 
ATOM     30  C   UNL     1      -8.333  -3.002 128.419  0.00  0.00    +0.000 A 
ATOM     31  H   UNL     1      -5.675  -1.375 124.814  0.00  0.00    +0.000 HD
ENDBRANCH  19  20
ENDBRANCH  18  19
ENDBRANCH  17  18
ENDBRANCH   1  17
TORSDOF 7
ENDMDL
MODEL 4
REMARK VINA RESULT:      -7.9      7.339     10.556
REMARK  Name = Aripiprazole
REMARK  7 active torsions:
REMARK  status: ('A' for Active; 'I' for Inactive)
REMARK    1  A    between atoms: C_6  and  N_7
REMARK    2  A    between atoms: N_10  and  C_11
REMARK    3  A    between atoms: C_11  and  C_12
REMARK    4  A    between atoms: C_12  and  C_13
REMARK    5  A    between atoms: C_13  and  C_14
REMARK    6  A    between atoms: C_14  and  O_15
REMARK    7  A    between atoms: O_15  and  C_16
REMARK                            x       y       z     vdW  Elec       q    Type
REMARK                         _______ _______ _______ _____ _____    ______ ____
ROOT
ATOM      1  C   UNL     1      -9.235   2.596 133.054  0.00  0.00    +0.000 C 
ENDROOT
BRANCH   1   2
ATOM      2  C   UNL     1      -7.885   2.179 132.477  0.00  0.00    +0.000 C 
BRANCH   2   6
ATOM      3  N   UNL     1      -6.645  -1.077 131.737  0.00  0.00    +0.000 N 
ATOM      4  C   UNL     1      -5.838   0.128 131.504  0.00  0.00    +0.000 C 
ATOM      5  C   UNL     1      -6.673   1.133 130.655  0.00  0.00    +0.000 C 
ATOM      6  N   UNL     1      -8.025   1.434 131.213  0.00  0.00    +0.000 NA
ATOM      7  C   UNL     1      -8.730   0.136 131.404  0.00  0.00    +0.000 C 
ATOM      8  C   UNL     1      -7.968  -0.847 132.316  0.00  0.00    +0.000 C 
BRANCH   3  14
ATOM      9 CL   UNL     1      -4.247  -5.383 133.468  0.00  0.00    +0.000 Cl
ATOM     10  C   UNL     1      -5.126  -4.437 132.315  0.00  0.00    +0.000 A 
ATOM     11  C   UNL     1      -5.480  -5.069 131.118  0.00  0.00    +0.000 A 
ATOM     12  C   UNL     1      -6.182  -4.369 130.148  0.00  0.00    +0.000 A 
ATOM     13  C   UNL     1      -6.531  -3.040 130.379  0.00  0.00    +0.000 A 
ATOM     14  C   UNL     1      -6.203  -2.374 131.580  0.00  0.00    +0.000 A 
ATOM     15  C   UNL     1      -5.486  -3.098 132.556  0.00  0.00    +0.000 A 
ATOM     16 CL   UNL     1      -5.141  -2.373 134.100  0.00  0.00    +0.000 Cl
ENDBRANCH   3  14
ENDBRANCH   2   6
ENDBRANCH   1   2
BRANCH   1  17
ATOM     17  C   UNL     1      -9.189   4.019 133.589  0.00  0.00    +0.000 C 
BRANCH  17  18
ATOM     18  C   UNL     1      -8.551   4.938 132.556  0.00  0.00    +0.000 C 
BRANCH  18  19
ATOM     19  O   UNL     1      -9.166   6.229 132.654  0.00  0.00    +0.000 OA
BRANCH  19  20
ATOM     20  C   UNL     1     -10.091   6.448 131.668  0.00  0.00    +0.000 A 
ATOM     21  C   UNL     1      -9.749   6.536 130.320  0.00  0.00    +0.000 A 
ATOM     22  C   UNL     1     -10.737   6.819 129.381  0.00  0.00    +0.000 A 
ATOM     23  C   UNL     1     -12.073   6.975 129.764  0.00  0.00    +0.000 A 
ATOM     24  C   UNL     1     -13.104   7.238 128.699  0.00  0.00    +0.000 C 
ATOM     25  C   UNL     1     -12.504   8.094 127.592  0.00  0.00    +0.000 C 
ATOM     26  C   UNL     1     -11.213   7.494 127.087  0.00  0.00    +0.000 C 
ATOM     27  O   UNL     1     -10.857   7.580 125.909  0.00  0.00    +0.000 OA
ATOM     28  N   UNL     1     -10.387   6.951 128.033  0.00  0.00    +0.000 N 
ATOM     29  C   UNL     1     -12.421   6.799 131.107  0.00  0.00    +0.000 A 
ATOM     30  C   UNL     1     -11.429   6.534 132.056  0.00  0.00    +0.000 A 
ATOM     31  H   UNL     1      -9.469   6.671 127.715  0.00  0.00    +0.000 HD
ENDBRANCH  19  20
ENDBRANCH  18  19
ENDBRANCH  17  18
ENDBRANCH   1  17
TORSDOF 7
ENDMDL
MODEL 5
REMARK VINA RESULT:      -7.7      5.115      8.465
REMARK  Name = Aripiprazole
REMARK  7 active torsions:
REMARK  status: ('A' for Active; 'I' for Inactive)
REMARK    1  A    between atoms: C_6  and  N_7
REMARK    2  A    between atoms: N_10  and  C_11
REMARK    3  A    between atoms: C_11  and  C_12
REMARK    4  A    between atoms: C_12  and  C_13
REMARK    5  A    between atoms: C_13  and  C_14
REMARK    6  A    between atoms: C_14  and  O_15
REMARK    7  A    between atoms: O_15  and  C_16
REMARK                            x       y       z     vdW  Elec       q    Type
REMARK                         _______ _______ _______ _____ _____    ______ ____
ROOT
ATOM      1  C   UNL     1      -8.587   2.826 130.538  0.00  0.00    +0.000 C 
ENDROOT
BRANCH   1   2
ATOM      2  C   UNL     1      -8.242   1.347 130.386  0.00  0.00    +0.000 C 
BRANCH   2   6
ATOM      3  N   UNL     1      -7.704  -0.911 127.685  0.00  0.00    +0.000 N 
ATOM      4  C   UNL     1      -7.493  -1.314 129.082  0.00  0.00    +0.000 C 
ATOM      5  C   UNL     1      -6.551  -0.277 129.764  0.00  0.00    +0.000 C 
ATOM      6  N   UNL     1      -6.995   1.142 129.625  0.00  0.00    +0.000 NA
ATOM      7  C   UNL     1      -7.176   1.415 128.172  0.00  0.00    +0.000 C 
ATOM      8  C   UNL     1      -8.174   0.459 127.488  0.00  0.00    +0.000 C 
BRANCH   3  14
ATOM      9 CL   UNL     1      -5.264  -2.778 123.460  0.00  0.00    +0.000 Cl
ATOM     10  C   UNL     1      -6.545  -2.702 124.622  0.00  0.00    +0.000 A 
ATOM     11  C   UNL     1      -7.584  -3.627 124.478  0.00  0.00    +0.000 A 
ATOM     12  C   UNL     1      -8.646  -3.620 125.371  0.00  0.00    +0.000 A 
ATOM     13  C   UNL     1      -8.662  -2.690 126.408  0.00  0.00    +0.000 A 
ATOM     14  C   UNL     1      -7.623  -1.751 126.593  0.00  0.00    +0.000 A 
ATOM     15  C   UNL     1      -6.553  -1.768 125.675  0.00  0.00    +0.000 A 
ATOM     16 CL   UNL     1      -5.191  -0.710 125.905  0.00  0.00    +0.000 Cl
ENDBRANCH   3  14
ENDBRANCH   2   6
ENDBRANCH   1   2
BRANCH   1  17
ATOM     17  C   UNL     1      -7.881   3.434 131.742  0.00  0.00    +0.000 C 
BRANCH  17  18
ATOM     18  C   UNL     1      -7.608   4.910 131.489  0.00  0.00    +0.000 C 
BRANCH  18  19
ATOM     19  O   UNL     1      -8.585   5.683 132.197  0.00  0.00    +0.000 OA
BRANCH  19  20
ATOM     20  C   UNL     1      -9.600   6.119 131.387  0.00  0.00    +0.000 A 
ATOM     21  C   UNL     1      -9.432   6.342 130.021  0.00  0.00    +0.000 A 
ATOM     22  C   UNL     1     -10.496   6.841 129.275  0.00  0.00    +0.000 A 
ATOM     23  C   UNL     1     -11.741   7.083 129.863  0.00  0.00    +0.000 A 
ATOM     24  C   UNL     1     -12.865   7.583 128.997  0.00  0.00    +0.000 C 
ATOM     25  C   UNL     1     -12.320   8.506 127.916  0.00  0.00    +0.000 C 
ATOM     26  C   UNL     1     -11.188   7.846 127.164  0.00  0.00    +0.000 C 
ATOM     27  O   UNL     1     -10.984   8.044 125.964  0.00  0.00    +0.000 OA
ATOM     28  N   UNL     1     -10.314   7.106 127.913  0.00  0.00    +0.000 N 
ATOM     29  C   UNL     1     -11.925   6.775 131.215  0.00  0.00    +0.000 A 
ATOM     30  C   UNL     1     -10.855   6.291 131.973  0.00  0.00    +0.000 A 
ATOM     31  H   UNL     1      -9.486   6.776 127.435  0.00  0.00    +0.000 HD
ENDBRANCH  19  20
ENDBRANCH  18  19
ENDBRANCH  17  18
ENDBRANCH   1  17
TORSDOF 7
ENDMDL
MODEL 6
REMARK VINA RESULT:      -7.7      5.705      8.274
REMARK  Name = Aripiprazole
REMARK  7 active torsions:
REMARK  status: ('A' for Active; 'I' for Inactive)
REMARK    1  A    between atoms: C_6  and  N_7
REMARK    2  A    between atoms: N_10  and  C_11
REMARK    3  A    between atoms: C_11  and  C_12
REMARK    4  A    between atoms: C_12  and  C_13
REMARK    5  A    between atoms: C_13  and  C_14
REMARK    6  A    between atoms: C_14  and  O_15
REMARK    7  A    between atoms: O_15  and  C_16
REMARK                            x       y       z     vdW  Elec       q    Type
REMARK                         _______ _______ _______ _____ _____    ______ ____
ROOT
ATOM      1  C   UNL     1      -9.110   3.268 133.347  0.00  0.00    +0.000 C 
ENDROOT
BRANCH   1   2
ATOM      2  C   UNL     1      -8.798   3.061 131.867  0.00  0.00    +0.000 C 
BRANCH   2   6
ATOM      3  N   UNL     1      -6.653   3.306 129.035  0.00  0.00    +0.000 N 
ATOM      4  C   UNL     1      -7.725   2.306 129.106  0.00  0.00    +0.000 C 
ATOM      5  C   UNL     1      -7.585   1.517 130.443  0.00  0.00    +0.000 C 
ATOM      6  N   UNL     1      -7.507   2.379 131.660  0.00  0.00    +0.000 NA
ATOM      7  C   UNL     1      -6.392   3.344 131.455  0.00  0.00    +0.000 C 
ATOM      8  C   UNL     1      -6.551   4.204 130.185  0.00  0.00    +0.000 C 
BRANCH   3  14
ATOM      9 CL   UNL     1      -2.103   3.006 126.485  0.00  0.00    +0.000 Cl
ATOM     10  C   UNL     1      -3.776   3.418 126.660  0.00  0.00    +0.000 A 
ATOM     11  C   UNL     1      -4.403   3.996 125.551  0.00  0.00    +0.000 A 
ATOM     12  C   UNL     1      -5.741   4.356 125.622  0.00  0.00    +0.000 A 
ATOM     13  C   UNL     1      -6.448   4.133 126.802  0.00  0.00    +0.000 A 
ATOM     14  C   UNL     1      -5.852   3.539 127.936  0.00  0.00    +0.000 A 
ATOM     15  C   UNL     1      -4.490   3.182 127.849  0.00  0.00    +0.000 A 
ATOM     16 CL   UNL     1      -3.721   2.351 129.171  0.00  0.00    +0.000 Cl
ENDBRANCH   3  14
ENDBRANCH   2   6
ENDBRANCH   1   2
BRANCH   1  17
ATOM     17  C   UNL     1      -8.477   4.550 133.868  0.00  0.00    +0.000 C 
BRANCH  17  18
ATOM     18  C   UNL     1      -9.378   5.736 133.552  0.00  0.00    +0.000 C 
BRANCH  18  19
ATOM     19  O   UNL     1      -8.901   6.366 132.358  0.00  0.00    +0.000 OA
BRANCH  19  20
ATOM     20  C   UNL     1      -9.876   6.496 131.404  0.00  0.00    +0.000 A 
ATOM     21  C   UNL     1      -9.589   6.664 130.051  0.00  0.00    +0.000 A 
ATOM     22  C   UNL     1     -10.634   6.847 129.149  0.00  0.00    +0.000 A 
ATOM     23  C   UNL     1     -11.966   6.824 129.572  0.00  0.00    +0.000 A 
ATOM     24  C   UNL     1     -13.054   6.987 128.546  0.00  0.00    +0.000 C 
ATOM     25  C   UNL     1     -12.599   7.941 127.450  0.00  0.00    +0.000 C 
ATOM     26  C   UNL     1     -11.260   7.521 126.891  0.00  0.00    +0.000 C 
ATOM     27  O   UNL     1     -10.955   7.684 125.707  0.00  0.00    +0.000 OA
ATOM     28  N   UNL     1     -10.344   7.059 127.797  0.00  0.00    +0.000 N 
ATOM     29  C   UNL     1     -12.248   6.569 130.918  0.00  0.00    +0.000 A 
ATOM     30  C   UNL     1     -11.201   6.403 131.831  0.00  0.00    +0.000 A 
ATOM     31  H   UNL     1      -9.409   6.905 127.445  0.00  0.00    +0.000 HD
ENDBRANCH  19  20
ENDBRANCH  18  19
ENDBRANCH  17  18
ENDBRANCH   1  17
TORSDOF 7
ENDMDL
MODEL 7
REMARK VINA RESULT:      -7.7      5.281      8.072
REMARK  Name = Aripiprazole
REMARK  7 active torsions:
REMARK  status: ('A' for Active; 'I' for Inactive)
REMARK    1  A    between atoms: C_6  and  N_7
REMARK    2  A    between atoms: N_10  and  C_11
REMARK    3  A    between atoms: C_11  and  C_12
REMARK    4  A    between atoms: C_12  and  C_13
REMARK    5  A    between atoms: C_13  and  C_14
REMARK    6  A    between atoms: C_14  and  O_15
REMARK    7  A    between atoms: O_15  and  C_16
REMARK                            x       y       z     vdW  Elec       q    Type
REMARK                         _______ _______ _______ _____ _____    ______ ____
ROOT
ATOM      1  C   UNL     1      -5.670   4.149 129.858  0.00  0.00    +0.000 C 
ENDROOT
BRANCH   1   2
ATOM      2  C   UNL     1      -5.267   4.116 128.386  0.00  0.00    +0.000 C 
BRANCH   2   6
ATOM      3  N   UNL     1      -7.113   2.494 125.807  0.00  0.00    +0.000 N 
ATOM      4  C   UNL     1      -5.820   3.140 125.542  0.00  0.00    +0.000 C 
ATOM      5  C   UNL     1      -5.870   4.600 126.086  0.00  0.00    +0.000 C 
ATOM      6  N   UNL     1      -6.297   4.709 127.513  0.00  0.00    +0.000 NA
ATOM      7  C   UNL     1      -7.608   4.014 127.644  0.00  0.00    +0.000 C 
ATOM      8  C   UNL     1      -7.567   2.539 127.196  0.00  0.00    +0.000 C 
BRANCH   3  14
ATOM      9 CL   UNL     1      -7.972  -1.831 123.006  0.00  0.00    +0.000 Cl
ATOM     10  C   UNL     1      -8.330  -0.234 123.569  0.00  0.00    +0.000 A 
ATOM     11  C   UNL     1      -9.509   0.352 123.096  0.00  0.00    +0.000 A 
ATOM     12  C   UNL     1      -9.856   1.633 123.503  0.00  0.00    +0.000 A 
ATOM     13  C   UNL     1      -9.025   2.321 124.384  0.00  0.00    +0.000 A 
ATOM     14  C   UNL     1      -7.836   1.755 124.894  0.00  0.00    +0.000 A 
ATOM     15  C   UNL     1      -7.494   0.454 124.468  0.00  0.00    +0.000 A 
ATOM     16 CL   UNL     1      -6.099  -0.343 125.137  0.00  0.00    +0.000 Cl
ENDBRANCH   3  14
ENDBRANCH   2   6
ENDBRANCH   1   2
BRANCH   1  17
ATOM     17  C   UNL     1      -4.950   5.266 130.599  0.00  0.00    +0.000 C 
BRANCH  17  18
ATOM     18  C   UNL     1      -5.876   6.466 130.746  0.00  0.00    +0.000 C 
BRANCH  18  19
ATOM     19  O   UNL     1      -6.665   6.290 131.929  0.00  0.00    +0.000 OA
BRANCH  19  20
ATOM     20  C   UNL     1      -8.009   6.401 131.687  0.00  0.00    +0.000 A 
ATOM     21  C   UNL     1      -8.521   7.003 130.539  0.00  0.00    +0.000 A 
ATOM     22  C   UNL     1      -9.900   7.130 130.391  0.00  0.00    +0.000 A 
ATOM     23  C   UNL     1     -10.779   6.626 131.354  0.00  0.00    +0.000 A 
ATOM     24  C   UNL     1     -12.259   6.756 131.119  0.00  0.00    +0.000 C 
ATOM     25  C   UNL     1     -12.561   8.059 130.393  0.00  0.00    +0.000 C 
ATOM     26  C   UNL     1     -11.710   8.194 129.151  0.00  0.00    +0.000 C 
ATOM     27  O   UNL     1     -12.113   8.751 128.128  0.00  0.00    +0.000 OA
ATOM     28  N   UNL     1     -10.412   7.774 129.259  0.00  0.00    +0.000 N 
ATOM     29  C   UNL     1     -10.259   5.946 132.460  0.00  0.00    +0.000 A 
ATOM     30  C   UNL     1      -8.875   5.833 132.623  0.00  0.00    +0.000 A 
ATOM     31  H   UNL     1      -9.809   7.985 128.476  0.00  0.00    +0.000 HD
ENDBRANCH  19  20
ENDBRANCH  18  19
ENDBRANCH  17  18
ENDBRANCH   1  17
TORSDOF 7
ENDMDL
MODEL 8
REMARK VINA RESULT:      -7.6      1.903      2.672
REMARK  Name = Aripiprazole
REMARK  7 active torsions:
REMARK  status: ('A' for Active; 'I' for Inactive)
REMARK    1  A    between atoms: C_6  and  N_7
REMARK    2  A    between atoms: N_10  and  C_11
REMARK    3  A    between atoms: C_11  and  C_12
REMARK    4  A    between atoms: C_12  and  C_13
REMARK    5  A    between atoms: C_13  and  C_14
REMARK    6  A    between atoms: C_14  and  O_15
REMARK    7  A    between atoms: O_15  and  C_16
REMARK                            x       y       z     vdW  Elec       q    Type
REMARK                         _______ _______ _______ _____ _____    ______ ____
ROOT
ATOM      1  C   UNL     1      -4.340   0.711 129.976  0.00  0.00    +0.000 C 
ENDROOT
BRANCH   1   2
ATOM      2  C   UNL     1      -5.583   1.483 129.541  0.00  0.00    +0.000 C 
BRANCH   2   6
ATOM      3  N   UNL     1      -6.791   1.959 126.224  0.00  0.00    +0.000 N 
ATOM      4  C   UNL     1      -5.575   1.182 126.499  0.00  0.00    +0.000 C 
ATOM      5  C   UNL     1      -4.623   2.041 127.384  0.00  0.00    +0.000 C 
ATOM      6  N   UNL     1      -5.258   2.588 128.619  0.00  0.00    +0.000 NA
ATOM      7  C   UNL     1      -6.473   3.343 128.202  0.00  0.00    +0.000 C 
ATOM      8  C   UNL     1      -7.478   2.491 127.401  0.00  0.00    +0.000 C 
BRANCH   3  14
ATOM      9 CL   UNL     1     -10.490   0.820 122.716  0.00  0.00    +0.000 Cl
ATOM     10  C   UNL     1      -9.087   1.650 123.297  0.00  0.00    +0.000 A 
ATOM     11  C   UNL     1      -8.523   2.609 122.449  0.00  0.00    +0.000 A 
ATOM     12  C   UNL     1      -7.394   3.309 122.849  0.00  0.00    +0.000 A 
ATOM     13  C   UNL     1      -6.835   3.050 124.099  0.00  0.00    +0.000 A 
ATOM     14  C   UNL     1      -7.384   2.100 124.987  0.00  0.00    +0.000 A 
ATOM     15  C   UNL     1      -8.530   1.394 124.564  0.00  0.00    +0.000 A 
ATOM     16 CL   UNL     1      -9.319   0.285 125.649  0.00  0.00    +0.000 Cl
ENDBRANCH   3  14
ENDBRANCH   2   6
ENDBRANCH   1   2
BRANCH   1  17
ATOM     17  C   UNL     1      -4.687  -0.722 130.352  0.00  0.00    +0.000 C 
BRANCH  17  18
ATOM     18  C   UNL     1      -5.074  -1.503 129.103  0.00  0.00    +0.000 C 
BRANCH  18  19
ATOM     19  O   UNL     1      -6.382  -2.054 129.298  0.00  0.00    +0.000 OA
BRANCH  19  20
ATOM     20  C   UNL     1      -6.979  -2.424 128.122  0.00  0.00    +0.000 A 
ATOM     21  C   UNL     1      -6.431  -2.133 126.874  0.00  0.00    +0.000 A 
ATOM     22  C   UNL     1      -7.125  -2.490 125.722  0.00  0.00    +0.000 A 
ATOM     23  C   UNL     1      -8.344  -3.173 125.796  0.00  0.00    +0.000 A 
ATOM     24  C   UNL     1      -9.028  -3.570 124.516  0.00  0.00    +0.000 C 
ATOM     25  C   UNL     1      -8.789  -2.513 123.446  0.00  0.00    +0.000 C 
ATOM     26  C   UNL     1      -7.315  -2.212 123.307  0.00  0.00    +0.000 C 
ATOM     27  O   UNL     1      -6.797  -1.916 122.228  0.00  0.00    +0.000 OA
ATOM     28  N   UNL     1      -6.595  -2.160 124.470  0.00  0.00    +0.000 N 
ATOM     29  C   UNL     1      -8.844  -3.537 127.049  0.00  0.00    +0.000 A 
ATOM     30  C   UNL     1      -8.159  -3.164 128.210  0.00  0.00    +0.000 A 
ATOM     31  H   UNL     1      -5.643  -1.829 124.391  0.00  0.00    +0.000 HD
ENDBRANCH  19  20
ENDBRANCH  18  19
ENDBRANCH  17  18
ENDBRANCH   1  17
TORSDOF 7
ENDMDL
MODEL 9
REMARK VINA RESULT:      -7.6      5.478      8.975
REMARK  Name = Aripiprazole
REMARK  7 active torsions:
REMARK  status: ('A' for Active; 'I' for Inactive)
REMARK    1  A    between atoms: C_6  and  N_7
REMARK    2  A    between atoms: N_10  and  C_11
REMARK    3  A    between atoms: C_11  and  C_12
REMARK    4  A    between atoms: C_12  and  C_13
REMARK    5  A    between atoms: C_13  and  C_14
REMARK    6  A    between atoms: C_14  and  O_15
REMARK    7  A    between atoms: O_15  and  C_16
REMARK                            x       y       z     vdW  Elec       q    Type
REMARK                         _______ _______ _______ _____ _____    ______ ____
ROOT
ATOM      1  C   UNL     1      -8.306   3.008 133.559  0.00  0.00    +0.000 C 
ENDROOT
BRANCH   1   2
ATOM      2  C   UNL     1      -7.311   1.937 133.119  0.00  0.00    +0.000 C 
BRANCH   2   6
ATOM      3  N   UNL     1      -7.390  -0.064 130.174  0.00  0.00    +0.000 N 
ATOM      4  C   UNL     1      -8.422   0.945 130.450  0.00  0.00    +0.000 C 
ATOM      5  C   UNL     1      -8.990   0.700 131.880  0.00  0.00    +0.000 C 
ATOM      6  N   UNL     1      -7.950   0.619 132.949  0.00  0.00    +0.000 NA
ATOM      7  C   UNL     1      -6.971  -0.428 132.545  0.00  0.00    +0.000 C 
ATOM      8  C   UNL     1      -6.324  -0.164 131.170  0.00  0.00    +0.000 C 
BRANCH   3  14
ATOM      9 CL   UNL     1      -5.615  -0.813 125.318  0.00  0.00    +0.000 Cl
ATOM     10  C   UNL     1      -6.482  -1.247 126.752  0.00  0.00    +0.000 A 
ATOM     11  C   UNL     1      -7.096  -2.504 126.762  0.00  0.00    +0.000 A 
ATOM     12  C   UNL     1      -7.811  -2.915 127.878  0.00  0.00    +0.000 A 
ATOM     13  C   UNL     1      -7.906  -2.069 128.981  0.00  0.00    +0.000 A 
ATOM     14  C   UNL     1      -7.287  -0.801 129.012  0.00  0.00    +0.000 A 
ATOM     15  C   UNL     1      -6.567  -0.395 127.869  0.00  0.00    +0.000 A 
ATOM     16 CL   UNL     1      -5.692   1.110 127.879  0.00  0.00    +0.000 Cl
ENDBRANCH   3  14
ENDBRANCH   2   6
ENDBRANCH   1   2
BRANCH   1  17
ATOM     17  C   UNL     1      -8.319   4.179 132.588  0.00  0.00    +0.000 C 
BRANCH  17  18
ATOM     18  C   UNL     1      -8.902   5.409 133.270  0.00  0.00    +0.000 C 
BRANCH  18  19
ATOM     19  O   UNL     1      -8.784   6.524 132.378  0.00  0.00    +0.000 OA
BRANCH  19  20
ATOM     20  C   UNL     1      -9.792   6.565 131.450  0.00  0.00    +0.000 A 
ATOM     21  C   UNL     1      -9.556   6.737 130.087  0.00  0.00    +0.000 A 
ATOM     22  C   UNL     1     -10.635   6.826 129.213  0.00  0.00    +0.000 A 
ATOM     23  C   UNL     1     -11.950   6.704 129.673  0.00  0.00    +0.000 A 
ATOM     24  C   UNL     1     -13.073   6.768 128.675  0.00  0.00    +0.000 C 
ATOM     25  C   UNL     1     -12.724   7.740 127.557  0.00  0.00    +0.000 C 
ATOM     26  C   UNL     1     -11.372   7.419 126.965  0.00  0.00    +0.000 C 
ATOM     27  O   UNL     1     -11.112   7.590 125.772  0.00  0.00    +0.000 OA
ATOM     28  N   UNL     1     -10.399   7.042 127.851  0.00  0.00    +0.000 N 
ATOM     29  C   UNL     1     -12.174   6.446 131.029  0.00  0.00    +0.000 A 
ATOM     30  C   UNL     1     -11.094   6.374 131.914  0.00  0.00    +0.000 A 
ATOM     31  H   UNL     1      -9.464   6.957 127.475  0.00  0.00    +0.000 HD
ENDBRANCH  19  20
ENDBRANCH  18  19
ENDBRANCH  17  18
ENDBRANCH   1  17
TORSDOF 7
ENDMDL
