MODEL 1
REMARK VINA RESULT:      -7.1      0.000      0.000
REMARK  Name = Armodafinil
REMARK  5 active torsions:
REMARK  status: ('A' for Active; 'I' for Inactive)
REMARK    1  A    between atoms: C_2  and  C_4
REMARK    2  A    between atoms: C_4  and  S_5
REMARK    3  A    between atoms: S_5  and  C_7
REMARK    4  A    between atoms: C_7  and  C_8
REMARK    5  A    between atoms: C_7  and  C_14
REMARK                            x       y       z     vdW  Elec       q    Type
REMARK                         _______ _______ _______ _____ _____    ______ ____
ROOT
ATOM      1  C   UNL     1      -8.128  -2.270 125.144  0.00  0.00    +0.000 C 
ENDROOT
BRANCH   1   2
ATOM      2  C   UNL     1      -6.842  -2.792 124.493  0.00  0.00    +0.000 A 
ATOM      3  C   UNL     1      -5.836  -1.969 123.976  0.00  0.00    +0.000 A 
ATOM      4  C   UNL     1      -4.691  -2.515 123.399  0.00  0.00    +0.000 A 
ATOM      5  C   UNL     1      -4.434  -3.876 123.511  0.00  0.00    +0.000 A 
ATOM      6  C   UNL     1      -5.389  -4.714 124.065  0.00  0.00    +0.000 A 
ATOM      7  C   UNL     1      -6.618  -4.184 124.445  0.00  0.00    +0.000 A 
ENDBRANCH   1   2
BRANCH   1   8
ATOM      8  C   UNL     1      -8.196  -2.601 126.676  0.00  0.00    +0.000 A 
ATOM      9  C   UNL     1      -7.416  -1.936 127.648  0.00  0.00    +0.000 A 
ATOM     10  C   UNL     1      -7.388  -2.325 128.990  0.00  0.00    +0.000 A 
ATOM     11  C   UNL     1      -8.207  -3.347 129.428  0.00  0.00    +0.000 A 
ATOM     12  C   UNL     1      -9.014  -4.007 128.518  0.00  0.00    +0.000 A 
ATOM     13  C   UNL     1      -8.998  -3.644 127.172  0.00  0.00    +0.000 A 
ENDBRANCH   1   8
BRANCH   1  14
ATOM     14  S   UNL     1      -8.476  -0.454 124.861  0.00  0.00    +0.000 S 
ATOM     15  O   UNL     1      -9.727  -0.103 125.617  0.00  0.00    +0.000 OA
BRANCH  14  16
ATOM     16  C   UNL     1      -8.892  -0.292 123.114  0.00  0.00    +0.000 C 
BRANCH  16  18
ATOM     17  N   UNL     1      -9.794   1.974 123.465  0.00  0.00    +0.000 N 
ATOM     18  C   UNL     1     -10.038   0.716 123.012  0.00  0.00    +0.000 C 
ATOM     19  O   UNL     1     -11.176   0.472 122.599  0.00  0.00    +0.000 OA
ATOM     20  H   UNL     1     -10.565   2.627 123.379  0.00  0.00    +0.000 HD
ATOM     21  H   UNL     1      -8.925   2.287 123.870  0.00  0.00    +0.000 HD
ENDBRANCH  16  18
ENDBRANCH  14  16
ENDBRANCH   1  14
TORSDOF 5
ENDMDL
MODEL 2
REMARK VINA RESULT:      -6.8      1.875      2.143
REMARK  Name = Armodafinil
REMARK  5 active torsions:
REMARK  status: ('A' for Active; 'I' for Inactive)
REMARK    1  A    between atoms: C_2  and  C_4
REMARK    2  A    between atoms: C_4  and  S_5
REMARK    3  A    between atoms: S_5  and  C_7
REMARK    4  A    between atoms: C_7  and  C_8
REMARK    5  A    between atoms: C_7  and  C_14
REMARK                            x       y       z     vdW  Elec       q    Type
REMARK                         _______ _______ _______ _____ _____    ______ ____
ROOT
ATOM      1  C   UNL     1      -8.079  -0.849 125.811  0.00  0.00    +0.000 C 
ENDROOT
BRANCH   1   2
ATOM      2  C   UNL     1      -7.085  -1.383 124.774  0.00  0.00    +0.000 A 
ATOM      3  C   UNL     1      -5.887  -2.028 125.097  0.00  0.00    +0.000 A 
ATOM      4  C   UNL     1      -5.031  -2.490 124.099  0.00  0.00    +0.000 A 
ATOM      5  C   UNL     1      -5.448  -2.503 122.773  0.00  0.00    +0.000 A 
ATOM      6  C   UNL     1      -6.654  -1.917 122.424  0.00  0.00    +0.000 A 
ATOM      7  C   UNL     1      -7.401  -1.270 123.404  0.00  0.00    +0.000 A 
ENDBRANCH   1   2
BRANCH   1   8
ATOM      8  C   UNL     1      -8.239  -1.815 127.037  0.00  0.00    +0.000 A 
ATOM      9  C   UNL     1      -7.715  -1.534 128.318  0.00  0.00    +0.000 A 
ATOM     10  C   UNL     1      -7.750  -2.456 129.367  0.00  0.00    +0.000 A 
ATOM     11  C   UNL     1      -8.385  -3.671 129.197  0.00  0.00    +0.000 A 
ATOM     12  C   UNL     1      -8.942  -3.978 127.967  0.00  0.00    +0.000 A 
ATOM     13  C   UNL     1      -8.860  -3.071 126.913  0.00  0.00    +0.000 A 
ENDBRANCH   1   8
BRANCH   1  14
ATOM     14  S   UNL     1      -7.743   0.893 126.403  0.00  0.00    +0.000 S 
ATOM     15  O   UNL     1      -9.012   1.424 127.011  0.00  0.00    +0.000 OA
BRANCH  14  16
ATOM     16  C   UNL     1      -7.455   1.878 124.920  0.00  0.00    +0.000 C 
BRANCH  16  18
ATOM     17  N   UNL     1      -9.768   2.162 124.120  0.00  0.00    +0.000 N 
ATOM     18  C   UNL     1      -8.692   2.751 124.707  0.00  0.00    +0.000 C 
ATOM     19  O   UNL     1      -8.781   3.952 124.978  0.00  0.00    +0.000 OA
ATOM     20  H   UNL     1     -10.580   2.756 123.997  0.00  0.00    +0.000 HD
ATOM     21  H   UNL     1      -9.807   1.203 123.808  0.00  0.00    +0.000 HD
ENDBRANCH  16  18
ENDBRANCH  14  16
ENDBRANCH   1  14
TORSDOF 5
ENDMDL
MODEL 3
REMARK VINA RESULT:      -6.6      1.599      1.972
REMARK  Name = Armodafinil
REMARK  5 active torsions:
REMARK  status: ('A' for Active; 'I' for Inactive)
REMARK    1  A    between atoms: C_2  and  C_4
REMARK    2  A    between atoms: C_4  and  S_5
REMARK    3  A    between atoms: S_5  and  C_7
REMARK    4  A    between atoms: C_7  and  C_8
REMARK    5  A    between atoms: C_7  and  C_14
REMARK                            x       y       z     vdW  Elec       q    Type
REMARK                         _______ _______ _______ _____ _____    ______ ____
ROOT
ATOM      1  C   UNL     1      -8.022  -1.312 125.500  0.00  0.00    +0.000 C 
ENDROOT
BRANCH   1   2
ATOM      2  C   UNL     1      -7.005  -1.908 124.521  0.00  0.00    +0.000 A 
ATOM      3  C   UNL     1      -6.970  -1.617 123.154  0.00  0.00    +0.000 A 
ATOM      4  C   UNL     1      -6.012  -2.196 122.323  0.00  0.00    +0.000 A 
ATOM      5  C   UNL     1      -4.952  -2.908 122.871  0.00  0.00    +0.000 A 
ATOM      6  C   UNL     1      -4.929  -3.171 124.231  0.00  0.00    +0.000 A 
ATOM      7  C   UNL     1      -6.003  -2.768 125.018  0.00  0.00    +0.000 A 
ENDBRANCH   1   2
BRANCH   1   8
ATOM      8  C   UNL     1      -8.195  -2.190 126.789  0.00  0.00    +0.000 A 
ATOM      9  C   UNL     1      -9.013  -3.340 126.838  0.00  0.00    +0.000 A 
ATOM     10  C   UNL     1      -9.262  -4.039 128.023  0.00  0.00    +0.000 A 
ATOM     11  C   UNL     1      -8.633  -3.659 129.193  0.00  0.00    +0.000 A 
ATOM     12  C   UNL     1      -7.796  -2.557 129.185  0.00  0.00    +0.000 A 
ATOM     13  C   UNL     1      -7.593  -1.837 128.009  0.00  0.00    +0.000 A 
ENDBRANCH   1   8
BRANCH   1  14
ATOM     14  S   UNL     1      -7.713   0.472 125.972  0.00  0.00    +0.000 S 
ATOM     15  O   UNL     1      -8.886   0.941 126.787  0.00  0.00    +0.000 OA
BRANCH  14  16
ATOM     16  C   UNL     1      -7.770   1.413 124.435  0.00  0.00    +0.000 C 
BRANCH  16  18
ATOM     17  N   UNL     1     -10.193   1.750 124.141  0.00  0.00    +0.000 N 
ATOM     18  C   UNL     1      -9.007   2.310 124.498  0.00  0.00    +0.000 C 
ATOM     19  O   UNL     1      -9.012   3.508 124.797  0.00  0.00    +0.000 OA
ATOM     20  H   UNL     1     -11.001   2.360 124.199  0.00  0.00    +0.000 HD
ATOM     21  H   UNL     1     -10.316   0.798 123.831  0.00  0.00    +0.000 HD
ENDBRANCH  16  18
ENDBRANCH  14  16
ENDBRANCH   1  14
TORSDOF 5
ENDMDL
MODEL 4
REMARK VINA RESULT:      -6.4      1.435      4.462
REMARK  Name = Armodafinil
REMARK  5 active torsions:
REMARK  status: ('A' for Active; 'I' for Inactive)
REMARK    1  A    between atoms: C_2  and  C_4
REMARK    2  A    between atoms: C_4  and  S_5
REMARK    3  A    between atoms: S_5  and  C_7
REMARK    4  A    between atoms: C_7  and  C_8
REMARK    5  A    between atoms: C_7  and  C_14
REMARK                            x       y       z     vdW  Elec       q    Type
REMARK                         _______ _______ _______ _____ _____    ______ ____
ROOT
ATOM      1  C   UNL     1      -6.900  -0.859 126.386  0.00  0.00    +0.000 C 
ENDROOT
BRANCH   1   2
ATOM      2  C   UNL     1      -7.641  -1.912 127.217  0.00  0.00    +0.000 A 
ATOM      3  C   UNL     1      -8.324  -3.003 126.669  0.00  0.00    +0.000 A 
ATOM      4  C   UNL     1      -8.976  -3.923 127.489  0.00  0.00    +0.000 A 
ATOM      5  C   UNL     1      -8.786  -3.889 128.865  0.00  0.00    +0.000 A 
ATOM      6  C   UNL     1      -8.071  -2.849 129.437  0.00  0.00    +0.000 A 
ATOM      7  C   UNL     1      -7.606  -1.820 128.624  0.00  0.00    +0.000 A 
ENDBRANCH   1   2
BRANCH   1   8
ATOM      8  C   UNL     1      -6.301  -1.456 125.064  0.00  0.00    +0.000 A 
ATOM      9  C   UNL     1      -6.697  -1.033 123.776  0.00  0.00    +0.000 A 
ATOM     10  C   UNL     1      -6.255  -1.659 122.607  0.00  0.00    +0.000 A 
ATOM     11  C   UNL     1      -5.332  -2.685 122.681  0.00  0.00    +0.000 A 
ATOM     12  C   UNL     1      -4.891  -3.111 123.921  0.00  0.00    +0.000 A 
ATOM     13  C   UNL     1      -5.375  -2.513 125.083  0.00  0.00    +0.000 A 
ENDBRANCH   1   8
BRANCH   1  14
ATOM     14  S   UNL     1      -7.884   0.686 126.008  0.00  0.00    +0.000 S 
ATOM     15  O   UNL     1      -8.115   1.412 127.304  0.00  0.00    +0.000 OA
BRANCH  14  16
ATOM     16  C   UNL     1      -9.508   0.122 125.462  0.00  0.00    +0.000 C 
BRANCH  16  18
ATOM     17  N   UNL     1      -9.382   2.373 124.470  0.00  0.00    +0.000 N 
ATOM     18  C   UNL     1     -10.104   1.228 124.590  0.00  0.00    +0.000 C 
ATOM     19  O   UNL     1     -11.202   1.188 124.028  0.00  0.00    +0.000 OA
ATOM     20  H   UNL     1      -9.792   3.089 123.880  0.00  0.00    +0.000 HD
ATOM     21  H   UNL     1      -8.495   2.551 124.917  0.00  0.00    +0.000 HD
ENDBRANCH  16  18
ENDBRANCH  14  16
ENDBRANCH   1  14
TORSDOF 5
ENDMDL
MODEL 5
REMARK VINA RESULT:      -6.4      3.800      5.999
REMARK  Name = Armodafinil
REMARK  5 active torsions:
REMARK  status: ('A' for Active; 'I' for Inactive)
REMARK    1  A    between atoms: C_2  and  C_4
REMARK    2  A    between atoms: C_4  and  S_5
REMARK    3  A    between atoms: S_5  and  C_7
REMARK    4  A    between atoms: C_7  and  C_8
REMARK    5  A    between atoms: C_7  and  C_14
REMARK                            x       y       z     vdW  Elec       q    Type
REMARK                         _______ _______ _______ _____ _____    ______ ____
ROOT
ATOM      1  C   UNL     1      -7.790   1.484 124.191  0.00  0.00    +0.000 C 
ENDROOT
BRANCH   1   2
ATOM      2  C   UNL     1      -7.579   2.370 122.959  0.00  0.00    +0.000 A 
ATOM      3  C   UNL     1      -6.331   2.627 122.383  0.00  0.00    +0.000 A 
ATOM      4  C   UNL     1      -6.217   3.443 121.258  0.00  0.00    +0.000 A 
ATOM      5  C   UNL     1      -7.354   3.848 120.571  0.00  0.00    +0.000 A 
ATOM      6  C   UNL     1      -8.608   3.566 121.088  0.00  0.00    +0.000 A 
ATOM      7  C   UNL     1      -8.705   2.933 122.323  0.00  0.00    +0.000 A 
ENDBRANCH   1   2
BRANCH   1   8
ATOM      8  C   UNL     1      -7.053   0.104 124.066  0.00  0.00    +0.000 A 
ATOM      9  C   UNL     1      -6.202  -0.413 125.068  0.00  0.00    +0.000 A 
ATOM     10  C   UNL     1      -5.451  -1.579 124.892  0.00  0.00    +0.000 A 
ATOM     11  C   UNL     1      -5.585  -2.318 123.733  0.00  0.00    +0.000 A 
ATOM     12  C   UNL     1      -6.433  -1.867 122.736  0.00  0.00    +0.000 A 
ATOM     13  C   UNL     1      -7.141  -0.678 122.901  0.00  0.00    +0.000 A 
ENDBRANCH   1   8
BRANCH   1  14
ATOM     14  S   UNL     1      -7.370   2.291 125.826  0.00  0.00    +0.000 S 
ATOM     15  O   UNL     1      -8.369   3.389 126.065  0.00  0.00    +0.000 OA
BRANCH  14  16
ATOM     16  C   UNL     1      -5.782   3.112 125.585  0.00  0.00    +0.000 C 
BRANCH  16  18
ATOM     17  N   UNL     1      -6.570   5.341 124.893  0.00  0.00    +0.000 N 
ATOM     18  C   UNL     1      -5.991   4.599 125.873  0.00  0.00    +0.000 C 
ATOM     19  O   UNL     1      -5.636   5.190 126.897  0.00  0.00    +0.000 OA
ATOM     20  H   UNL     1      -6.707   6.322 125.109  0.00  0.00    +0.000 HD
ATOM     21  H   UNL     1      -6.861   4.989 123.993  0.00  0.00    +0.000 HD
ENDBRANCH  16  18
ENDBRANCH  14  16
ENDBRANCH   1  14
TORSDOF 5
ENDMDL
MODEL 6
REMARK VINA RESULT:      -6.0      4.963      6.845
REMARK  Name = Armodafinil
REMARK  5 active torsions:
REMARK  status: ('A' for Active; 'I' for Inactive)
REMARK    1  A    between atoms: C_2  and  C_4
REMARK    2  A    between atoms: C_4  and  S_5
REMARK    3  A    between atoms: S_5  and  C_7
REMARK    4  A    between atoms: C_7  and  C_8
REMARK    5  A    between atoms: C_7  and  C_14
REMARK                            x       y       z     vdW  Elec       q    Type
REMARK                         _______ _______ _______ _____ _____    ______ ____
ROOT
ATOM      1  C   UNL     1      -6.987  -1.102 129.495  0.00  0.00    +0.000 C 
ENDROOT
BRANCH   1   2
ATOM      2  C   UNL     1      -7.717  -2.015 128.504  0.00  0.00    +0.000 A 
ATOM      3  C   UNL     1      -8.363  -3.203 128.863  0.00  0.00    +0.000 A 
ATOM      4  C   UNL     1      -9.009  -3.983 127.905  0.00  0.00    +0.000 A 
ATOM      5  C   UNL     1      -9.199  -3.494 126.618  0.00  0.00    +0.000 A 
ATOM      6  C   UNL     1      -8.615  -2.295 126.244  0.00  0.00    +0.000 A 
ATOM      7  C   UNL     1      -7.794  -1.629 127.149  0.00  0.00    +0.000 A 
ENDBRANCH   1   2
BRANCH   1   8
ATOM      8  C   UNL     1      -7.937  -0.022 130.121  0.00  0.00    +0.000 A 
ATOM      9  C   UNL     1      -8.172   1.239 129.531  0.00  0.00    +0.000 A 
ATOM     10  C   UNL     1      -8.916   2.241 130.160  0.00  0.00    +0.000 A 
ATOM     11  C   UNL     1      -9.524   1.989 131.375  0.00  0.00    +0.000 A 
ATOM     12  C   UNL     1      -9.349   0.755 131.976  0.00  0.00    +0.000 A 
ATOM     13  C   UNL     1      -8.565  -0.221 131.363  0.00  0.00    +0.000 A 
ENDBRANCH   1   8
BRANCH   1  14
ATOM     14  S   UNL     1      -6.046  -1.992 130.844  0.00  0.00    +0.000 S 
ATOM     15  O   UNL     1      -5.118  -1.000 131.488  0.00  0.00    +0.000 OA
BRANCH  14  16
ATOM     16  C   UNL     1      -4.988  -3.190 130.008  0.00  0.00    +0.000 C 
BRANCH  16  18
ATOM     17  N   UNL     1      -2.743  -2.184 129.862  0.00  0.00    +0.000 N 
ATOM     18  C   UNL     1      -3.573  -3.006 130.558  0.00  0.00    +0.000 C 
ATOM     19  O   UNL     1      -3.106  -3.577 131.549  0.00  0.00    +0.000 OA
ATOM     20  H   UNL     1      -1.813  -2.070 130.250  0.00  0.00    +0.000 HD
ATOM     21  H   UNL     1      -2.986  -1.697 129.013  0.00  0.00    +0.000 HD
ENDBRANCH  16  18
ENDBRANCH  14  16
ENDBRANCH   1  14
TORSDOF 5
ENDMDL
MODEL 7
REMARK VINA RESULT:      -6.0      6.283      8.109
REMARK  Name = Armodafinil
REMARK  5 active torsions:
REMARK  status: ('A' for Active; 'I' for Inactive)
REMARK    1  A    between atoms: C_2  and  C_4
REMARK    2  A    between atoms: C_4  and  S_5
REMARK    3  A    between atoms: S_5  and  C_7
REMARK    4  A    between atoms: C_7  and  C_8
REMARK    5  A    between atoms: C_7  and  C_14
REMARK                            x       y       z     vdW  Elec       q    Type
REMARK                         _______ _______ _______ _____ _____    ______ ____
ROOT
ATOM      1  C   UNL     1      -6.092   4.648 125.564  0.00  0.00    +0.000 C 
ENDROOT
BRANCH   1   2
ATOM      2  C   UNL     1      -4.795   4.264 126.284  0.00  0.00    +0.000 A 
ATOM      3  C   UNL     1      -4.143   3.038 126.121  0.00  0.00    +0.000 A 
ATOM      4  C   UNL     1      -2.963   2.759 126.809  0.00  0.00    +0.000 A 
ATOM      5  C   UNL     1      -2.306   3.766 127.506  0.00  0.00    +0.000 A 
ATOM      6  C   UNL     1      -2.901   5.009 127.644  0.00  0.00    +0.000 A 
ATOM      7  C   UNL     1      -4.179   5.209 127.131  0.00  0.00    +0.000 A 
ENDBRANCH   1   2
BRANCH   1   8
ATOM      8  C   UNL     1      -6.082   4.229 124.052  0.00  0.00    +0.000 A 
ATOM      9  C   UNL     1      -6.976   3.282 123.506  0.00  0.00    +0.000 A 
ATOM     10  C   UNL     1      -6.875   2.820 122.190  0.00  0.00    +0.000 A 
ATOM     11  C   UNL     1      -5.921   3.351 121.344  0.00  0.00    +0.000 A 
ATOM     12  C   UNL     1      -5.043   4.306 121.827  0.00  0.00    +0.000 A 
ATOM     13  C   UNL     1      -5.121   4.725 123.154  0.00  0.00    +0.000 A 
ENDBRANCH   1   8
BRANCH   1  14
ATOM     14  S   UNL     1      -7.661   4.048 126.388  0.00  0.00    +0.000 S 
ATOM     15  O   UNL     1      -8.584   5.226 126.532  0.00  0.00    +0.000 OA
BRANCH  14  16
ATOM     16  C   UNL     1      -7.195   3.578 128.067  0.00  0.00    +0.000 C 
BRANCH  16  18
ATOM     17  N   UNL     1      -8.327   5.121 129.618  0.00  0.00    +0.000 N 
ATOM     18  C   UNL     1      -8.373   3.922 128.978  0.00  0.00    +0.000 C 
ATOM     19  O   UNL     1      -9.335   3.187 129.219  0.00  0.00    +0.000 OA
ATOM     20  H   UNL     1      -9.123   5.332 130.210  0.00  0.00    +0.000 HD
ATOM     21  H   UNL     1      -7.576   5.790 129.545  0.00  0.00    +0.000 HD
ENDBRANCH  16  18
ENDBRANCH  14  16
ENDBRANCH   1  14
TORSDOF 5
ENDMDL
MODEL 8
REMARK VINA RESULT:      -6.0     10.229     12.097
REMARK  Name = Armodafinil
REMARK  5 active torsions:
REMARK  status: ('A' for Active; 'I' for Inactive)
REMARK    1  A    between atoms: C_2  and  C_4
REMARK    2  A    between atoms: C_4  and  S_5
REMARK    3  A    between atoms: S_5  and  C_7
REMARK    4  A    between atoms: C_7  and  C_8
REMARK    5  A    between atoms: C_7  and  C_14
REMARK                            x       y       z     vdW  Elec       q    Type
REMARK                         _______ _______ _______ _____ _____    ______ ____
ROOT
ATOM      1  C   UNL     1      -3.797   7.399 130.682  0.00  0.00    +0.000 C 
ENDROOT
BRANCH   1   2
ATOM      2  C   UNL     1      -5.031   6.812 131.376  0.00  0.00    +0.000 A 
ATOM      3  C   UNL     1      -4.995   6.138 132.601  0.00  0.00    +0.000 A 
ATOM      4  C   UNL     1      -6.161   5.632 133.173  0.00  0.00    +0.000 A 
ATOM      5  C   UNL     1      -7.401   5.965 132.642  0.00  0.00    +0.000 A 
ATOM      6  C   UNL     1      -7.474   6.676 131.455  0.00  0.00    +0.000 A 
ATOM      7  C   UNL     1      -6.298   6.992 130.782  0.00  0.00    +0.000 A 
ENDBRANCH   1   2
BRANCH   1   8
ATOM      8  C   UNL     1      -2.600   7.612 131.674  0.00  0.00    +0.000 A 
ATOM      9  C   UNL     1      -2.504   8.719 132.545  0.00  0.00    +0.000 A 
ATOM     10  C   UNL     1      -1.374   8.967 133.330  0.00  0.00    +0.000 A 
ATOM     11  C   UNL     1      -0.326   8.066 133.333  0.00  0.00    +0.000 A 
ATOM     12  C   UNL     1      -0.391   6.948 132.520  0.00  0.00    +0.000 A 
ATOM     13  C   UNL     1      -1.501   6.736 131.704  0.00  0.00    +0.000 A 
ENDBRANCH   1   8
BRANCH   1  14
ATOM     14  S   UNL     1      -3.220   6.462 129.169  0.00  0.00    +0.000 S 
ATOM     15  O   UNL     1      -4.076   6.892 128.010  0.00  0.00    +0.000 OA
BRANCH  14  16
ATOM     16  C   UNL     1      -3.628   4.730 129.469  0.00  0.00    +0.000 C 
BRANCH  16  18
ATOM     17  N   UNL     1      -2.208   4.579 127.461  0.00  0.00    +0.000 N 
ATOM     18  C   UNL     1      -3.027   3.918 128.322  0.00  0.00    +0.000 C 
ATOM     19  O   UNL     1      -3.259   2.729 128.083  0.00  0.00    +0.000 OA
ATOM     20  H   UNL     1      -1.813   4.018 126.714  0.00  0.00    +0.000 HD
ATOM     21  H   UNL     1      -1.976   5.559 127.517  0.00  0.00    +0.000 HD
ENDBRANCH  16  18
ENDBRANCH  14  16
ENDBRANCH   1  14
TORSDOF 5
ENDMDL
MODEL 9
REMARK VINA RESULT:      -5.9      3.406      5.967
REMARK  Name = Armodafinil
REMARK  5 active torsions:
REMARK  status: ('A' for Active; 'I' for Inactive)
REMARK    1  A    between atoms: C_2  and  C_4
REMARK    2  A    between atoms: C_4  and  S_5
REMARK    3  A    between atoms: S_5  and  C_7
REMARK    4  A    between atoms: C_7  and  C_8
REMARK    5  A    between atoms: C_7  and  C_14
REMARK                            x       y       z     vdW  Elec       q    Type
REMARK                         _______ _______ _______ _____ _____    ______ ____
ROOT
ATOM      1  C   UNL     1      -5.480  -1.025 126.684  0.00  0.00    +0.000 C 
ENDROOT
BRANCH   1   2
ATOM      2  C   UNL     1      -6.100  -1.991 127.700  0.00  0.00    +0.000 A 
ATOM      3  C   UNL     1      -5.403  -2.551 128.775  0.00  0.00    +0.000 A 
ATOM      4  C   UNL     1      -6.035  -3.421 129.662  0.00  0.00    +0.000 A 
ATOM      5  C   UNL     1      -7.414  -3.586 129.615  0.00  0.00    +0.000 A 
ATOM      6  C   UNL     1      -8.143  -3.002 128.592  0.00  0.00    +0.000 A 
ATOM      7  C   UNL     1      -7.470  -2.309 127.590  0.00  0.00    +0.000 A 
ENDBRANCH   1   2
BRANCH   1   8
ATOM      8  C   UNL     1      -5.754  -1.463 125.202  0.00  0.00    +0.000 A 
ATOM      9  C   UNL     1      -5.195  -2.622 124.621  0.00  0.00    +0.000 A 
ATOM     10  C   UNL     1      -5.340  -2.933 123.266  0.00  0.00    +0.000 A 
ATOM     11  C   UNL     1      -6.122  -2.133 122.455  0.00  0.00    +0.000 A 
ATOM     12  C   UNL     1      -6.717  -1.004 122.988  0.00  0.00    +0.000 A 
ATOM     13  C   UNL     1      -6.526  -0.676 124.330  0.00  0.00    +0.000 A 
ENDBRANCH   1   8
BRANCH   1  14
ATOM     14  S   UNL     1      -5.940   0.773 126.919  0.00  0.00    +0.000 S 
ATOM     15  O   UNL     1      -4.721   1.601 126.621  0.00  0.00    +0.000 OA
BRANCH  14  16
ATOM     16  C   UNL     1      -6.258   0.979 128.683  0.00  0.00    +0.000 C 
BRANCH  16  18
ATOM     17  N   UNL     1      -3.920   0.757 129.428  0.00  0.00    +0.000 N 
ATOM     18  C   UNL     1      -4.996   1.579 129.305  0.00  0.00    +0.000 C 
ATOM     19  O   UNL     1      -4.887   2.727 129.746  0.00  0.00    +0.000 OA
ATOM     20  H   UNL     1      -3.092   1.179 129.834  0.00  0.00    +0.000 HD
ATOM     21  H   UNL     1      -3.895  -0.212 129.152  0.00  0.00    +0.000 HD
ENDBRANCH  16  18
ENDBRANCH  14  16
ENDBRANCH   1  14
TORSDOF 5
ENDMDL
