MODEL 1
REMARK VINA RESULT:      -8.7      0.000      0.000
REMARK  Name = Artesunate
REMARK  9 active torsions:
REMARK  status: ('A' for Active; 'I' for Inactive)
REMARK    1  A    between atoms: C_5  and  C_6
REMARK    2  A    between atoms: C_11  and  C_12
REMARK    3  A    between atoms: C_19  and  O_20
REMARK    4  A    between atoms: O_20  and  C_21
REMARK    5  A    between atoms: C_21  and  C_23
REMARK    6  A    between atoms: C_23  and  C_24
REMARK    7  A    between atoms: C_24  and  C_25
REMARK    8  A    between atoms: C_25  and  O_26
REMARK    9  A    between atoms: C_28  and  C_29
REMARK                            x       y       z     vdW  Elec       q    Type
REMARK                         _______ _______ _______ _____ _____    ______ ____
ROOT
ATOM      1  C   UNL     1      -8.319   1.801 126.282  0.00  0.00    +0.000 C 
ATOM      2  C   UNL     1      -7.170   2.072 127.266  0.00  0.00    +0.000 C 
ATOM      3  C   UNL     1      -7.263   1.168 128.491  0.00  0.00    +0.000 C 
ATOM      4  C   UNL     1      -7.216  -0.312 128.107  0.00  0.00    +0.000 C 
ATOM      5  C   UNL     1      -7.340  -1.161 129.380  0.00  0.00    +0.000 C 
ATOM      6  C   UNL     1      -8.327  -0.651 127.084  0.00  0.00    +0.000 C 
ATOM      7  C   UNL     1      -8.232  -2.134 126.665  0.00  0.00    +0.000 C 
ATOM      8  C   UNL     1      -9.094  -2.525 125.462  0.00  0.00    +0.000 C 
ATOM      9  C   UNL     1      -8.764  -1.706 124.201  0.00  0.00    +0.000 C 
ATOM     10  C   UNL     1      -8.945  -2.555 122.949  0.00  0.00    +0.000 C 
ATOM     11  O   UNL     1      -9.641  -0.582 124.054  0.00  0.00    +0.000 OA
ATOM     12  O   UNL     1      -9.717   0.125 125.331  0.00  0.00    +0.000 OA
ATOM     13  C   UNL     1      -8.376   0.315 125.862  0.00  0.00    +0.000 C 
ATOM     14  C   UNL     1      -7.289   0.022 124.782  0.00  0.00    +0.000 C 
ATOM     15  O   UNL     1      -7.358   0.922 123.679  0.00  0.00    +0.000 OA
ATOM     16  C   UNL     1      -7.172   2.283 124.029  0.00  0.00    +0.000 C 
ATOM     17  C   UNL     1      -8.294   2.698 125.007  0.00  0.00    +0.000 C 
ATOM     18  C   UNL     1      -8.263   4.187 125.340  0.00  0.00    +0.000 C 
ATOM     19  O   UNL     1      -7.394  -1.300 124.250  0.00  0.00    +0.000 OA
ENDROOT
BRANCH  16  20
ATOM     20  O   UNL     1      -7.247   3.102 122.840  0.00  0.00    +0.000 OA
BRANCH  20  21
ATOM     21  C   UNL     1      -6.101   3.776 122.540  0.00  0.00    +0.000 C 
ATOM     22  O   UNL     1      -5.556   4.604 123.260  0.00  0.00    +0.000 OA
BRANCH  21  23
ATOM     23  C   UNL     1      -5.608   3.412 121.155  0.00  0.00    +0.000 C 
BRANCH  23  24
ATOM     24  C   UNL     1      -6.265   4.291 120.094  0.00  0.00    +0.000 C 
BRANCH  24  25
ATOM     25  C   UNL     1      -5.469   5.472 119.586  0.00  0.00    +0.000 C 
ATOM     26  O   UNL     1      -4.711   6.101 120.314  0.00  0.00    +0.000 OA
BRANCH  25  27
ATOM     27  O   UNL     1      -5.626   5.817 118.295  0.00  0.00    +0.000 OA
ATOM     28  H   UNL     1      -5.097   6.553 117.947  0.00  0.00    +0.000 HD
ENDBRANCH  25  27
ENDBRANCH  24  25
ENDBRANCH  23  24
ENDBRANCH  21  23
ENDBRANCH  20  21
ENDBRANCH  16  20
TORSDOF 6
ENDMDL
MODEL 2
REMARK VINA RESULT:      -8.3      2.374      4.632
REMARK  Name = Artesunate
REMARK  9 active torsions:
REMARK  status: ('A' for Active; 'I' for Inactive)
REMARK    1  A    between atoms: C_5  and  C_6
REMARK    2  A    between atoms: C_11  and  C_12
REMARK    3  A    between atoms: C_19  and  O_20
REMARK    4  A    between atoms: O_20  and  C_21
REMARK    5  A    between atoms: C_21  and  C_23
REMARK    6  A    between atoms: C_23  and  C_24
REMARK    7  A    between atoms: C_24  and  C_25
REMARK    8  A    between atoms: C_25  and  O_26
REMARK    9  A    between atoms: C_28  and  C_29
REMARK                            x       y       z     vdW  Elec       q    Type
REMARK                         _______ _______ _______ _____ _____    ______ ____
ROOT
ATOM      1  C   UNL     1      -8.094  -2.806 125.787  0.00  0.00    +0.000 C 
ATOM      2  C   UNL     1      -9.235  -3.345 126.664  0.00  0.00    +0.000 C 
ATOM      3  C   UNL     1      -8.707  -3.911 127.978  0.00  0.00    +0.000 C 
ATOM      4  C   UNL     1      -7.950  -2.855 128.785  0.00  0.00    +0.000 C 
ATOM      5  C   UNL     1      -7.426  -3.496 130.077  0.00  0.00    +0.000 C 
ATOM      6  C   UNL     1      -6.803  -2.238 127.947  0.00  0.00    +0.000 C 
ATOM      7  C   UNL     1      -6.085  -1.136 128.756  0.00  0.00    +0.000 C 
ATOM      8  C   UNL     1      -5.116  -0.267 127.950  0.00  0.00    +0.000 C 
ATOM      9  C   UNL     1      -5.800   0.449 126.771  0.00  0.00    +0.000 C 
ATOM     10  C   UNL     1      -5.163   1.813 126.531  0.00  0.00    +0.000 C 
ATOM     11  O   UNL     1      -5.651  -0.283 125.547  0.00  0.00    +0.000 OA
ATOM     12  O   UNL     1      -5.995  -1.682 125.792  0.00  0.00    +0.000 OA
ATOM     13  C   UNL     1      -7.244  -1.753 126.534  0.00  0.00    +0.000 C 
ATOM     14  C   UNL     1      -7.982  -0.377 126.540  0.00  0.00    +0.000 C 
ATOM     15  O   UNL     1      -8.374   0.038 125.234  0.00  0.00    +0.000 OA
ATOM     16  C   UNL     1      -9.263  -0.854 124.585  0.00  0.00    +0.000 C 
ATOM     17  C   UNL     1      -8.559  -2.219 124.420  0.00  0.00    +0.000 C 
ATOM     18  C   UNL     1      -9.385  -3.213 123.608  0.00  0.00    +0.000 C 
ATOM     19  O   UNL     1      -7.177   0.668 127.087  0.00  0.00    +0.000 OA
ENDROOT
BRANCH  16  20
ATOM     20  O   UNL     1      -9.605  -0.331 123.281  0.00  0.00    +0.000 OA
BRANCH  20  21
ATOM     21  C   UNL     1     -10.182   0.905 123.297  0.00  0.00    +0.000 C 
ATOM     22  O   UNL     1     -11.170   1.217 123.951  0.00  0.00    +0.000 OA
BRANCH  21  23
ATOM     23  C   UNL     1      -9.474   1.843 122.343  0.00  0.00    +0.000 C 
BRANCH  23  24
ATOM     24  C   UNL     1      -8.543   2.788 123.099  0.00  0.00    +0.000 C 
BRANCH  24  25
ATOM     25  C   UNL     1      -7.088   2.392 123.197  0.00  0.00    +0.000 C 
ATOM     26  O   UNL     1      -6.199   3.225 123.322  0.00  0.00    +0.000 OA
BRANCH  25  27
ATOM     27  O   UNL     1      -6.796   1.079 123.139  0.00  0.00    +0.000 OA
ATOM     28  H   UNL     1      -6.513   0.634 123.954  0.00  0.00    +0.000 HD
ENDBRANCH  25  27
ENDBRANCH  24  25
ENDBRANCH  23  24
ENDBRANCH  21  23
ENDBRANCH  20  21
ENDBRANCH  16  20
TORSDOF 6
ENDMDL
MODEL 3
REMARK VINA RESULT:      -8.2      2.223      3.846
REMARK  Name = Artesunate
REMARK  9 active torsions:
REMARK  status: ('A' for Active; 'I' for Inactive)
REMARK    1  A    between atoms: C_5  and  C_6
REMARK    2  A    between atoms: C_11  and  C_12
REMARK    3  A    between atoms: C_19  and  O_20
REMARK    4  A    between atoms: O_20  and  C_21
REMARK    5  A    between atoms: C_21  and  C_23
REMARK    6  A    between atoms: C_23  and  C_24
REMARK    7  A    between atoms: C_24  and  C_25
REMARK    8  A    between atoms: C_25  and  O_26
REMARK    9  A    between atoms: C_28  and  C_29
REMARK                            x       y       z     vdW  Elec       q    Type
REMARK                         _______ _______ _______ _____ _____    ______ ____
ROOT
ATOM      1  C   UNL     1      -7.457  -0.716 126.921  0.00  0.00    +0.000 C 
ATOM      2  C   UNL     1      -5.937  -0.893 127.068  0.00  0.00    +0.000 C 
ATOM      3  C   UNL     1      -5.455  -2.158 126.364  0.00  0.00    +0.000 C 
ATOM      4  C   UNL     1      -5.786  -2.136 124.871  0.00  0.00    +0.000 C 
ATOM      5  C   UNL     1      -5.297  -3.443 124.233  0.00  0.00    +0.000 C 
ATOM      6  C   UNL     1      -7.303  -1.921 124.645  0.00  0.00    +0.000 C 
ATOM      7  C   UNL     1      -7.611  -1.846 123.135  0.00  0.00    +0.000 C 
ATOM      8  C   UNL     1      -9.022  -1.367 122.784  0.00  0.00    +0.000 C 
ATOM      9  C   UNL     1      -9.335   0.030 123.352  0.00  0.00    +0.000 C 
ATOM     10  C   UNL     1     -10.255   0.797 122.409  0.00  0.00    +0.000 C 
ATOM     11  O   UNL     1     -10.024  -0.049 124.606  0.00  0.00    +0.000 OA
ATOM     12  O   UNL     1      -9.322  -0.998 125.469  0.00  0.00    +0.000 OA
ATOM     13  C   UNL     1      -7.894  -0.718 125.439  0.00  0.00    +0.000 C 
ATOM     14  C   UNL     1      -7.600   0.671 124.792  0.00  0.00    +0.000 C 
ATOM     15  O   UNL     1      -8.152   1.750 125.541  0.00  0.00    +0.000 OA
ATOM     16  C   UNL     1      -7.659   1.849 126.866  0.00  0.00    +0.000 C 
ATOM     17  C   UNL     1      -8.023   0.554 127.626  0.00  0.00    +0.000 C 
ATOM     18  C   UNL     1      -7.655   0.616 129.105  0.00  0.00    +0.000 C 
ATOM     19  O   UNL     1      -8.120   0.774 123.466  0.00  0.00    +0.000 OA
ENDROOT
BRANCH  16  20
ATOM     20  O   UNL     1      -8.271   2.980 127.527  0.00  0.00    +0.000 OA
BRANCH  20  21
ATOM     21  C   UNL     1      -7.878   4.197 127.054  0.00  0.00    +0.000 C 
ATOM     22  O   UNL     1      -8.593   5.188 126.969  0.00  0.00    +0.000 OA
BRANCH  21  23
ATOM     23  C   UNL     1      -6.440   4.154 126.582  0.00  0.00    +0.000 C 
BRANCH  23  24
ATOM     24  C   UNL     1      -6.268   4.943 125.287  0.00  0.00    +0.000 C 
BRANCH  24  25
ATOM     25  C   UNL     1      -6.533   4.210 123.991  0.00  0.00    +0.000 C 
ATOM     26  O   UNL     1      -5.623   3.854 123.253  0.00  0.00    +0.000 OA
BRANCH  25  27
ATOM     27  O   UNL     1      -7.816   3.962 123.670  0.00  0.00    +0.000 OA
ATOM     28  H   UNL     1      -8.011   3.194 123.108  0.00  0.00    +0.000 HD
ENDBRANCH  25  27
ENDBRANCH  24  25
ENDBRANCH  23  24
ENDBRANCH  21  23
ENDBRANCH  20  21
ENDBRANCH  16  20
TORSDOF 6
ENDMDL
MODEL 4
REMARK VINA RESULT:      -8.0      1.571      2.088
REMARK  Name = Artesunate
REMARK  9 active torsions:
REMARK  status: ('A' for Active; 'I' for Inactive)
REMARK    1  A    between atoms: C_5  and  C_6
REMARK    2  A    between atoms: C_11  and  C_12
REMARK    3  A    between atoms: C_19  and  O_20
REMARK    4  A    between atoms: O_20  and  C_21
REMARK    5  A    between atoms: C_21  and  C_23
REMARK    6  A    between atoms: C_23  and  C_24
REMARK    7  A    between atoms: C_24  and  C_25
REMARK    8  A    between atoms: C_25  and  O_26
REMARK    9  A    between atoms: C_28  and  C_29
REMARK                            x       y       z     vdW  Elec       q    Type
REMARK                         _______ _______ _______ _____ _____    ______ ____
ROOT
ATOM      1  C   UNL     1      -8.349   0.491 127.326  0.00  0.00    +0.000 C 
ATOM      2  C   UNL     1      -7.288   0.294 128.422  0.00  0.00    +0.000 C 
ATOM      3  C   UNL     1      -7.505  -1.013 129.176  0.00  0.00    +0.000 C 
ATOM      4  C   UNL     1      -7.448  -2.223 128.241  0.00  0.00    +0.000 C 
ATOM      5  C   UNL     1      -7.698  -3.497 129.059  0.00  0.00    +0.000 C 
ATOM      6  C   UNL     1      -8.469  -2.075 127.086  0.00  0.00    +0.000 C 
ATOM      7  C   UNL     1      -8.360  -3.276 126.122  0.00  0.00    +0.000 C 
ATOM      8  C   UNL     1      -9.118  -3.118 124.802  0.00  0.00    +0.000 C 
ATOM      9  C   UNL     1      -8.663  -1.886 123.998  0.00  0.00    +0.000 C 
ATOM     10  C   UNL     1      -8.746  -2.162 122.502  0.00  0.00    +0.000 C 
ATOM     11  O   UNL     1      -9.506  -0.752 124.243  0.00  0.00    +0.000 OA
ATOM     12  O   UNL     1      -9.684  -0.602 125.686  0.00  0.00    +0.000 OA
ATOM     13  C   UNL     1      -8.392  -0.705 126.348  0.00  0.00    +0.000 C 
ATOM     14  C   UNL     1      -7.218  -0.603 125.326  0.00  0.00    +0.000 C 
ATOM     15  O   UNL     1      -7.174   0.661 124.669  0.00  0.00    +0.000 OA
ATOM     16  C   UNL     1      -6.998   1.763 125.543  0.00  0.00    +0.000 C 
ATOM     17  C   UNL     1      -8.195   1.815 126.518  0.00  0.00    +0.000 C 
ATOM     18  C   UNL     1      -8.170   3.049 127.415  0.00  0.00    +0.000 C 
ATOM     19  O   UNL     1      -7.297  -1.601 124.307  0.00  0.00    +0.000 OA
ENDROOT
BRANCH  16  20
ATOM     20  O   UNL     1      -6.953   2.987 124.775  0.00  0.00    +0.000 OA
BRANCH  20  21
ATOM     21  C   UNL     1      -5.702   3.496 124.587  0.00  0.00    +0.000 C 
ATOM     22  O   UNL     1      -4.790   3.454 125.404  0.00  0.00    +0.000 OA
BRANCH  21  23
ATOM     23  C   UNL     1      -5.596   4.184 123.243  0.00  0.00    +0.000 C 
BRANCH  23  24
ATOM     24  C   UNL     1      -6.078   3.268 122.122  0.00  0.00    +0.000 C 
BRANCH  24  25
ATOM     25  C   UNL     1      -7.377   3.635 121.441  0.00  0.00    +0.000 C 
ATOM     26  O   UNL     1      -7.416   3.975 120.265  0.00  0.00    +0.000 OA
BRANCH  25  27
ATOM     27  O   UNL     1      -8.501   3.579 122.178  0.00  0.00    +0.000 OA
ATOM     28  H   UNL     1      -8.709   4.328 122.760  0.00  0.00    +0.000 HD
ENDBRANCH  25  27
ENDBRANCH  24  25
ENDBRANCH  23  24
ENDBRANCH  21  23
ENDBRANCH  20  21
ENDBRANCH  16  20
TORSDOF 6
ENDMDL
MODEL 5
REMARK VINA RESULT:      -8.0      5.226      7.448
REMARK  Name = Artesunate
REMARK  9 active torsions:
REMARK  status: ('A' for Active; 'I' for Inactive)
REMARK    1  A    between atoms: C_5  and  C_6
REMARK    2  A    between atoms: C_11  and  C_12
REMARK    3  A    between atoms: C_19  and  O_20
REMARK    4  A    between atoms: O_20  and  C_21
REMARK    5  A    between atoms: C_21  and  C_23
REMARK    6  A    between atoms: C_23  and  C_24
REMARK    7  A    between atoms: C_24  and  C_25
REMARK    8  A    between atoms: C_25  and  O_26
REMARK    9  A    between atoms: C_28  and  C_29
REMARK                            x       y       z     vdW  Elec       q    Type
REMARK                         _______ _______ _______ _____ _____    ______ ____
ROOT
ATOM      1  C   UNL     1      -7.885   4.959 131.340  0.00  0.00    +0.000 C 
ATOM      2  C   UNL     1      -7.097   6.277 131.279  0.00  0.00    +0.000 C 
ATOM      3  C   UNL     1      -5.595   6.023 131.211  0.00  0.00    +0.000 C 
ATOM      4  C   UNL     1      -5.216   5.189 129.986  0.00  0.00    +0.000 C 
ATOM      5  C   UNL     1      -3.700   4.951 129.994  0.00  0.00    +0.000 C 
ATOM      6  C   UNL     1      -6.004   3.856 129.961  0.00  0.00    +0.000 C 
ATOM      7  C   UNL     1      -5.652   3.052 128.691  0.00  0.00    +0.000 C 
ATOM      8  C   UNL     1      -6.560   1.852 128.412  0.00  0.00    +0.000 C 
ATOM      9  C   UNL     1      -8.041   2.246 128.268  0.00  0.00    +0.000 C 
ATOM     10  C   UNL     1      -8.738   1.346 127.254  0.00  0.00    +0.000 C 
ATOM     11  O   UNL     1      -8.755   2.086 129.501  0.00  0.00    +0.000 OA
ATOM     12  O   UNL     1      -7.981   2.706 130.575  0.00  0.00    +0.000 OA
ATOM     13  C   UNL     1      -7.541   4.028 130.156  0.00  0.00    +0.000 C 
ATOM     14  C   UNL     1      -8.291   4.498 128.870  0.00  0.00    +0.000 C 
ATOM     15  O   UNL     1      -9.693   4.647 129.081  0.00  0.00    +0.000 OA
ATOM     16  C   UNL     1     -10.032   5.599 130.074  0.00  0.00    +0.000 C 
ATOM     17  C   UNL     1      -9.431   5.142 131.421  0.00  0.00    +0.000 C 
ATOM     18  C   UNL     1      -9.855   6.031 132.587  0.00  0.00    +0.000 C 
ATOM     19  O   UNL     1      -8.126   3.587 127.782  0.00  0.00    +0.000 OA
ENDROOT
BRANCH  16  20
ATOM     20  O   UNL     1     -11.470   5.681 130.194  0.00  0.00    +0.000 OA
BRANCH  20  21
ATOM     21  C   UNL     1     -12.021   6.818 129.682  0.00  0.00    +0.000 C 
ATOM     22  O   UNL     1     -13.222   7.042 129.583  0.00  0.00    +0.000 OA
BRANCH  21  23
ATOM     23  C   UNL     1     -10.946   7.762 129.185  0.00  0.00    +0.000 C 
BRANCH  23  24
ATOM     24  C   UNL     1     -11.219   8.189 127.745  0.00  0.00    +0.000 C 
BRANCH  24  25
ATOM     25  C   UNL     1     -11.043   7.142 126.669  0.00  0.00    +0.000 C 
ATOM     26  O   UNL     1      -9.964   6.595 126.472  0.00  0.00    +0.000 OA
BRANCH  25  27
ATOM     27  O   UNL     1     -12.119   6.830 125.924  0.00  0.00    +0.000 OA
ATOM     28  H   UNL     1     -12.942   7.323 126.074  0.00  0.00    +0.000 HD
ENDBRANCH  25  27
ENDBRANCH  24  25
ENDBRANCH  23  24
ENDBRANCH  21  23
ENDBRANCH  20  21
ENDBRANCH  16  20
TORSDOF 6
ENDMDL
MODEL 6
REMARK VINA RESULT:      -7.7      3.248      5.966
REMARK  Name = Artesunate
REMARK  9 active torsions:
REMARK  status: ('A' for Active; 'I' for Inactive)
REMARK    1  A    between atoms: C_5  and  C_6
REMARK    2  A    between atoms: C_11  and  C_12
REMARK    3  A    between atoms: C_19  and  O_20
REMARK    4  A    between atoms: O_20  and  C_21
REMARK    5  A    between atoms: C_21  and  C_23
REMARK    6  A    between atoms: C_23  and  C_24
REMARK    7  A    between atoms: C_24  and  C_25
REMARK    8  A    between atoms: C_25  and  O_26
REMARK    9  A    between atoms: C_28  and  C_29
REMARK                            x       y       z     vdW  Elec       q    Type
REMARK                         _______ _______ _______ _____ _____    ______ ____
ROOT
ATOM      1  C   UNL     1      -7.324   2.405 124.970  0.00  0.00    +0.000 C 
ATOM      2  C   UNL     1      -6.282   3.113 124.088  0.00  0.00    +0.000 C 
ATOM      3  C   UNL     1      -5.359   3.998 124.920  0.00  0.00    +0.000 C 
ATOM      4  C   UNL     1      -4.609   3.192 125.982  0.00  0.00    +0.000 C 
ATOM      5  C   UNL     1      -3.722   4.144 126.796  0.00  0.00    +0.000 C 
ATOM      6  C   UNL     1      -5.598   2.418 126.888  0.00  0.00    +0.000 C 
ATOM      7  C   UNL     1      -4.824   1.568 127.918  0.00  0.00    +0.000 C 
ATOM      8  C   UNL     1      -5.672   0.553 128.689  0.00  0.00    +0.000 C 
ATOM      9  C   UNL     1      -6.389  -0.449 127.764  0.00  0.00    +0.000 C 
ATOM     10  C   UNL     1      -6.499  -1.813 128.435  0.00  0.00    +0.000 C 
ATOM     11  O   UNL     1      -7.730  -0.036 127.473  0.00  0.00    +0.000 OA
ATOM     12  O   UNL     1      -7.714   1.372 127.079  0.00  0.00    +0.000 OA
ATOM     13  C   UNL     1      -6.658   1.590 126.101  0.00  0.00    +0.000 C 
ATOM     14  C   UNL     1      -6.114   0.240 125.540  0.00  0.00    +0.000 C 
ATOM     15  O   UNL     1      -7.105  -0.493 124.825  0.00  0.00    +0.000 OA
ATOM     16  C   UNL     1      -7.632   0.189 123.699  0.00  0.00    +0.000 C 
ATOM     17  C   UNL     1      -8.310   1.489 124.184  0.00  0.00    +0.000 C 
ATOM     18  C   UNL     1      -9.029   2.231 123.061  0.00  0.00    +0.000 C 
ATOM     19  O   UNL     1      -5.621  -0.618 126.570  0.00  0.00    +0.000 OA
ENDROOT
BRANCH  16  20
ATOM     20  O   UNL     1      -8.612  -0.647 123.043  0.00  0.00    +0.000 OA
BRANCH  20  21
ATOM     21  C   UNL     1      -8.181  -1.907 122.749  0.00  0.00    +0.000 C 
ATOM     22  O   UNL     1      -7.172  -2.179 122.109  0.00  0.00    +0.000 OA
BRANCH  21  23
ATOM     23  C   UNL     1      -9.154  -2.945 123.268  0.00  0.00    +0.000 C 
BRANCH  23  24
ATOM     24  C   UNL     1      -8.656  -3.550 124.578  0.00  0.00    +0.000 C 
BRANCH  24  25
ATOM     25  C   UNL     1      -9.193  -2.956 125.860  0.00  0.00    +0.000 C 
ATOM     26  O   UNL     1      -9.230  -3.599 126.903  0.00  0.00    +0.000 OA
BRANCH  25  27
ATOM     27  O   UNL     1      -9.637  -1.687 125.819  0.00  0.00    +0.000 OA
ATOM     28  H   UNL     1     -10.369  -1.474 125.217  0.00  0.00    +0.000 HD
ENDBRANCH  25  27
ENDBRANCH  24  25
ENDBRANCH  23  24
ENDBRANCH  21  23
ENDBRANCH  20  21
ENDBRANCH  16  20
TORSDOF 6
ENDMDL
MODEL 7
REMARK VINA RESULT:      -7.6      4.248      6.454
REMARK  Name = Artesunate
REMARK  9 active torsions:
REMARK  status: ('A' for Active; 'I' for Inactive)
REMARK    1  A    between atoms: C_5  and  C_6
REMARK    2  A    between atoms: C_11  and  C_12
REMARK    3  A    between atoms: C_19  and  O_20
REMARK    4  A    between atoms: O_20  and  C_21
REMARK    5  A    between atoms: C_21  and  C_23
REMARK    6  A    between atoms: C_23  and  C_24
REMARK    7  A    between atoms: C_24  and  C_25
REMARK    8  A    between atoms: C_25  and  O_26
REMARK    9  A    between atoms: C_28  and  C_29
REMARK                            x       y       z     vdW  Elec       q    Type
REMARK                         _______ _______ _______ _____ _____    ______ ____
ROOT
ATOM      1  C   UNL     1      -8.334   2.347 129.984  0.00  0.00    +0.000 C 
ATOM      2  C   UNL     1      -7.417   2.550 131.201  0.00  0.00    +0.000 C 
ATOM      3  C   UNL     1      -6.234   1.587 131.172  0.00  0.00    +0.000 C 
ATOM      4  C   UNL     1      -5.389   1.767 129.909  0.00  0.00    +0.000 C 
ATOM      5  C   UNL     1      -4.236   0.754 129.933  0.00  0.00    +0.000 C 
ATOM      6  C   UNL     1      -6.259   1.613 128.637  0.00  0.00    +0.000 C 
ATOM      7  C   UNL     1      -5.403   1.852 127.375  0.00  0.00    +0.000 C 
ATOM      8  C   UNL     1      -6.195   1.998 126.073  0.00  0.00    +0.000 C 
ATOM      9  C   UNL     1      -7.213   3.153 126.121  0.00  0.00    +0.000 C 
ATOM     10  C   UNL     1      -7.356   3.798 124.748  0.00  0.00    +0.000 C 
ATOM     11  O   UNL     1      -8.520   2.693 126.486  0.00  0.00    +0.000 OA
ATOM     12  O   UNL     1      -8.405   1.831 127.661  0.00  0.00    +0.000 OA
ATOM     13  C   UNL     1      -7.558   2.474 128.653  0.00  0.00    +0.000 C 
ATOM     14  C   UNL     1      -7.322   3.979 128.313  0.00  0.00    +0.000 C 
ATOM     15  O   UNL     1      -8.527   4.739 128.337  0.00  0.00    +0.000 OA
ATOM     16  C   UNL     1      -9.184   4.744 129.593  0.00  0.00    +0.000 C 
ATOM     17  C   UNL     1      -9.572   3.293 129.952  0.00  0.00    +0.000 C 
ATOM     18  C   UNL     1     -10.408   3.205 131.226  0.00  0.00    +0.000 C 
ATOM     19  O   UNL     1      -6.740   4.159 127.021  0.00  0.00    +0.000 OA
ENDROOT
BRANCH  16  20
ATOM     20  O   UNL     1     -10.380   5.553 129.509  0.00  0.00    +0.000 OA
BRANCH  20  21
ATOM     21  C   UNL     1     -10.280   6.779 130.098  0.00  0.00    +0.000 C 
ATOM     22  O   UNL     1     -10.288   6.988 131.305  0.00  0.00    +0.000 OA
BRANCH  21  23
ATOM     23  C   UNL     1     -10.220   7.875 129.055  0.00  0.00    +0.000 C 
BRANCH  23  24
ATOM     24  C   UNL     1     -11.197   7.598 127.916  0.00  0.00    +0.000 C 
BRANCH  24  25
ATOM     25  C   UNL     1     -10.608   7.334 126.549  0.00  0.00    +0.000 C 
ATOM     26  O   UNL     1     -10.881   8.036 125.582  0.00  0.00    +0.000 OA
BRANCH  25  27
ATOM     27  O   UNL     1      -9.769   6.290 126.425  0.00  0.00    +0.000 OA
ATOM     28  H   UNL     1      -8.891   6.447 126.041  0.00  0.00    +0.000 HD
ENDBRANCH  25  27
ENDBRANCH  24  25
ENDBRANCH  23  24
ENDBRANCH  21  23
ENDBRANCH  20  21
ENDBRANCH  16  20
TORSDOF 6
ENDMDL
MODEL 8
REMARK VINA RESULT:      -7.6      3.365      5.934
REMARK  Name = Artesunate
REMARK  9 active torsions:
REMARK  status: ('A' for Active; 'I' for Inactive)
REMARK    1  A    between atoms: C_5  and  C_6
REMARK    2  A    between atoms: C_11  and  C_12
REMARK    3  A    between atoms: C_19  and  O_20
REMARK    4  A    between atoms: O_20  and  C_21
REMARK    5  A    between atoms: C_21  and  C_23
REMARK    6  A    between atoms: C_23  and  C_24
REMARK    7  A    between atoms: C_24  and  C_25
REMARK    8  A    between atoms: C_25  and  O_26
REMARK    9  A    between atoms: C_28  and  C_29
REMARK                            x       y       z     vdW  Elec       q    Type
REMARK                         _______ _______ _______ _____ _____    ______ ____
ROOT
ATOM      1  C   UNL     1      -7.564  -0.754 127.051  0.00  0.00    +0.000 C 
ATOM      2  C   UNL     1      -6.048  -0.891 127.270  0.00  0.00    +0.000 C 
ATOM      3  C   UNL     1      -5.489  -2.104 126.535  0.00  0.00    +0.000 C 
ATOM      4  C   UNL     1      -5.743  -2.020 125.029  0.00  0.00    +0.000 C 
ATOM      5  C   UNL     1      -5.178  -3.280 124.357  0.00  0.00    +0.000 C 
ATOM      6  C   UNL     1      -7.252  -1.842 124.733  0.00  0.00    +0.000 C 
ATOM      7  C   UNL     1      -7.485  -1.703 123.213  0.00  0.00    +0.000 C 
ATOM      8  C   UNL     1      -8.891  -1.252 122.811  0.00  0.00    +0.000 C 
ATOM      9  C   UNL     1      -9.279   0.105 123.426  0.00  0.00    +0.000 C 
ATOM     10  C   UNL     1     -10.174   0.888 122.473  0.00  0.00    +0.000 C 
ATOM     11  O   UNL     1     -10.029  -0.056 124.637  0.00  0.00    +0.000 OA
ATOM     12  O   UNL     1      -9.341  -1.024 125.490  0.00  0.00    +0.000 OA
ATOM     13  C   UNL     1      -7.924  -0.698 125.550  0.00  0.00    +0.000 C 
ATOM     14  C   UNL     1      -7.643   0.730 124.985  0.00  0.00    +0.000 C 
ATOM     15  O   UNL     1      -8.270   1.753 125.754  0.00  0.00    +0.000 OA
ATOM     16  C   UNL     1      -7.849   1.803 127.106  0.00  0.00    +0.000 C 
ATOM     17  C   UNL     1      -8.208   0.462 127.783  0.00  0.00    +0.000 C 
ATOM     18  C   UNL     1      -7.919   0.464 129.282  0.00  0.00    +0.000 C 
ATOM     19  O   UNL     1      -8.097   0.880 123.639  0.00  0.00    +0.000 OA
ENDROOT
BRANCH  16  20
ATOM     20  O   UNL     1      -8.532   2.881 127.785  0.00  0.00    +0.000 OA
BRANCH  20  21
ATOM     21  C   UNL     1      -7.736   3.934 128.126  0.00  0.00    +0.000 C 
ATOM     22  O   UNL     1      -7.006   4.548 127.357  0.00  0.00    +0.000 OA
BRANCH  21  23
ATOM     23  C   UNL     1      -7.822   4.217 129.611  0.00  0.00    +0.000 C 
BRANCH  23  24
ATOM     24  C   UNL     1      -9.068   5.037 129.938  0.00  0.00    +0.000 C 
BRANCH  24  25
ATOM     25  C   UNL     1     -10.239   4.300 130.547  0.00  0.00    +0.000 C 
ATOM     26  O   UNL     1     -11.316   4.212 129.970  0.00  0.00    +0.000 OA
BRANCH  25  27
ATOM     27  O   UNL     1     -10.060   3.741 131.757  0.00  0.00    +0.000 OA
ATOM     28  H   UNL     1      -9.506   2.946 131.821  0.00  0.00    +0.000 HD
ENDBRANCH  25  27
ENDBRANCH  24  25
ENDBRANCH  23  24
ENDBRANCH  21  23
ENDBRANCH  20  21
ENDBRANCH  16  20
TORSDOF 6
ENDMDL
MODEL 9
REMARK VINA RESULT:      -7.5      3.319      4.862
REMARK  Name = Artesunate
REMARK  9 active torsions:
REMARK  status: ('A' for Active; 'I' for Inactive)
REMARK    1  A    between atoms: C_5  and  C_6
REMARK    2  A    between atoms: C_11  and  C_12
REMARK    3  A    between atoms: C_19  and  O_20
REMARK    4  A    between atoms: O_20  and  C_21
REMARK    5  A    between atoms: C_21  and  C_23
REMARK    6  A    between atoms: C_23  and  C_24
REMARK    7  A    between atoms: C_24  and  C_25
REMARK    8  A    between atoms: C_25  and  O_26
REMARK    9  A    between atoms: C_28  and  C_29
REMARK                            x       y       z     vdW  Elec       q    Type
REMARK                         _______ _______ _______ _____ _____    ______ ____
ROOT
ATOM      1  C   UNL     1      -7.472  -0.738 126.941  0.00  0.00    +0.000 C 
ATOM      2  C   UNL     1      -5.954  -0.903 127.117  0.00  0.00    +0.000 C 
ATOM      3  C   UNL     1      -5.448  -2.164 126.424  0.00  0.00    +0.000 C 
ATOM      4  C   UNL     1      -5.751  -2.145 124.924  0.00  0.00    +0.000 C 
ATOM      5  C   UNL     1      -5.239  -3.449 124.296  0.00  0.00    +0.000 C 
ATOM      6  C   UNL     1      -7.264  -1.943 124.669  0.00  0.00    +0.000 C 
ATOM      7  C   UNL     1      -7.545  -1.870 123.153  0.00  0.00    +0.000 C 
ATOM      8  C   UNL     1      -8.952  -1.403 122.775  0.00  0.00    +0.000 C 
ATOM      9  C   UNL     1      -9.287  -0.009 123.336  0.00  0.00    +0.000 C 
ATOM     10  C   UNL     1     -10.195   0.751 122.375  0.00  0.00    +0.000 C 
ATOM     11  O   UNL     1      -9.999  -0.093 124.577  0.00  0.00    +0.000 OA
ATOM     12  O   UNL     1      -9.307  -1.036 125.453  0.00  0.00    +0.000 OA
ATOM     13  C   UNL     1      -7.881  -0.744 125.451  0.00  0.00    +0.000 C 
ATOM     14  C   UNL     1      -7.585   0.647 124.809  0.00  0.00    +0.000 C 
ATOM     15  O   UNL     1      -8.161   1.722 125.547  0.00  0.00    +0.000 OA
ATOM     16  C   UNL     1      -7.694   1.825 126.881  0.00  0.00    +0.000 C 
ATOM     17  C   UNL     1      -8.062   0.528 127.634  0.00  0.00    +0.000 C 
ATOM     18  C   UNL     1      -7.722   0.593 129.120  0.00  0.00    +0.000 C 
ATOM     19  O   UNL     1      -8.080   0.745 123.473  0.00  0.00    +0.000 OA
ENDROOT
BRANCH  16  20
ATOM     20  O   UNL     1      -8.328   2.952 127.529  0.00  0.00    +0.000 OA
BRANCH  20  21
ATOM     21  C   UNL     1      -7.579   4.091 127.551  0.00  0.00    +0.000 C 
ATOM     22  O   UNL     1      -7.504   4.907 126.641  0.00  0.00    +0.000 OA
BRANCH  21  23
ATOM     23  C   UNL     1      -6.791   4.194 128.840  0.00  0.00    +0.000 C 
BRANCH  23  24
ATOM     24  C   UNL     1      -5.303   3.962 128.589  0.00  0.00    +0.000 C 
BRANCH  24  25
ATOM     25  C   UNL     1      -4.436   5.187 128.401  0.00  0.00    +0.000 C 
ATOM     26  O   UNL     1      -3.606   5.524 129.237  0.00  0.00    +0.000 OA
BRANCH  25  27
ATOM     27  O   UNL     1      -4.611   5.905 127.277  0.00  0.00    +0.000 OA
ATOM     28  H   UNL     1      -4.756   5.428 126.443  0.00  0.00    +0.000 HD
ENDBRANCH  25  27
ENDBRANCH  24  25
ENDBRANCH  23  24
ENDBRANCH  21  23
ENDBRANCH  20  21
ENDBRANCH  16  20
TORSDOF 6
ENDMDL
