MODEL 1
REMARK VINA RESULT:      -7.3      0.000      0.000
REMARK  Name = Artenimol
REMARK  4 active torsions:
REMARK  status: ('A' for Active; 'I' for Inactive)
REMARK    1  A    between atoms: C_2  and  C_3
REMARK    2  A    between atoms: C_8  and  C_10
REMARK    3  A    between atoms: C_11  and  O_13
REMARK    4  A    between atoms: C_18  and  C_19
REMARK                            x       y       z     vdW  Elec       q    Type
REMARK                         _______ _______ _______ _____ _____    ______ ____
ROOT
ATOM      1  C   UNL     1      -7.585   6.773 131.281  0.00  0.00    +0.000 C 
ATOM      2  C   UNL     1      -5.737   7.063 130.936  0.00  0.00    +0.000 C 
ATOM      3  C   UNL     1      -6.924   5.701 132.099  0.00  0.00    +0.000 C 
ATOM      4  C   UNL     1      -7.704   5.616 133.362  0.00  0.00    +0.000 C 
ATOM      5  C   UNL     1      -8.748   4.621 132.974  0.00  0.00    +0.000 C 
ATOM      6  C   UNL     1      -8.040   3.318 132.543  0.00  0.00    +0.000 C 
ATOM      7  C   UNL     1      -7.467   2.669 133.796  0.00  0.00    +0.000 C 
ATOM      8  C   UNL     1      -8.959   2.403 131.763  0.00  0.00    +0.000 C 
ATOM      9  O   UNL     1      -9.394   2.998 130.553  0.00  0.00    +0.000 OA
ATOM     10  C   UNL     1     -10.224   4.094 130.825  0.00  0.00    +0.000 C 
ATOM     11  O   UNL     1     -10.523   5.104 129.303  0.00  0.00    +0.000 OA
ATOM     12  C   UNL     1     -11.140   6.786 130.003  0.00  0.00    +0.000 C 
ATOM     13  C   UNL     1     -11.682   7.461 128.763  0.00  0.00    +0.000 C 
ATOM     14  C   UNL     1     -12.212   6.709 131.258  0.00  0.00    +0.000 C 
ATOM     15  C   UNL     1     -11.454   5.637 130.721  0.00  0.00    +0.000 C 
ATOM     16  C   UNL     1      -9.319   5.819 130.710  0.00  0.00    +0.000 C 
ATOM     17  C   UNL     1      -9.645   5.201 131.920  0.00  0.00    +0.000 C 
ATOM     18  O   UNL     1     -10.105   6.629 132.303  0.00  0.00    +0.000 OA
ATOM     19  O   UNL     1     -10.243   7.604 130.879  0.00  0.00    +0.000 OA
ENDROOT
BRANCH   8  20
ATOM     20  O   UNL     1     -10.049   2.033 132.580  0.00  0.00    +0.000 OA
ATOM     21  H   UNL     1     -10.676   2.773 132.554  0.00  0.00    +0.000 HD
ENDBRANCH   8  20
TORSDOF 1
ENDMDL
MODEL 2
REMARK VINA RESULT:      -7.3      1.790      3.779
REMARK  Name = Artenimol
REMARK  4 active torsions:
REMARK  status: ('A' for Active; 'I' for Inactive)
REMARK    1  A    between atoms: C_2  and  C_3
REMARK    2  A    between atoms: C_8  and  C_10
REMARK    3  A    between atoms: C_11  and  O_13
REMARK    4  A    between atoms: C_18  and  C_19
REMARK                            x       y       z     vdW  Elec       q    Type
REMARK                         _______ _______ _______ _____ _____    ______ ____
ROOT
ATOM      1  C   UNL     1      -9.970   3.161 130.879  0.00  0.00    +0.000 C 
ATOM      2  C   UNL     1      -9.932   1.516 131.835  0.00  0.00    +0.000 C 
ATOM      3  C   UNL     1      -8.517   2.785 130.834  0.00  0.00    +0.000 C 
ATOM      4  C   UNL     1      -8.042   3.165 129.478  0.00  0.00    +0.000 C 
ATOM      5  C   UNL     1      -7.629   4.580 129.715  0.00  0.00    +0.000 C 
ATOM      6  C   UNL     1      -6.551   4.591 130.822  0.00  0.00    +0.000 C 
ATOM      7  C   UNL     1      -5.275   4.009 130.228  0.00  0.00    +0.000 C 
ATOM      8  C   UNL     1      -6.360   5.970 131.414  0.00  0.00    +0.000 C 
ATOM      9  O   UNL     1      -7.536   6.441 132.048  0.00  0.00    +0.000 OA
ATOM     10  C   UNL     1      -8.541   6.662 131.096  0.00  0.00    +0.000 C 
ATOM     11  O   UNL     1     -10.184   6.933 131.905  0.00  0.00    +0.000 OA
ATOM     12  C   UNL     1     -11.436   6.620 130.479  0.00  0.00    +0.000 C 
ATOM     13  C   UNL     1     -12.721   7.160 131.066  0.00  0.00    +0.000 C 
ATOM     14  C   UNL     1     -11.042   7.253 129.005  0.00  0.00    +0.000 C 
ATOM     15  C   UNL     1     -10.199   7.157 130.141  0.00  0.00    +0.000 C 
ATOM     16  C   UNL     1      -9.844   5.214 130.972  0.00  0.00    +0.000 C 
ATOM     17  C   UNL     1      -8.831   5.420 130.032  0.00  0.00    +0.000 C 
ATOM     18  O   UNL     1      -9.977   5.155 129.025  0.00  0.00    +0.000 OA
ATOM     19  O   UNL     1     -11.506   5.272 129.831  0.00  0.00    +0.000 OA
ENDROOT
BRANCH   8  20
ATOM     20  O   UNL     1      -5.926   6.854 130.403  0.00  0.00    +0.000 OA
ATOM     21  H   UNL     1      -5.227   7.400 130.795  0.00  0.00    +0.000 HD
ENDBRANCH   8  20
TORSDOF 1
ENDMDL
MODEL 3
REMARK VINA RESULT:      -7.0      7.432      8.485
REMARK  Name = Artenimol
REMARK  4 active torsions:
REMARK  status: ('A' for Active; 'I' for Inactive)
REMARK    1  A    between atoms: C_2  and  C_3
REMARK    2  A    between atoms: C_8  and  C_10
REMARK    3  A    between atoms: C_11  and  O_13
REMARK    4  A    between atoms: C_18  and  C_19
REMARK                            x       y       z     vdW  Elec       q    Type
REMARK                         _______ _______ _______ _____ _____    ______ ____
ROOT
ATOM      1  C   UNL     1      -6.629   3.430 122.344  0.00  0.00    +0.000 C 
ATOM      2  C   UNL     1      -5.290   4.013 121.125  0.00  0.00    +0.000 C 
ATOM      3  C   UNL     1      -5.558   3.956 123.256  0.00  0.00    +0.000 C 
ATOM      4  C   UNL     1      -6.270   4.646 124.364  0.00  0.00    +0.000 C 
ATOM      5  C   UNL     1      -6.467   3.511 125.314  0.00  0.00    +0.000 C 
ATOM      6  C   UNL     1      -5.080   2.935 125.676  0.00  0.00    +0.000 C 
ATOM      7  C   UNL     1      -4.380   3.949 126.570  0.00  0.00    +0.000 C 
ATOM      8  C   UNL     1      -5.181   1.560 126.297  0.00  0.00    +0.000 C 
ATOM      9  O   UNL     1      -5.744   0.616 125.403  0.00  0.00    +0.000 OA
ATOM     10  C   UNL     1      -7.088   0.930 125.153  0.00  0.00    +0.000 C 
ATOM     11  O   UNL     1      -7.754  -0.054 123.734  0.00  0.00    +0.000 OA
ATOM     12  C   UNL     1      -9.324   0.929 123.215  0.00  0.00    +0.000 C 
ATOM     13  C   UNL     1     -10.016  -0.051 122.294  0.00  0.00    +0.000 C 
ATOM     14  C   UNL     1     -10.273   1.498 124.441  0.00  0.00    +0.000 C 
ATOM     15  C   UNL     1      -8.972   0.945 124.560  0.00  0.00    +0.000 C 
ATOM     16  C   UNL     1      -7.378   1.879 123.472  0.00  0.00    +0.000 C 
ATOM     17  C   UNL     1      -7.407   2.502 124.723  0.00  0.00    +0.000 C 
ATOM     18  O   UNL     1      -8.665   3.188 124.137  0.00  0.00    +0.000 OA
ATOM     19  O   UNL     1      -9.194   2.337 122.724  0.00  0.00    +0.000 OA
ENDROOT
BRANCH   8  20
ATOM     20  O   UNL     1      -5.921   1.644 127.496  0.00  0.00    +0.000 OA
ATOM     21  H   UNL     1      -6.680   2.219 127.311  0.00  0.00    +0.000 HD
ENDBRANCH   8  20
TORSDOF 1
ENDMDL
MODEL 4
REMARK VINA RESULT:      -6.8      7.311      9.190
REMARK  Name = Artenimol
REMARK  4 active torsions:
REMARK  status: ('A' for Active; 'I' for Inactive)
REMARK    1  A    between atoms: C_2  and  C_3
REMARK    2  A    between atoms: C_8  and  C_10
REMARK    3  A    between atoms: C_11  and  O_13
REMARK    4  A    between atoms: C_18  and  C_19
REMARK                            x       y       z     vdW  Elec       q    Type
REMARK                         _______ _______ _______ _____ _____    ______ ____
ROOT
ATOM      1  C   UNL     1      -6.617  -0.437 126.933  0.00  0.00    +0.000 C 
ATOM      2  C   UNL     1      -6.365  -0.303 128.814  0.00  0.00    +0.000 C 
ATOM      3  C   UNL     1      -6.298   1.019 127.121  0.00  0.00    +0.000 C 
ATOM      4  C   UNL     1      -5.441   1.399 125.968  0.00  0.00    +0.000 C 
ATOM      5  C   UNL     1      -6.479   1.795 124.971  0.00  0.00    +0.000 C 
ATOM      6  C   UNL     1      -7.321   2.940 125.577  0.00  0.00    +0.000 C 
ATOM      7  C   UNL     1      -6.450   4.188 125.604  0.00  0.00    +0.000 C 
ATOM      8  C   UNL     1      -8.625   3.139 124.837  0.00  0.00    +0.000 C 
ATOM      9  O   UNL     1      -9.457   1.995 124.915  0.00  0.00    +0.000 OA
ATOM     10  C   UNL     1      -8.877   0.927 124.216  0.00  0.00    +0.000 C 
ATOM     11  O   UNL     1      -9.743  -0.667 124.586  0.00  0.00    +0.000 OA
ATOM     12  C   UNL     1      -8.470  -1.999 124.035  0.00  0.00    +0.000 C 
ATOM     13  C   UNL     1      -9.311  -3.256 124.036  0.00  0.00    +0.000 C 
ATOM     14  C   UNL     1      -7.677  -1.712 122.613  0.00  0.00    +0.000 C 
ATOM     15  C   UNL     1      -8.486  -0.797 123.335  0.00  0.00    +0.000 C 
ATOM     16  C   UNL     1      -7.941  -0.349 125.359  0.00  0.00    +0.000 C 
ATOM     17  C   UNL     1      -7.287   0.598 124.566  0.00  0.00    +0.000 C 
ATOM     18  O   UNL     1      -6.371  -0.603 124.226  0.00  0.00    +0.000 OA
ATOM     19  O   UNL     1      -7.135  -2.081 124.709  0.00  0.00    +0.000 OA
ENDROOT
BRANCH   8  20
ATOM     20  O   UNL     1      -8.351   3.489 123.497  0.00  0.00    +0.000 OA
ATOM     21  H   UNL     1      -9.035   3.064 122.956  0.00  0.00    +0.000 HD
ENDBRANCH   8  20
TORSDOF 1
ENDMDL
MODEL 5
REMARK VINA RESULT:      -6.8      7.595      9.974
REMARK  Name = Artenimol
REMARK  4 active torsions:
REMARK  status: ('A' for Active; 'I' for Inactive)
REMARK    1  A    between atoms: C_2  and  C_3
REMARK    2  A    between atoms: C_8  and  C_10
REMARK    3  A    between atoms: C_11  and  O_13
REMARK    4  A    between atoms: C_18  and  C_19
REMARK                            x       y       z     vdW  Elec       q    Type
REMARK                         _______ _______ _______ _____ _____    ______ ____
ROOT
ATOM      1  C   UNL     1      -5.678  -2.832 124.962  0.00  0.00    +0.000 C 
ATOM      2  C   UNL     1      -4.522  -3.287 123.520  0.00  0.00    +0.000 C 
ATOM      3  C   UNL     1      -6.572  -2.690 123.763  0.00  0.00    +0.000 C 
ATOM      4  C   UNL     1      -7.899  -3.212 124.183  0.00  0.00    +0.000 C 
ATOM      5  C   UNL     1      -8.517  -1.974 124.743  0.00  0.00    +0.000 C 
ATOM      6  C   UNL     1      -8.549  -0.901 123.631  0.00  0.00    +0.000 C 
ATOM      7  C   UNL     1      -9.602  -1.322 122.615  0.00  0.00    +0.000 C 
ATOM      8  C   UNL     1      -8.776   0.487 124.187  0.00  0.00    +0.000 C 
ATOM      9  O   UNL     1      -7.727   0.889 125.050  0.00  0.00    +0.000 OA
ATOM     10  C   UNL     1      -7.726   0.100 126.209  0.00  0.00    +0.000 C 
ATOM     11  O   UNL     1      -6.176   0.349 127.190  0.00  0.00    +0.000 OA
ATOM     12  C   UNL     1      -6.127  -1.195 128.336  0.00  0.00    +0.000 C 
ATOM     13  C   UNL     1      -5.058  -0.809 129.334  0.00  0.00    +0.000 C 
ATOM     14  C   UNL     1      -7.562  -1.648 129.018  0.00  0.00    +0.000 C 
ATOM     15  C   UNL     1      -7.376  -0.697 127.983  0.00  0.00    +0.000 C 
ATOM     16  C   UNL     1      -6.414  -1.345 126.181  0.00  0.00    +0.000 C 
ATOM     17  C   UNL     1      -7.782  -1.544 125.978  0.00  0.00    +0.000 C 
ATOM     18  O   UNL     1      -7.553  -2.740 126.935  0.00  0.00    +0.000 OA
ATOM     19  O   UNL     1      -6.030  -2.564 127.741  0.00  0.00    +0.000 OA
ENDROOT
BRANCH   8  20
ATOM     20  O   UNL     1     -10.028   0.528 124.838  0.00  0.00    +0.000 OA
ATOM     21  H   UNL     1     -10.386   1.417 124.690  0.00  0.00    +0.000 HD
ENDBRANCH   8  20
TORSDOF 1
ENDMDL
MODEL 6
REMARK VINA RESULT:      -6.6      7.349      9.519
REMARK  Name = Artenimol
REMARK  4 active torsions:
REMARK  status: ('A' for Active; 'I' for Inactive)
REMARK    1  A    between atoms: C_2  and  C_3
REMARK    2  A    between atoms: C_8  and  C_10
REMARK    3  A    between atoms: C_11  and  O_13
REMARK    4  A    between atoms: C_18  and  C_19
REMARK                            x       y       z     vdW  Elec       q    Type
REMARK                         _______ _______ _______ _____ _____    ______ ____
ROOT
ATOM      1  C   UNL     1      -7.720  -2.815 127.605  0.00  0.00    +0.000 C 
ATOM      2  C   UNL     1      -8.262  -3.213 129.385  0.00  0.00    +0.000 C 
ATOM      3  C   UNL     1      -6.995  -1.776 128.412  0.00  0.00    +0.000 C 
ATOM      4  C   UNL     1      -5.656  -1.635 127.782  0.00  0.00    +0.000 C 
ATOM      5  C   UNL     1      -5.941  -0.586 126.759  0.00  0.00    +0.000 C 
ATOM      6  C   UNL     1      -6.466   0.672 127.487  0.00  0.00    +0.000 C 
ATOM      7  C   UNL     1      -5.294   1.297 128.231  0.00  0.00    +0.000 C 
ATOM      8  C   UNL     1      -7.153   1.631 126.541  0.00  0.00    +0.000 C 
ATOM      9  O   UNL     1      -8.300   1.052 125.942  0.00  0.00    +0.000 OA
ATOM     10  C   UNL     1      -7.922   0.008 125.086  0.00  0.00    +0.000 C 
ATOM     11  O   UNL     1      -9.387  -0.996 124.564  0.00  0.00    +0.000 OA
ATOM     12  C   UNL     1      -8.599  -2.633 123.935  0.00  0.00    +0.000 C 
ATOM     13  C   UNL     1      -9.762  -3.287 123.223  0.00  0.00    +0.000 C 
ATOM     14  C   UNL     1      -7.234  -2.485 123.015  0.00  0.00    +0.000 C 
ATOM     15  C   UNL     1      -7.867  -1.463 123.768  0.00  0.00    +0.000 C 
ATOM     16  C   UNL     1      -8.111  -1.768 125.875  0.00  0.00    +0.000 C 
ATOM     17  C   UNL     1      -6.882  -1.121 125.720  0.00  0.00    +0.000 C 
ATOM     18  O   UNL     1      -6.429  -2.517 125.226  0.00  0.00    +0.000 OA
ATOM     19  O   UNL     1      -7.815  -3.495 124.876  0.00  0.00    +0.000 OA
ENDROOT
BRANCH   8  20
ATOM     20  O   UNL     1      -6.227   2.070 125.570  0.00  0.00    +0.000 OA
ATOM     21  H   UNL     1      -5.377   1.662 125.796  0.00  0.00    +0.000 HD
ENDBRANCH   8  20
TORSDOF 1
ENDMDL
MODEL 7
REMARK VINA RESULT:      -6.4      7.450      9.464
REMARK  Name = Artenimol
REMARK  4 active torsions:
REMARK  status: ('A' for Active; 'I' for Inactive)
REMARK    1  A    between atoms: C_2  and  C_3
REMARK    2  A    between atoms: C_8  and  C_10
REMARK    3  A    between atoms: C_11  and  O_13
REMARK    4  A    between atoms: C_18  and  C_19
REMARK                            x       y       z     vdW  Elec       q    Type
REMARK                         _______ _______ _______ _____ _____    ______ ____
ROOT
ATOM      1  C   UNL     1      -6.060   1.785 125.650  0.00  0.00    +0.000 C 
ATOM      2  C   UNL     1      -5.600   3.522 126.277  0.00  0.00    +0.000 C 
ATOM      3  C   UNL     1      -6.676   2.684 124.616  0.00  0.00    +0.000 C 
ATOM      4  C   UNL     1      -6.467   2.005 123.311  0.00  0.00    +0.000 C 
ATOM      5  C   UNL     1      -7.691   1.153 123.244  0.00  0.00    +0.000 C 
ATOM      6  C   UNL     1      -8.929   2.075 123.320  0.00  0.00    +0.000 C 
ATOM      7  C   UNL     1      -9.024   2.829 122.001  0.00  0.00    +0.000 C 
ATOM      8  C   UNL     1     -10.187   1.309 123.662  0.00  0.00    +0.000 C 
ATOM      9  O   UNL     1     -10.107   0.702 124.939  0.00  0.00    +0.000 OA
ATOM     10  C   UNL     1      -9.135  -0.308 124.933  0.00  0.00    +0.000 C 
ATOM     11  O   UNL     1      -8.749  -0.879 126.652  0.00  0.00    +0.000 OA
ATOM     12  C   UNL     1      -7.056  -1.770 126.451  0.00  0.00    +0.000 C 
ATOM     13  C   UNL     1      -6.927  -2.498 127.770  0.00  0.00    +0.000 C 
ATOM     14  C   UNL     1      -6.889  -2.736 125.122  0.00  0.00    +0.000 C 
ATOM     15  C   UNL     1      -7.938  -1.816 125.377  0.00  0.00    +0.000 C 
ATOM     16  C   UNL     1      -7.420   0.240 125.689  0.00  0.00    +0.000 C 
ATOM     17  C   UNL     1      -7.649   0.106 124.317  0.00  0.00    +0.000 C 
ATOM     18  O   UNL     1      -6.271  -0.600 124.353  0.00  0.00    +0.000 OA
ATOM     19  O   UNL     1      -5.859  -1.001 125.986  0.00  0.00    +0.000 OA
ENDROOT
BRANCH   8  20
ATOM     20  O   UNL     1     -10.441   0.356 122.651  0.00  0.00    +0.000 OA
ATOM     21  H   UNL     1     -11.375   0.453 122.410  0.00  0.00    +0.000 HD
ENDBRANCH   8  20
TORSDOF 1
ENDMDL
MODEL 8
REMARK VINA RESULT:      -6.4      7.489      9.590
REMARK  Name = Artenimol
REMARK  4 active torsions:
REMARK  status: ('A' for Active; 'I' for Inactive)
REMARK    1  A    between atoms: C_2  and  C_3
REMARK    2  A    between atoms: C_8  and  C_10
REMARK    3  A    between atoms: C_11  and  O_13
REMARK    4  A    between atoms: C_18  and  C_19
REMARK                            x       y       z     vdW  Elec       q    Type
REMARK                         _______ _______ _______ _____ _____    ______ ____
ROOT
ATOM      1  C   UNL     1      -7.873  -1.962 127.829  0.00  0.00    +0.000 C 
ATOM      2  C   UNL     1      -8.025  -3.536 128.888  0.00  0.00    +0.000 C 
ATOM      3  C   UNL     1      -8.527  -2.933 126.887  0.00  0.00    +0.000 C 
ATOM      4  C   UNL     1      -9.526  -2.144 126.120  0.00  0.00    +0.000 C 
ATOM      5  C   UNL     1      -8.685  -1.666 124.983  0.00  0.00    +0.000 C 
ATOM      6  C   UNL     1      -8.113  -2.900 124.251  0.00  0.00    +0.000 C 
ATOM      7  C   UNL     1      -9.261  -3.568 123.507  0.00  0.00    +0.000 C 
ATOM      8  C   UNL     1      -6.950  -2.539 123.354  0.00  0.00    +0.000 C 
ATOM      9  O   UNL     1      -5.859  -2.014 124.089  0.00  0.00    +0.000 OA
ATOM     10  C   UNL     1      -6.203  -0.773 124.644  0.00  0.00    +0.000 C 
ATOM     11  O   UNL     1      -4.949  -0.224 125.890  0.00  0.00    +0.000 OA
ATOM     12  C   UNL     1      -5.889   1.115 126.901  0.00  0.00    +0.000 C 
ATOM     13  C   UNL     1      -4.766   1.768 127.676  0.00  0.00    +0.000 C 
ATOM     14  C   UNL     1      -6.820   2.170 126.034  0.00  0.00    +0.000 C 
ATOM     15  C   UNL     1      -6.215   0.979 125.556  0.00  0.00    +0.000 C 
ATOM     16  C   UNL     1      -6.718  -0.865 126.524  0.00  0.00    +0.000 C 
ATOM     17  C   UNL     1      -7.636  -0.716 125.481  0.00  0.00    +0.000 C 
ATOM     18  O   UNL     1      -8.249   0.344 126.430  0.00  0.00    +0.000 OA
ATOM     19  O   UNL     1      -7.114   0.743 127.676  0.00  0.00    +0.000 OA
ENDROOT
BRANCH   8  20
ATOM     20  O   UNL     1      -7.390  -1.636 122.362  0.00  0.00    +0.000 OA
ATOM     21  H   UNL     1      -6.609  -1.401 121.837  0.00  0.00    +0.000 HD
ENDBRANCH   8  20
TORSDOF 1
ENDMDL
MODEL 9
REMARK VINA RESULT:      -6.3      4.402      6.403
REMARK  Name = Artenimol
REMARK  4 active torsions:
REMARK  status: ('A' for Active; 'I' for Inactive)
REMARK    1  A    between atoms: C_2  and  C_3
REMARK    2  A    between atoms: C_8  and  C_10
REMARK    3  A    between atoms: C_11  and  O_13
REMARK    4  A    between atoms: C_18  and  C_19
REMARK                            x       y       z     vdW  Elec       q    Type
REMARK                         _______ _______ _______ _____ _____    ______ ____
ROOT
ATOM      1  C   UNL     1      -2.278   6.129 130.409  0.00  0.00    +0.000 C 
ATOM      2  C   UNL     1      -1.138   6.632 131.847  0.00  0.00    +0.000 C 
ATOM      3  C   UNL     1      -3.252   6.461 131.503  0.00  0.00    +0.000 C 
ATOM      4  C   UNL     1      -4.387   7.153 130.839  0.00  0.00    +0.000 C 
ATOM      5  C   UNL     1      -5.248   5.988 130.479  0.00  0.00    +0.000 C 
ATOM      6  C   UNL     1      -5.603   5.228 131.777  0.00  0.00    +0.000 C 
ATOM      7  C   UNL     1      -6.585   6.088 132.560  0.00  0.00    +0.000 C 
ATOM      8  C   UNL     1      -6.121   3.835 131.495  0.00  0.00    +0.000 C 
ATOM      9  O   UNL     1      -5.147   3.028 130.856  0.00  0.00    +0.000 OA
ATOM     10  C   UNL     1      -4.887   3.516 129.568  0.00  0.00    +0.000 C 
ATOM     11  O   UNL     1      -3.384   2.717 128.839  0.00  0.00    +0.000 OA
ATOM     12  C   UNL     1      -2.897   3.913 127.413  0.00  0.00    +0.000 C 
ATOM     13  C   UNL     1      -1.892   3.088 126.642  0.00  0.00    +0.000 C 
ATOM     14  C   UNL     1      -4.138   4.505 126.496  0.00  0.00    +0.000 C 
ATOM     15  C   UNL     1      -4.248   3.795 127.719  0.00  0.00    +0.000 C 
ATOM     16  C   UNL     1      -3.272   4.605 129.446  0.00  0.00    +0.000 C 
ATOM     17  C   UNL     1      -4.563   5.140 129.449  0.00  0.00    +0.000 C 
ATOM     18  O   UNL     1      -3.996   6.010 128.299  0.00  0.00    +0.000 OA
ATOM     19  O   UNL     1      -2.512   5.326 127.723  0.00  0.00    +0.000 OA
ENDROOT
BRANCH   8  20
ATOM     20  O   UNL     1      -7.304   3.924 130.730  0.00  0.00    +0.000 OA
ATOM     21  H   UNL     1      -8.021   3.590 131.291  0.00  0.00    +0.000 HD
ENDBRANCH   8  20
TORSDOF 1
ENDMDL
