MODEL 1
REMARK VINA RESULT:      -7.1      0.000      0.000
REMARK  Name = Artemotil
REMARK  6 active torsions:
REMARK  status: ('A' for Active; 'I' for Inactive)
REMARK    1  A    between atoms: C_5  and  C_6
REMARK    2  A    between atoms: C_11  and  C_12
REMARK    3  A    between atoms: C_19  and  O_20
REMARK    4  A    between atoms: O_20  and  C_21
REMARK    5  A    between atoms: C_21  and  C_22
REMARK    6  A    between atoms: C_23  and  C_24
REMARK                            x       y       z     vdW  Elec       q    Type
REMARK                         _______ _______ _______ _____ _____    ______ ____
ROOT
ATOM      1  C   UNL     1      -5.656  -1.133 126.378  0.00  0.00    +0.000 C 
ATOM      2  C   UNL     1      -5.406   0.251 127.010  0.00  0.00    +0.000 C 
ATOM      3  C   UNL     1      -5.488   1.395 126.020  0.00  0.00    +0.000 C 
ATOM      4  C   UNL     1      -6.708   1.340 125.093  0.00  0.00    +0.000 C 
ATOM      5  C   UNL     1      -6.580   2.513 124.108  0.00  0.00    +0.000 C 
ATOM      6  C   UNL     1      -6.821  -0.029 124.358  0.00  0.00    +0.000 C 
ATOM      7  C   UNL     1      -8.049  -0.061 123.414  0.00  0.00    +0.000 C 
ATOM      8  C   UNL     1      -8.408  -1.441 122.826  0.00  0.00    +0.000 C 
ATOM      9  C   UNL     1      -8.678  -2.537 123.875  0.00  0.00    +0.000 C 
ATOM     10  C   UNL     1      -9.769  -3.504 123.431  0.00  0.00    +0.000 C 
ATOM     11  O   UNL     1      -7.512  -3.284 124.218  0.00  0.00    +0.000 OA
ATOM     12  O   UNL     1      -6.390  -2.362 124.443  0.00  0.00    +0.000 OA
ATOM     13  C   UNL     1      -6.799  -1.258 125.313  0.00  0.00    +0.000 C 
ATOM     14  C   UNL     1      -8.203  -1.567 125.928  0.00  0.00    +0.000 C 
ATOM     15  O   UNL     1      -8.217  -2.486 127.012  0.00  0.00    +0.000 OA
ATOM     16  C   UNL     1      -7.244  -2.279 128.033  0.00  0.00    +0.000 C 
ATOM     17  C   UNL     1      -5.821  -2.256 127.430  0.00  0.00    +0.000 C 
ATOM     18  C   UNL     1      -4.728  -2.260 128.501  0.00  0.00    +0.000 C 
ATOM     19  O   UNL     1      -9.229  -1.941 125.031  0.00  0.00    +0.000 OA
ENDROOT
BRANCH  16  20
ATOM     20  O   UNL     1      -7.521  -1.199 128.956  0.00  0.00    +0.000 OA
BRANCH  20  21
ATOM     21  C   UNL     1      -7.922  -1.631 130.245  0.00  0.00    +0.000 C 
ATOM     22  C   UNL     1      -7.595  -3.040 130.648  0.00  0.00    +0.000 C 
ENDBRANCH  20  21
ENDBRANCH  16  20
TORSDOF 2
ENDMDL
MODEL 2
REMARK VINA RESULT:      -7.0      1.880      4.477
REMARK  Name = Artemotil
REMARK  6 active torsions:
REMARK  status: ('A' for Active; 'I' for Inactive)
REMARK    1  A    between atoms: C_5  and  C_6
REMARK    2  A    between atoms: C_11  and  C_12
REMARK    3  A    between atoms: C_19  and  O_20
REMARK    4  A    between atoms: O_20  and  C_21
REMARK    5  A    between atoms: C_21  and  C_22
REMARK    6  A    between atoms: C_23  and  C_24
REMARK                            x       y       z     vdW  Elec       q    Type
REMARK                         _______ _______ _______ _____ _____    ______ ____
ROOT
ATOM      1  C   UNL     1      -8.294   0.397 127.384  0.00  0.00    +0.000 C 
ATOM      2  C   UNL     1      -7.523   0.182 128.702  0.00  0.00    +0.000 C 
ATOM      3  C   UNL     1      -7.727  -1.192 129.308  0.00  0.00    +0.000 C 
ATOM      4  C   UNL     1      -7.594  -2.348 128.309  0.00  0.00    +0.000 C 
ATOM      5  C   UNL     1      -7.918  -3.643 129.071  0.00  0.00    +0.000 C 
ATOM      6  C   UNL     1      -8.517  -2.154 127.069  0.00  0.00    +0.000 C 
ATOM      7  C   UNL     1      -8.383  -3.338 126.079  0.00  0.00    +0.000 C 
ATOM      8  C   UNL     1      -9.052  -3.142 124.703  0.00  0.00    +0.000 C 
ATOM      9  C   UNL     1      -8.567  -1.906 123.921  0.00  0.00    +0.000 C 
ATOM     10  C   UNL     1      -8.521  -2.155 122.418  0.00  0.00    +0.000 C 
ATOM     11  O   UNL     1      -9.351  -0.741 124.171  0.00  0.00    +0.000 OA
ATOM     12  O   UNL     1      -9.582  -0.608 125.616  0.00  0.00    +0.000 OA
ATOM     13  C   UNL     1      -8.330  -0.784 126.354  0.00  0.00    +0.000 C 
ATOM     14  C   UNL     1      -7.127  -0.786 125.354  0.00  0.00    +0.000 C 
ATOM     15  O   UNL     1      -6.718   0.487 124.874  0.00  0.00    +0.000 OA
ATOM     16  C   UNL     1      -6.573   1.517 125.849  0.00  0.00    +0.000 C 
ATOM     17  C   UNL     1      -7.884   1.695 126.649  0.00  0.00    +0.000 C 
ATOM     18  C   UNL     1      -7.858   2.930 127.552  0.00  0.00    +0.000 C 
ATOM     19  O   UNL     1      -7.215  -1.658 124.246  0.00  0.00    +0.000 OA
ENDROOT
BRANCH  16  20
ATOM     20  O   UNL     1      -5.379   1.450 126.664  0.00  0.00    +0.000 OA
BRANCH  20  21
ATOM     21  C   UNL     1      -4.374   2.377 126.292  0.00  0.00    +0.000 C 
ATOM     22  C   UNL     1      -4.800   3.628 125.580  0.00  0.00    +0.000 C 
ENDBRANCH  20  21
ENDBRANCH  16  20
TORSDOF 2
ENDMDL
MODEL 3
REMARK VINA RESULT:      -6.8      2.173      4.008
REMARK  Name = Artemotil
REMARK  6 active torsions:
REMARK  status: ('A' for Active; 'I' for Inactive)
REMARK    1  A    between atoms: C_5  and  C_6
REMARK    2  A    between atoms: C_11  and  C_12
REMARK    3  A    between atoms: C_19  and  O_20
REMARK    4  A    between atoms: O_20  and  C_21
REMARK    5  A    between atoms: C_21  and  C_22
REMARK    6  A    between atoms: C_23  and  C_24
REMARK                            x       y       z     vdW  Elec       q    Type
REMARK                         _______ _______ _______ _____ _____    ______ ____
ROOT
ATOM      1  C   UNL     1      -7.146  -0.927 126.830  0.00  0.00    +0.000 C 
ATOM      2  C   UNL     1      -5.675  -1.326 127.063  0.00  0.00    +0.000 C 
ATOM      3  C   UNL     1      -5.214  -2.484 126.202  0.00  0.00    +0.000 C 
ATOM      4  C   UNL     1      -5.603  -2.363 124.723  0.00  0.00    +0.000 C 
ATOM      5  C   UNL     1      -5.139  -3.653 124.027  0.00  0.00    +0.000 C 
ATOM      6  C   UNL     1      -7.131  -2.120 124.541  0.00  0.00    +0.000 C 
ATOM      7  C   UNL     1      -7.509  -2.017 123.042  0.00  0.00    +0.000 C 
ATOM      8  C   UNL     1      -8.941  -1.529 122.743  0.00  0.00    +0.000 C 
ATOM      9  C   UNL     1      -9.290  -0.153 123.341  0.00  0.00    +0.000 C 
ATOM     10  C   UNL     1     -10.214   0.653 122.435  0.00  0.00    +0.000 C 
ATOM     11  O   UNL     1      -9.877  -0.237 124.638  0.00  0.00    +0.000 OA
ATOM     12  O   UNL     1      -9.109  -1.183 125.461  0.00  0.00    +0.000 OA
ATOM     13  C   UNL     1      -7.675  -0.909 125.354  0.00  0.00    +0.000 C 
ATOM     14  C   UNL     1      -7.455   0.456 124.623  0.00  0.00    +0.000 C 
ATOM     15  O   UNL     1      -7.666   1.621 125.407  0.00  0.00    +0.000 OA
ATOM     16  C   UNL     1      -7.070   1.632 126.703  0.00  0.00    +0.000 C 
ATOM     17  C   UNL     1      -7.528   0.403 127.521  0.00  0.00    +0.000 C 
ATOM     18  C   UNL     1      -7.099   0.479 128.987  0.00  0.00    +0.000 C 
ATOM     19  O   UNL     1      -8.120   0.638 123.390  0.00  0.00    +0.000 OA
ENDROOT
BRANCH  16  20
ATOM     20  O   UNL     1      -5.644   1.876 126.738  0.00  0.00    +0.000 OA
BRANCH  20  21
ATOM     21  C   UNL     1      -5.297   3.244 126.870  0.00  0.00    +0.000 C 
ATOM     22  C   UNL     1      -4.532   3.887 125.751  0.00  0.00    +0.000 C 
ENDBRANCH  20  21
ENDBRANCH  16  20
TORSDOF 2
ENDMDL
MODEL 4
REMARK VINA RESULT:      -6.8      1.959      4.418
REMARK  Name = Artemotil
REMARK  6 active torsions:
REMARK  status: ('A' for Active; 'I' for Inactive)
REMARK    1  A    between atoms: C_5  and  C_6
REMARK    2  A    between atoms: C_11  and  C_12
REMARK    3  A    between atoms: C_19  and  O_20
REMARK    4  A    between atoms: O_20  and  C_21
REMARK    5  A    between atoms: C_21  and  C_22
REMARK    6  A    between atoms: C_23  and  C_24
REMARK                            x       y       z     vdW  Elec       q    Type
REMARK                         _______ _______ _______ _____ _____    ______ ____
ROOT
ATOM      1  C   UNL     1      -7.978  -1.940 128.697  0.00  0.00    +0.000 C 
ATOM      2  C   UNL     1      -8.327  -3.420 128.438  0.00  0.00    +0.000 C 
ATOM      3  C   UNL     1      -8.993  -3.662 127.099  0.00  0.00    +0.000 C 
ATOM      4  C   UNL     1      -8.306  -2.964 125.918  0.00  0.00    +0.000 C 
ATOM      5  C   UNL     1      -9.159  -3.243 124.670  0.00  0.00    +0.000 C 
ATOM      6  C   UNL     1      -8.123  -1.438 126.170  0.00  0.00    +0.000 C 
ATOM      7  C   UNL     1      -7.443  -0.747 124.962  0.00  0.00    +0.000 C 
ATOM      8  C   UNL     1      -6.983   0.707 125.193  0.00  0.00    +0.000 C 
ATOM      9  C   UNL     1      -6.003   0.894 126.366  0.00  0.00    +0.000 C 
ATOM     10  C   UNL     1      -4.967   1.977 126.088  0.00  0.00    +0.000 C 
ATOM     11  O   UNL     1      -6.655   1.187 127.600  0.00  0.00    +0.000 OA
ATOM     12  O   UNL     1      -7.794   0.277 127.779  0.00  0.00    +0.000 OA
ATOM     13  C   UNL     1      -7.396  -1.105 127.506  0.00  0.00    +0.000 C 
ATOM     14  C   UNL     1      -5.839  -1.186 127.380  0.00  0.00    +0.000 C 
ATOM     15  O   UNL     1      -5.116  -1.172 128.603  0.00  0.00    +0.000 OA
ATOM     16  C   UNL     1      -5.594  -2.034 129.634  0.00  0.00    +0.000 C 
ATOM     17  C   UNL     1      -7.080  -1.741 129.941  0.00  0.00    +0.000 C 
ATOM     18  C   UNL     1      -7.580  -2.479 131.185  0.00  0.00    +0.000 C 
ATOM     19  O   UNL     1      -5.217  -0.273 126.500  0.00  0.00    +0.000 OA
ENDROOT
BRANCH  16  20
ATOM     20  O   UNL     1      -5.280  -3.438 129.475  0.00  0.00    +0.000 OA
BRANCH  20  21
ATOM     21  C   UNL     1      -3.999  -3.800 129.958  0.00  0.00    +0.000 C 
ATOM     22  C   UNL     1      -2.866  -3.860 128.975  0.00  0.00    +0.000 C 
ENDBRANCH  20  21
ENDBRANCH  16  20
TORSDOF 2
ENDMDL
MODEL 5
REMARK VINA RESULT:      -6.8      2.083      5.492
REMARK  Name = Artemotil
REMARK  6 active torsions:
REMARK  status: ('A' for Active; 'I' for Inactive)
REMARK    1  A    between atoms: C_5  and  C_6
REMARK    2  A    between atoms: C_11  and  C_12
REMARK    3  A    between atoms: C_19  and  O_20
REMARK    4  A    between atoms: O_20  and  C_21
REMARK    5  A    between atoms: C_21  and  C_22
REMARK    6  A    between atoms: C_23  and  C_24
REMARK                            x       y       z     vdW  Elec       q    Type
REMARK                         _______ _______ _______ _____ _____    ______ ____
ROOT
ATOM      1  C   UNL     1      -6.752  -2.175 124.883  0.00  0.00    +0.000 C 
ATOM      2  C   UNL     1      -7.957  -3.065 124.517  0.00  0.00    +0.000 C 
ATOM      3  C   UNL     1      -8.499  -3.865 125.683  0.00  0.00    +0.000 C 
ATOM      4  C   UNL     1      -8.688  -3.052 126.971  0.00  0.00    +0.000 C 
ATOM      5  C   UNL     1      -9.153  -4.032 128.060  0.00  0.00    +0.000 C 
ATOM      6  C   UNL     1      -7.387  -2.299 127.381  0.00  0.00    +0.000 C 
ATOM      7  C   UNL     1      -7.591  -1.497 128.690  0.00  0.00    +0.000 C 
ATOM      8  C   UNL     1      -6.460  -0.516 129.059  0.00  0.00    +0.000 C 
ATOM      9  C   UNL     1      -6.150   0.543 127.984  0.00  0.00    +0.000 C 
ATOM     10  C   UNL     1      -5.754   1.884 128.591  0.00  0.00    +0.000 C 
ATOM     11  O   UNL     1      -5.133   0.133 127.071  0.00  0.00    +0.000 OA
ATOM     12  O   UNL     1      -5.392  -1.247 126.639  0.00  0.00    +0.000 OA
ATOM     13  C   UNL     1      -6.794  -1.409 126.250  0.00  0.00    +0.000 C 
ATOM     14  C   UNL     1      -7.480  -0.006 126.165  0.00  0.00    +0.000 C 
ATOM     15  O   UNL     1      -7.196   0.753 124.998  0.00  0.00    +0.000 OA
ATOM     16  C   UNL     1      -7.284   0.063 123.753  0.00  0.00    +0.000 C 
ATOM     17  C   UNL     1      -6.370  -1.183 123.759  0.00  0.00    +0.000 C 
ATOM     18  C   UNL     1      -6.255  -1.833 122.378  0.00  0.00    +0.000 C 
ATOM     19  O   UNL     1      -7.337   0.847 127.282  0.00  0.00    +0.000 OA
ENDROOT
BRANCH  16  20
ATOM     20  O   UNL     1      -8.623  -0.178 123.260  0.00  0.00    +0.000 OA
BRANCH  20  21
ATOM     21  C   UNL     1      -9.374   1.002 123.033  0.00  0.00    +0.000 C 
ATOM     22  C   UNL     1     -10.404   1.389 124.054  0.00  0.00    +0.000 C 
ENDBRANCH  20  21
ENDBRANCH  16  20
TORSDOF 2
ENDMDL
MODEL 6
REMARK VINA RESULT:      -6.5      2.076      3.377
REMARK  Name = Artemotil
REMARK  6 active torsions:
REMARK  status: ('A' for Active; 'I' for Inactive)
REMARK    1  A    between atoms: C_5  and  C_6
REMARK    2  A    between atoms: C_11  and  C_12
REMARK    3  A    between atoms: C_19  and  O_20
REMARK    4  A    between atoms: O_20  and  C_21
REMARK    5  A    between atoms: C_21  and  C_22
REMARK    6  A    between atoms: C_23  and  C_24
REMARK                            x       y       z     vdW  Elec       q    Type
REMARK                         _______ _______ _______ _____ _____    ______ ____
ROOT
ATOM      1  C   UNL     1      -6.088  -1.459 125.005  0.00  0.00    +0.000 C 
ATOM      2  C   UNL     1      -5.668  -1.962 126.401  0.00  0.00    +0.000 C 
ATOM      3  C   UNL     1      -5.641  -0.876 127.457  0.00  0.00    +0.000 C 
ATOM      4  C   UNL     1      -6.880   0.027 127.464  0.00  0.00    +0.000 C 
ATOM      5  C   UNL     1      -6.642   1.114 128.524  0.00  0.00    +0.000 C 
ATOM      6  C   UNL     1      -7.165   0.637 126.058  0.00  0.00    +0.000 C 
ATOM      7  C   UNL     1      -8.410   1.558 126.088  0.00  0.00    +0.000 C 
ATOM      8  C   UNL     1      -8.937   2.017 124.713  0.00  0.00    +0.000 C 
ATOM      9  C   UNL     1      -9.307   0.872 123.750  0.00  0.00    +0.000 C 
ATOM     10  C   UNL     1     -10.511   1.215 122.881  0.00  0.00    +0.000 C 
ATOM     11  O   UNL     1      -8.227   0.479 122.906  0.00  0.00    +0.000 OA
ATOM     12  O   UNL     1      -7.002   0.351 123.707  0.00  0.00    +0.000 OA
ATOM     13  C   UNL     1      -7.262  -0.423 124.922  0.00  0.00    +0.000 C 
ATOM     14  C   UNL     1      -8.678  -1.081 124.832  0.00  0.00    +0.000 C 
ATOM     15  O   UNL     1      -8.772  -2.242 124.018  0.00  0.00    +0.000 OA
ATOM     16  C   UNL     1      -7.758  -3.228 124.198  0.00  0.00    +0.000 C 
ATOM     17  C   UNL     1      -6.356  -2.607 124.004  0.00  0.00    +0.000 C 
ATOM     18  C   UNL     1      -5.247  -3.661 123.966  0.00  0.00    +0.000 C 
ATOM     19  O   UNL     1      -9.760  -0.234 124.503  0.00  0.00    +0.000 OA
ENDROOT
BRANCH  16  20
ATOM     20  O   UNL     1      -7.889  -4.056 125.379  0.00  0.00    +0.000 OA
BRANCH  20  21
ATOM     21  C   UNL     1      -8.921  -3.645 126.259  0.00  0.00    +0.000 C 
ATOM     22  C   UNL     1      -8.639  -3.666 127.733  0.00  0.00    +0.000 C 
ENDBRANCH  20  21
ENDBRANCH  16  20
TORSDOF 2
ENDMDL
MODEL 7
REMARK VINA RESULT:      -6.5      1.832      2.673
REMARK  Name = Artemotil
REMARK  6 active torsions:
REMARK  status: ('A' for Active; 'I' for Inactive)
REMARK    1  A    between atoms: C_5  and  C_6
REMARK    2  A    between atoms: C_11  and  C_12
REMARK    3  A    between atoms: C_19  and  O_20
REMARK    4  A    between atoms: O_20  and  C_21
REMARK    5  A    between atoms: C_21  and  C_22
REMARK    6  A    between atoms: C_23  and  C_24
REMARK                            x       y       z     vdW  Elec       q    Type
REMARK                         _______ _______ _______ _____ _____    ______ ____
ROOT
ATOM      1  C   UNL     1      -7.194   0.043 126.319  0.00  0.00    +0.000 C 
ATOM      2  C   UNL     1      -8.663   0.467 126.522  0.00  0.00    +0.000 C 
ATOM      3  C   UNL     1      -9.393   0.768 125.229  0.00  0.00    +0.000 C 
ATOM      4  C   UNL     1      -9.190  -0.283 124.131  0.00  0.00    +0.000 C 
ATOM      5  C   UNL     1      -9.920   0.225 122.878  0.00  0.00    +0.000 C 
ATOM      6  C   UNL     1      -7.681  -0.555 123.856  0.00  0.00    +0.000 C 
ATOM      7  C   UNL     1      -7.495  -1.606 122.734  0.00  0.00    +0.000 C 
ATOM      8  C   UNL     1      -6.060  -2.141 122.547  0.00  0.00    +0.000 C 
ATOM      9  C   UNL     1      -5.443  -2.782 123.805  0.00  0.00    +0.000 C 
ATOM     10  C   UNL     1      -4.542  -3.964 123.468  0.00  0.00    +0.000 C 
ATOM     11  O   UNL     1      -4.707  -1.856 124.602  0.00  0.00    +0.000 OA
ATOM     12  O   UNL     1      -5.486  -0.619 124.758  0.00  0.00    +0.000 OA
ATOM     13  C   UNL     1      -6.867  -0.926 125.130  0.00  0.00    +0.000 C 
ATOM     14  C   UNL     1      -6.987  -2.440 125.502  0.00  0.00    +0.000 C 
ATOM     15  O   UNL     1      -6.511  -2.803 126.790  0.00  0.00    +0.000 OA
ATOM     16  C   UNL     1      -6.922  -1.974 127.876  0.00  0.00    +0.000 C 
ATOM     17  C   UNL     1      -6.538  -0.501 127.610  0.00  0.00    +0.000 C 
ATOM     18  C   UNL     1      -6.754   0.392 128.833  0.00  0.00    +0.000 C 
ATOM     19  O   UNL     1      -6.471  -3.372 124.573  0.00  0.00    +0.000 OA
ENDROOT
BRANCH  16  20
ATOM     20  O   UNL     1      -8.282  -2.166 128.334  0.00  0.00    +0.000 OA
BRANCH  20  21
ATOM     21  C   UNL     1      -8.402  -3.071 129.417  0.00  0.00    +0.000 C 
ATOM     22  C   UNL     1      -7.156  -3.444 130.166  0.00  0.00    +0.000 C 
ENDBRANCH  20  21
ENDBRANCH  16  20
TORSDOF 2
ENDMDL
MODEL 8
REMARK VINA RESULT:      -6.4      1.932      2.427
REMARK  Name = Artemotil
REMARK  6 active torsions:
REMARK  status: ('A' for Active; 'I' for Inactive)
REMARK    1  A    between atoms: C_5  and  C_6
REMARK    2  A    between atoms: C_11  and  C_12
REMARK    3  A    between atoms: C_19  and  O_20
REMARK    4  A    between atoms: O_20  and  C_21
REMARK    5  A    between atoms: C_21  and  C_22
REMARK    6  A    between atoms: C_23  and  C_24
REMARK                            x       y       z     vdW  Elec       q    Type
REMARK                         _______ _______ _______ _____ _____    ______ ____
ROOT
ATOM      1  C   UNL     1      -5.847  -0.167 125.529  0.00  0.00    +0.000 C 
ATOM      2  C   UNL     1      -5.066   0.542 126.654  0.00  0.00    +0.000 C 
ATOM      3  C   UNL     1      -4.716   1.981 126.338  0.00  0.00    +0.000 C 
ATOM      4  C   UNL     1      -5.879   2.803 125.768  0.00  0.00    +0.000 C 
ATOM      5  C   UNL     1      -5.325   4.194 125.425  0.00  0.00    +0.000 C 
ATOM      6  C   UNL     1      -6.530   2.113 124.532  0.00  0.00    +0.000 C 
ATOM      7  C   UNL     1      -7.691   2.963 123.961  0.00  0.00    +0.000 C 
ATOM      8  C   UNL     1      -8.570   2.271 122.899  0.00  0.00    +0.000 C 
ATOM      9  C   UNL     1      -9.225   0.956 123.362  0.00  0.00    +0.000 C 
ATOM     10  C   UNL     1     -10.614   0.761 122.767  0.00  0.00    +0.000 C 
ATOM     11  O   UNL     1      -8.435  -0.196 123.072  0.00  0.00    +0.000 OA
ATOM     12  O   UNL     1      -7.038   0.061 123.450  0.00  0.00    +0.000 OA
ATOM     13  C   UNL     1      -6.969   0.642 124.792  0.00  0.00    +0.000 C 
ATOM     14  C   UNL     1      -8.370   0.545 125.479  0.00  0.00    +0.000 C 
ATOM     15  O   UNL     1      -8.719  -0.730 125.999  0.00  0.00    +0.000 OA
ATOM     16  C   UNL     1      -7.722  -1.396 126.771  0.00  0.00    +0.000 C 
ATOM     17  C   UNL     1      -6.414  -1.540 125.960  0.00  0.00    +0.000 C 
ATOM     18  C   UNL     1      -5.389  -2.439 126.654  0.00  0.00    +0.000 C 
ATOM     19  O   UNL     1      -9.478   1.031 124.750  0.00  0.00    +0.000 OA
ENDROOT
BRANCH  16  20
ATOM     20  O   UNL     1      -7.539  -0.905 128.121  0.00  0.00    +0.000 OA
BRANCH  20  21
ATOM     21  C   UNL     1      -7.851  -1.853 129.126  0.00  0.00    +0.000 C 
ATOM     22  C   UNL     1      -8.365  -3.196 128.693  0.00  0.00    +0.000 C 
ENDBRANCH  20  21
ENDBRANCH  16  20
TORSDOF 2
ENDMDL
MODEL 9
REMARK VINA RESULT:      -6.3      3.257      5.324
REMARK  Name = Artemotil
REMARK  6 active torsions:
REMARK  status: ('A' for Active; 'I' for Inactive)
REMARK    1  A    between atoms: C_5  and  C_6
REMARK    2  A    between atoms: C_11  and  C_12
REMARK    3  A    between atoms: C_19  and  O_20
REMARK    4  A    between atoms: O_20  and  C_21
REMARK    5  A    between atoms: C_21  and  C_22
REMARK    6  A    between atoms: C_23  and  C_24
REMARK                            x       y       z     vdW  Elec       q    Type
REMARK                         _______ _______ _______ _____ _____    ______ ____
ROOT
ATOM      1  C   UNL     1      -7.516   2.266 127.294  0.00  0.00    +0.000 C 
ATOM      2  C   UNL     1      -6.940   1.103 128.127  0.00  0.00    +0.000 C 
ATOM      3  C   UNL     1      -7.630  -0.222 127.881  0.00  0.00    +0.000 C 
ATOM      4  C   UNL     1      -7.840  -0.557 126.399  0.00  0.00    +0.000 C 
ATOM      5  C   UNL     1      -8.626  -1.877 126.341  0.00  0.00    +0.000 C 
ATOM      6  C   UNL     1      -8.572   0.590 125.640  0.00  0.00    +0.000 C 
ATOM      7  C   UNL     1      -8.790   0.228 124.150  0.00  0.00    +0.000 C 
ATOM      8  C   UNL     1      -9.275   1.379 123.244  0.00  0.00    +0.000 C 
ATOM      9  C   UNL     1      -8.356   2.615 123.227  0.00  0.00    +0.000 C 
ATOM     10  C   UNL     1      -8.312   3.283 121.857  0.00  0.00    +0.000 C 
ATOM     11  O   UNL     1      -8.712   3.592 124.204  0.00  0.00    +0.000 OA
ATOM     12  O   UNL     1      -8.965   2.926 125.489  0.00  0.00    +0.000 OA
ATOM     13  C   UNL     1      -7.892   1.981 125.799  0.00  0.00    +0.000 C 
ATOM     14  C   UNL     1      -6.706   2.189 124.800  0.00  0.00    +0.000 C 
ATOM     15  O   UNL     1      -5.863   3.303 125.062  0.00  0.00    +0.000 OA
ATOM     16  C   UNL     1      -5.434   3.472 126.411  0.00  0.00    +0.000 C 
ATOM     17  C   UNL     1      -6.649   3.546 127.362  0.00  0.00    +0.000 C 
ATOM     18  C   UNL     1      -6.258   3.948 128.786  0.00  0.00    +0.000 C 
ATOM     19  O   UNL     1      -7.020   2.199 123.423  0.00  0.00    +0.000 OA
ENDROOT
BRANCH  16  20
ATOM     20  O   UNL     1      -4.380   2.582 126.852  0.00  0.00    +0.000 OA
BRANCH  20  21
ATOM     21  C   UNL     1      -3.210   3.249 127.291  0.00  0.00    +0.000 C 
ATOM     22  C   UNL     1      -1.941   3.026 126.519  0.00  0.00    +0.000 C 
ENDBRANCH  20  21
ENDBRANCH  16  20
TORSDOF 2
ENDMDL
