MODEL 1
REMARK VINA RESULT:      -7.1      0.000      0.000
REMARK  Name = Artemether
REMARK  5 active torsions:
REMARK  status: ('A' for Active; 'I' for Inactive)
REMARK    1  A    between atoms: C_5  and  C_6
REMARK    2  A    between atoms: C_11  and  C_12
REMARK    3  A    between atoms: C_19  and  O_20
REMARK    4  A    between atoms: O_20  and  C_21
REMARK    5  A    between atoms: C_22  and  C_23
REMARK                            x       y       z     vdW  Elec       q    Type
REMARK                         _______ _______ _______ _____ _____    ______ ____
ROOT
ATOM      1  C   UNL     1      -5.670  -1.105 126.396  0.00  0.00    +0.000 C 
ATOM      2  C   UNL     1      -5.399   0.302 126.996  0.00  0.00    +0.000 C 
ATOM      3  C   UNL     1      -5.499   1.428 125.981  0.00  0.00    +0.000 C 
ATOM      4  C   UNL     1      -6.728   1.347 125.065  0.00  0.00    +0.000 C 
ATOM      5  C   UNL     1      -6.621   2.511 124.065  0.00  0.00    +0.000 C 
ATOM      6  C   UNL     1      -6.831  -0.031 124.348  0.00  0.00    +0.000 C 
ATOM      7  C   UNL     1      -8.049  -0.080 123.393  0.00  0.00    +0.000 C 
ATOM      8  C   UNL     1      -8.397  -1.468 122.817  0.00  0.00    +0.000 C 
ATOM      9  C   UNL     1      -8.684  -2.542 123.883  0.00  0.00    +0.000 C 
ATOM     10  C   UNL     1      -9.770  -3.520 123.441  0.00  0.00    +0.000 C 
ATOM     11  O   UNL     1      -7.519  -3.289 124.245  0.00  0.00    +0.000 OA
ATOM     12  O   UNL     1      -6.397  -2.362 124.467  0.00  0.00    +0.000 OA
ATOM     13  C   UNL     1      -6.811  -1.248 125.321  0.00  0.00    +0.000 C 
ATOM     14  C   UNL     1      -8.219  -1.553 125.933  0.00  0.00    +0.000 C 
ATOM     15  O   UNL     1      -8.225  -2.517 126.985  0.00  0.00    +0.000 OA
ATOM     16  C   UNL     1      -7.255  -2.352 128.002  0.00  0.00    +0.000 C 
ATOM     17  C   UNL     1      -5.822  -2.240 127.446  0.00  0.00    +0.000 C 
ATOM     18  C   UNL     1      -4.779  -2.200 128.564  0.00  0.00    +0.000 C 
ATOM     19  O   UNL     1      -9.239  -1.920 125.018  0.00  0.00    +0.000 OA
ENDROOT
BRANCH  16  20
ATOM     20  O   UNL     1      -7.557  -1.344 128.986  0.00  0.00    +0.000 OA
ATOM     21  C   UNL     1      -7.946  -1.856 130.235  0.00  0.00    +0.000 C 
ENDBRANCH  16  20
TORSDOF 1
ENDMDL
MODEL 2
REMARK VINA RESULT:      -6.9      1.900      4.206
REMARK  Name = Artemether
REMARK  5 active torsions:
REMARK  status: ('A' for Active; 'I' for Inactive)
REMARK    1  A    between atoms: C_5  and  C_6
REMARK    2  A    between atoms: C_11  and  C_12
REMARK    3  A    between atoms: C_19  and  O_20
REMARK    4  A    between atoms: O_20  and  C_21
REMARK    5  A    between atoms: C_22  and  C_23
REMARK                            x       y       z     vdW  Elec       q    Type
REMARK                         _______ _______ _______ _____ _____    ______ ____
ROOT
ATOM      1  C   UNL     1      -8.297   0.407 127.415  0.00  0.00    +0.000 C 
ATOM      2  C   UNL     1      -7.552   0.188 128.760  0.00  0.00    +0.000 C 
ATOM      3  C   UNL     1      -7.746  -1.200 129.348  0.00  0.00    +0.000 C 
ATOM      4  C   UNL     1      -7.592  -2.343 128.335  0.00  0.00    +0.000 C 
ATOM      5  C   UNL     1      -7.897  -3.652 129.084  0.00  0.00    +0.000 C 
ATOM      6  C   UNL     1      -8.513  -2.152 127.095  0.00  0.00    +0.000 C 
ATOM      7  C   UNL     1      -8.380  -3.336 126.106  0.00  0.00    +0.000 C 
ATOM      8  C   UNL     1      -9.053  -3.143 124.731  0.00  0.00    +0.000 C 
ATOM      9  C   UNL     1      -8.555  -1.913 123.949  0.00  0.00    +0.000 C 
ATOM     10  C   UNL     1      -8.509  -2.165 122.444  0.00  0.00    +0.000 C 
ATOM     11  O   UNL     1      -9.343  -0.745 124.192  0.00  0.00    +0.000 OA
ATOM     12  O   UNL     1      -9.578  -0.608 125.638  0.00  0.00    +0.000 OA
ATOM     13  C   UNL     1      -8.328  -0.780 126.381  0.00  0.00    +0.000 C 
ATOM     14  C   UNL     1      -7.122  -0.777 125.383  0.00  0.00    +0.000 C 
ATOM     15  O   UNL     1      -6.774   0.503 124.858  0.00  0.00    +0.000 OA
ATOM     16  C   UNL     1      -6.663   1.562 125.790  0.00  0.00    +0.000 C 
ATOM     17  C   UNL     1      -7.919   1.716 126.670  0.00  0.00    +0.000 C 
ATOM     18  C   UNL     1      -7.833   2.947 127.573  0.00  0.00    +0.000 C 
ATOM     19  O   UNL     1      -7.209  -1.674 124.287  0.00  0.00    +0.000 OA
ENDROOT
BRANCH  16  20
ATOM     20  O   UNL     1      -5.438   1.591 126.548  0.00  0.00    +0.000 OA
ATOM     21  C   UNL     1      -4.530   2.581 126.139  0.00  0.00    +0.000 C 
ENDBRANCH  16  20
TORSDOF 1
ENDMDL
MODEL 3
REMARK VINA RESULT:      -6.9      2.145      3.624
REMARK  Name = Artemether
REMARK  5 active torsions:
REMARK  status: ('A' for Active; 'I' for Inactive)
REMARK    1  A    between atoms: C_5  and  C_6
REMARK    2  A    between atoms: C_11  and  C_12
REMARK    3  A    between atoms: C_19  and  O_20
REMARK    4  A    between atoms: O_20  and  C_21
REMARK    5  A    between atoms: C_22  and  C_23
REMARK                            x       y       z     vdW  Elec       q    Type
REMARK                         _______ _______ _______ _____ _____    ______ ____
ROOT
ATOM      1  C   UNL     1      -7.384  -0.922 127.003  0.00  0.00    +0.000 C 
ATOM      2  C   UNL     1      -5.927  -1.352 127.324  0.00  0.00    +0.000 C 
ATOM      3  C   UNL     1      -5.402  -2.454 126.419  0.00  0.00    +0.000 C 
ATOM      4  C   UNL     1      -5.695  -2.242 124.927  0.00  0.00    +0.000 C 
ATOM      5  C   UNL     1      -5.166  -3.481 124.184  0.00  0.00    +0.000 C 
ATOM      6  C   UNL     1      -7.210  -2.003 124.659  0.00  0.00    +0.000 C 
ATOM      7  C   UNL     1      -7.495  -1.837 123.146  0.00  0.00    +0.000 C 
ATOM      8  C   UNL     1      -8.912  -1.352 122.778  0.00  0.00    +0.000 C 
ATOM      9  C   UNL     1      -9.303  -0.002 123.407  0.00  0.00    +0.000 C 
ATOM     10  C   UNL     1     -10.179   0.836 122.478  0.00  0.00    +0.000 C 
ATOM     11  O   UNL     1      -9.977  -0.149 124.660  0.00  0.00    +0.000 OA
ATOM     12  O   UNL     1      -9.254  -1.126 125.489  0.00  0.00    +0.000 OA
ATOM     13  C   UNL     1      -7.819  -0.837 125.492  0.00  0.00    +0.000 C 
ATOM     14  C   UNL     1      -7.566   0.565 124.842  0.00  0.00    +0.000 C 
ATOM     15  O   UNL     1      -7.914   1.682 125.659  0.00  0.00    +0.000 OA
ATOM     16  C   UNL     1      -7.459   1.655 126.998  0.00  0.00    +0.000 C 
ATOM     17  C   UNL     1      -7.857   0.362 127.737  0.00  0.00    +0.000 C 
ATOM     18  C   UNL     1      -7.476   0.413 129.217  0.00  0.00    +0.000 C 
ATOM     19  O   UNL     1      -8.142   0.780 123.564  0.00  0.00    +0.000 OA
ENDROOT
BRANCH  16  20
ATOM     20  O   UNL     1      -6.075   2.007 127.187  0.00  0.00    +0.000 OA
ATOM     21  C   UNL     1      -5.747   3.305 126.762  0.00  0.00    +0.000 C 
ENDBRANCH  16  20
TORSDOF 1
ENDMDL
MODEL 4
REMARK VINA RESULT:      -6.9      1.936      5.307
REMARK  Name = Artemether
REMARK  5 active torsions:
REMARK  status: ('A' for Active; 'I' for Inactive)
REMARK    1  A    between atoms: C_5  and  C_6
REMARK    2  A    between atoms: C_11  and  C_12
REMARK    3  A    between atoms: C_19  and  O_20
REMARK    4  A    between atoms: O_20  and  C_21
REMARK    5  A    between atoms: C_22  and  C_23
REMARK                            x       y       z     vdW  Elec       q    Type
REMARK                         _______ _______ _______ _____ _____    ______ ____
ROOT
ATOM      1  C   UNL     1      -7.544  -2.159 125.012  0.00  0.00    +0.000 C 
ATOM      2  C   UNL     1      -8.832  -2.963 125.336  0.00  0.00    +0.000 C 
ATOM      3  C   UNL     1      -8.836  -3.577 126.726  0.00  0.00    +0.000 C 
ATOM      4  C   UNL     1      -8.377  -2.626 127.839  0.00  0.00    +0.000 C 
ATOM      5  C   UNL     1      -8.370  -3.435 129.148  0.00  0.00    +0.000 C 
ATOM      6  C   UNL     1      -6.985  -1.999 127.533  0.00  0.00    +0.000 C 
ATOM      7  C   UNL     1      -6.516  -1.078 128.686  0.00  0.00    +0.000 C 
ATOM      8  C   UNL     1      -5.273  -0.212 128.393  0.00  0.00    +0.000 C 
ATOM      9  C   UNL     1      -5.425   0.721 127.176  0.00  0.00    +0.000 C 
ATOM     10  C   UNL     1      -4.706   2.052 127.375  0.00  0.00    +0.000 C 
ATOM     11  O   UNL     1      -4.959   0.127 125.961  0.00  0.00    +0.000 OA
ATOM     12  O   UNL     1      -5.476  -1.247 125.861  0.00  0.00    +0.000 OA
ATOM     13  C   UNL     1      -6.910  -1.279 126.154  0.00  0.00    +0.000 C 
ATOM     14  C   UNL     1      -7.467   0.183 126.205  0.00  0.00    +0.000 C 
ATOM     15  O   UNL     1      -7.619   0.818 124.937  0.00  0.00    +0.000 OA
ATOM     16  C   UNL     1      -8.261   0.067 123.924  0.00  0.00    +0.000 C 
ATOM     17  C   UNL     1      -7.616  -1.317 123.708  0.00  0.00    +0.000 C 
ATOM     18  C   UNL     1      -8.237  -2.055 122.521  0.00  0.00    +0.000 C 
ATOM     19  O   UNL     1      -6.779   1.090 127.052  0.00  0.00    +0.000 OA
ENDROOT
BRANCH  16  20
ATOM     20  O   UNL     1      -9.697   0.009 124.016  0.00  0.00    +0.000 OA
ATOM     21  C   UNL     1     -10.329   1.262 123.955  0.00  0.00    +0.000 C 
ENDBRANCH  16  20
TORSDOF 1
ENDMDL
MODEL 5
REMARK VINA RESULT:      -6.7      7.912      9.426
REMARK  Name = Artemether
REMARK  5 active torsions:
REMARK  status: ('A' for Active; 'I' for Inactive)
REMARK    1  A    between atoms: C_5  and  C_6
REMARK    2  A    between atoms: C_11  and  C_12
REMARK    3  A    between atoms: C_19  and  O_20
REMARK    4  A    between atoms: O_20  and  C_21
REMARK    5  A    between atoms: C_22  and  C_23
REMARK                            x       y       z     vdW  Elec       q    Type
REMARK                         _______ _______ _______ _____ _____    ______ ____
ROOT
ATOM      1  C   UNL     1      -7.402   4.978 132.832  0.00  0.00    +0.000 C 
ATOM      2  C   UNL     1      -6.867   3.546 133.106  0.00  0.00    +0.000 C 
ATOM      3  C   UNL     1      -7.941   2.472 133.058  0.00  0.00    +0.000 C 
ATOM      4  C   UNL     1      -8.893   2.583 131.859  0.00  0.00    +0.000 C 
ATOM      5  C   UNL     1      -9.948   1.475 132.018  0.00  0.00    +0.000 C 
ATOM      6  C   UNL     1      -9.540   3.995 131.757  0.00  0.00    +0.000 C 
ATOM      7  C   UNL     1     -10.532   4.076 130.570  0.00  0.00    +0.000 C 
ATOM      8  C   UNL     1     -11.047   5.487 130.218  0.00  0.00    +0.000 C 
ATOM      9  C   UNL     1      -9.936   6.499 129.878  0.00  0.00    +0.000 C 
ATOM     10  C   UNL     1     -10.364   7.482 128.791  0.00  0.00    +0.000 C 
ATOM     11  O   UNL     1      -9.497   7.243 131.018  0.00  0.00    +0.000 OA
ATOM     12  O   UNL     1      -9.286   6.323 132.147  0.00  0.00    +0.000 OA
ATOM     13  C   UNL     1      -8.506   5.159 131.724  0.00  0.00    +0.000 C 
ATOM     14  C   UNL     1      -7.926   5.411 130.292  0.00  0.00    +0.000 C 
ATOM     15  O   UNL     1      -6.826   6.318 130.235  0.00  0.00    +0.000 OA
ATOM     16  C   UNL     1      -5.787   6.115 131.174  0.00  0.00    +0.000 C 
ATOM     17  C   UNL     1      -6.300   6.053 132.627  0.00  0.00    +0.000 C 
ATOM     18  C   UNL     1      -5.151   5.971 133.633  0.00  0.00    +0.000 C 
ATOM     19  O   UNL     1      -8.855   5.810 129.297  0.00  0.00    +0.000 OA
ENDROOT
BRANCH  16  20
ATOM     20  O   UNL     1      -4.868   5.053 130.857  0.00  0.00    +0.000 OA
ATOM     21  C   UNL     1      -3.985   5.349 129.806  0.00  0.00    +0.000 C 
ENDBRANCH  16  20
TORSDOF 1
ENDMDL
MODEL 6
REMARK VINA RESULT:      -6.7      2.170      4.207
REMARK  Name = Artemether
REMARK  5 active torsions:
REMARK  status: ('A' for Active; 'I' for Inactive)
REMARK    1  A    between atoms: C_5  and  C_6
REMARK    2  A    between atoms: C_11  and  C_12
REMARK    3  A    between atoms: C_19  and  O_20
REMARK    4  A    between atoms: O_20  and  C_21
REMARK    5  A    between atoms: C_22  and  C_23
REMARK                            x       y       z     vdW  Elec       q    Type
REMARK                         _______ _______ _______ _____ _____    ______ ____
ROOT
ATOM      1  C   UNL     1      -6.190  -1.151 125.160  0.00  0.00    +0.000 C 
ATOM      2  C   UNL     1      -6.461  -1.996 126.435  0.00  0.00    +0.000 C 
ATOM      3  C   UNL     1      -6.786  -1.162 127.663  0.00  0.00    +0.000 C 
ATOM      4  C   UNL     1      -7.799  -0.035 127.413  0.00  0.00    +0.000 C 
ATOM      5  C   UNL     1      -7.943   0.741 128.733  0.00  0.00    +0.000 C 
ATOM      6  C   UNL     1      -7.364   0.888 126.237  0.00  0.00    +0.000 C 
ATOM      7  C   UNL     1      -8.372   2.045 126.028  0.00  0.00    +0.000 C 
ATOM      8  C   UNL     1      -8.182   2.878 124.743  0.00  0.00    +0.000 C 
ATOM      9  C   UNL     1      -8.243   2.057 123.441  0.00  0.00    +0.000 C 
ATOM     10  C   UNL     1      -8.895   2.833 122.299  0.00  0.00    +0.000 C 
ATOM     11  O   UNL     1      -6.957   1.606 123.010  0.00  0.00    +0.000 OA
ATOM     12  O   UNL     1      -6.227   1.046 124.159  0.00  0.00    +0.000 OA
ATOM     13  C   UNL     1      -7.080   0.123 124.910  0.00  0.00    +0.000 C 
ATOM     14  C   UNL     1      -8.383  -0.169 124.092  0.00  0.00    +0.000 C 
ATOM     15  O   UNL     1      -8.213  -1.044 122.978  0.00  0.00    +0.000 OA
ATOM     16  C   UNL     1      -7.483  -2.234 123.210  0.00  0.00    +0.000 C 
ATOM     17  C   UNL     1      -6.103  -1.972 123.844  0.00  0.00    +0.000 C 
ATOM     18  C   UNL     1      -5.278  -3.254 123.961  0.00  0.00    +0.000 C 
ATOM     19  O   UNL     1      -9.107   0.962 123.635  0.00  0.00    +0.000 OA
ENDROOT
BRANCH  16  20
ATOM     20  O   UNL     1      -8.214  -3.287 123.868  0.00  0.00    +0.000 OA
ATOM     21  C   UNL     1      -9.542  -3.427 123.432  0.00  0.00    +0.000 C 
ENDBRANCH  16  20
TORSDOF 1
ENDMDL
MODEL 7
REMARK VINA RESULT:      -6.5      3.084      4.921
REMARK  Name = Artemether
REMARK  5 active torsions:
REMARK  status: ('A' for Active; 'I' for Inactive)
REMARK    1  A    between atoms: C_5  and  C_6
REMARK    2  A    between atoms: C_11  and  C_12
REMARK    3  A    between atoms: C_19  and  O_20
REMARK    4  A    between atoms: O_20  and  C_21
REMARK    5  A    between atoms: C_22  and  C_23
REMARK                            x       y       z     vdW  Elec       q    Type
REMARK                         _______ _______ _______ _____ _____    ______ ____
ROOT
ATOM      1  C   UNL     1      -7.603   1.772 126.947  0.00  0.00    +0.000 C 
ATOM      2  C   UNL     1      -7.112   0.492 127.677  0.00  0.00    +0.000 C 
ATOM      3  C   UNL     1      -7.917  -0.751 127.339  0.00  0.00    +0.000 C 
ATOM      4  C   UNL     1      -8.198  -0.935 125.841  0.00  0.00    +0.000 C 
ATOM      5  C   UNL     1      -9.080  -2.188 125.699  0.00  0.00    +0.000 C 
ATOM      6  C   UNL     1      -8.866   0.323 125.214  0.00  0.00    +0.000 C 
ATOM      7  C   UNL     1      -9.184   0.104 123.715  0.00  0.00    +0.000 C 
ATOM      8  C   UNL     1      -9.619   1.359 122.929  0.00  0.00    +0.000 C 
ATOM      9  C   UNL     1      -8.593   2.508 122.954  0.00  0.00    +0.000 C 
ATOM     10  C   UNL     1      -8.560   3.282 121.638  0.00  0.00    +0.000 C 
ATOM     11  O   UNL     1      -8.824   3.433 124.021  0.00  0.00    +0.000 OA
ATOM     12  O   UNL     1      -9.073   2.688 125.265  0.00  0.00    +0.000 OA
ATOM     13  C   UNL     1      -8.068   1.640 125.448  0.00  0.00    +0.000 C 
ATOM     14  C   UNL     1      -6.912   1.837 124.411  0.00  0.00    +0.000 C 
ATOM     15  O   UNL     1      -6.018   2.912 124.698  0.00  0.00    +0.000 OA
ATOM     16  C   UNL     1      -5.529   2.993 126.023  0.00  0.00    +0.000 C 
ATOM     17  C   UNL     1      -6.655   2.996 127.075  0.00  0.00    +0.000 C 
ATOM     18  C   UNL     1      -6.113   3.221 128.488  0.00  0.00    +0.000 C 
ATOM     19  O   UNL     1      -7.299   1.962 123.052  0.00  0.00    +0.000 OA
ENDROOT
BRANCH  16  20
ATOM     20  O   UNL     1      -4.462   2.080 126.344  0.00  0.00    +0.000 OA
ATOM     21  C   UNL     1      -3.206   2.691 126.496  0.00  0.00    +0.000 C 
ENDBRANCH  16  20
TORSDOF 1
ENDMDL
MODEL 8
REMARK VINA RESULT:      -6.4      1.960      2.533
REMARK  Name = Artemether
REMARK  5 active torsions:
REMARK  status: ('A' for Active; 'I' for Inactive)
REMARK    1  A    between atoms: C_5  and  C_6
REMARK    2  A    between atoms: C_11  and  C_12
REMARK    3  A    between atoms: C_19  and  O_20
REMARK    4  A    between atoms: O_20  and  C_21
REMARK    5  A    between atoms: C_22  and  C_23
REMARK                            x       y       z     vdW  Elec       q    Type
REMARK                         _______ _______ _______ _____ _____    ______ ____
ROOT
ATOM      1  C   UNL     1      -6.259   1.405 125.240  0.00  0.00    +0.000 C 
ATOM      2  C   UNL     1      -6.487   2.937 125.115  0.00  0.00    +0.000 C 
ATOM      3  C   UNL     1      -7.125   3.354 123.801  0.00  0.00    +0.000 C 
ATOM      4  C   UNL     1      -8.320   2.490 123.375  0.00  0.00    +0.000 C 
ATOM      5  C   UNL     1      -8.781   3.006 122.001  0.00  0.00    +0.000 C 
ATOM      6  C   UNL     1      -7.962   0.976 123.340  0.00  0.00    +0.000 C 
ATOM      7  C   UNL     1      -9.164   0.123 122.865  0.00  0.00    +0.000 C 
ATOM      8  C   UNL     1      -9.011  -1.404 123.024  0.00  0.00    +0.000 C 
ATOM      9  C   UNL     1      -8.742  -1.866 124.469  0.00  0.00    +0.000 C 
ATOM     10  C   UNL     1      -9.409  -3.203 124.781  0.00  0.00    +0.000 C 
ATOM     11  O   UNL     1      -7.347  -1.971 124.766  0.00  0.00    +0.000 OA
ATOM     12  O   UNL     1      -6.652  -0.771 124.273  0.00  0.00    +0.000 OA
ATOM     13  C   UNL     1      -7.368   0.440 124.677  0.00  0.00    +0.000 C 
ATOM     14  C   UNL     1      -8.473   0.071 125.723  0.00  0.00    +0.000 C 
ATOM     15  O   UNL     1      -7.991  -0.224 127.033  0.00  0.00    +0.000 OA
ATOM     16  C   UNL     1      -7.053   0.681 127.584  0.00  0.00    +0.000 C 
ATOM     17  C   UNL     1      -5.845   0.925 126.658  0.00  0.00    +0.000 C 
ATOM     18  C   UNL     1      -4.782   1.797 127.328  0.00  0.00    +0.000 C 
ATOM     19  O   UNL     1      -9.366  -0.968 125.357  0.00  0.00    +0.000 OA
ENDROOT
BRANCH  16  20
ATOM     20  O   UNL     1      -7.611   1.899 128.113  0.00  0.00    +0.000 OA
ATOM     21  C   UNL     1      -8.247   1.750 129.357  0.00  0.00    +0.000 C 
ENDBRANCH  16  20
TORSDOF 1
ENDMDL
MODEL 9
REMARK VINA RESULT:      -6.4      1.848      4.456
REMARK  Name = Artemether
REMARK  5 active torsions:
REMARK  status: ('A' for Active; 'I' for Inactive)
REMARK    1  A    between atoms: C_5  and  C_6
REMARK    2  A    between atoms: C_11  and  C_12
REMARK    3  A    between atoms: C_19  and  O_20
REMARK    4  A    between atoms: O_20  and  C_21
REMARK    5  A    between atoms: C_22  and  C_23
REMARK                            x       y       z     vdW  Elec       q    Type
REMARK                         _______ _______ _______ _____ _____    ______ ____
ROOT
ATOM      1  C   UNL     1      -7.728   1.354 126.168  0.00  0.00    +0.000 C 
ATOM      2  C   UNL     1      -6.385   1.894 126.733  0.00  0.00    +0.000 C 
ATOM      3  C   UNL     1      -5.681   0.924 127.666  0.00  0.00    +0.000 C 
ATOM      4  C   UNL     1      -5.626  -0.522 127.152  0.00  0.00    +0.000 C 
ATOM      5  C   UNL     1      -4.955  -1.365 128.251  0.00  0.00    +0.000 C 
ATOM      6  C   UNL     1      -7.038  -1.063 126.782  0.00  0.00    +0.000 C 
ATOM      7  C   UNL     1      -6.972  -2.536 126.310  0.00  0.00    +0.000 C 
ATOM      8  C   UNL     1      -8.264  -3.101 125.685  0.00  0.00    +0.000 C 
ATOM      9  C   UNL     1      -8.773  -2.314 124.462  0.00  0.00    +0.000 C 
ATOM     10  C   UNL     1      -9.407  -3.224 123.413  0.00  0.00    +0.000 C 
ATOM     11  O   UNL     1      -9.714  -1.296 124.812  0.00  0.00    +0.000 OA
ATOM     12  O   UNL     1      -9.208  -0.542 125.970  0.00  0.00    +0.000 OA
ATOM     13  C   UNL     1      -7.808  -0.166 125.767  0.00  0.00    +0.000 C 
ATOM     14  C   UNL     1      -7.400  -0.448 124.282  0.00  0.00    +0.000 C 
ATOM     15  O   UNL     1      -7.912   0.480 123.327  0.00  0.00    +0.000 OA
ATOM     16  C   UNL     1      -7.773   1.853 123.639  0.00  0.00    +0.000 C 
ATOM     17  C   UNL     1      -8.341   2.210 125.026  0.00  0.00    +0.000 C 
ATOM     18  C   UNL     1      -8.304   3.717 125.285  0.00  0.00    +0.000 C 
ATOM     19  O   UNL     1      -7.669  -1.752 123.792  0.00  0.00    +0.000 OA
ENDROOT
BRANCH  16  20
ATOM     20  O   UNL     1      -6.463   2.408 123.408  0.00  0.00    +0.000 OA
ATOM     21  C   UNL     1      -6.361   3.174 122.235  0.00  0.00    +0.000 C 
ENDBRANCH  16  20
TORSDOF 1
ENDMDL
