MODEL 1
REMARK VINA RESULT:      -5.5      0.000      0.000
REMARK  Name = Articaine
REMARK  11 active torsions:
REMARK  status: ('A' for Active; 'I' for Inactive)
REMARK    1  A    between atoms: C_1  and  C_2
REMARK    2  A    between atoms: C_2  and  C_3
REMARK    3  A    between atoms: C_3  and  N_4
REMARK    4  A    between atoms: N_4  and  C_5
REMARK    5  A    between atoms: C_5  and  C_6
REMARK    6  A    between atoms: C_5  and  C_7
REMARK    7  A    between atoms: N_9  and  C_10
REMARK    8  A    between atoms: C_11  and  C_16
REMARK    9  A    between atoms: C_14  and  C_15
REMARK   10  A    between atoms: C_16  and  O_18
REMARK   11  A    between atoms: O_18  and  C_19
REMARK                            x       y       z     vdW  Elec       q    Type
REMARK                         _______ _______ _______ _____ _____    ______ ____
ROOT
ATOM      1  C   UNL     1     -10.305   4.691 130.645  0.00  0.00    +0.000 C 
ATOM      2  O   UNL     1     -11.188   4.105 130.018  0.00  0.00    +0.000 OA
ATOM      3  N   UNL     1      -9.004   4.207 130.794  0.00  0.00    +0.000 N 
ATOM      4  H   UNL     1      -8.500   4.463 131.638  0.00  0.00    +0.000 HD
ENDROOT
BRANCH   3   5
ATOM      5  C   UNL     1      -8.626   2.993 130.198  0.00  0.00    +0.000 A 
ATOM      6  C   UNL     1      -8.093   2.905 128.910  0.00  0.00    +0.000 A 
ATOM      7  S   UNL     1      -7.748   1.270 128.512  0.00  0.00    +0.000 S 
ATOM      8  C   UNL     1      -8.326   0.693 130.013  0.00  0.00    +0.000 A 
ATOM      9  C   UNL     1      -8.783   1.705 130.833  0.00  0.00    +0.000 A 
ATOM     10  C   UNL     1      -9.421   1.470 132.170  0.00  0.00    +0.000 C 
BRANCH   6  11
ATOM     11  C   UNL     1      -7.788   4.014 128.008  0.00  0.00    +0.000 C 
ATOM     12  O   UNL     1      -8.291   4.126 126.887  0.00  0.00    +0.000 OA
BRANCH  11  13
ATOM     13  O   UNL     1      -6.888   4.919 128.510  0.00  0.00    +0.000 OA
ATOM     14  C   UNL     1      -5.532   4.441 128.555  0.00  0.00    +0.000 C 
ENDBRANCH  11  13
ENDBRANCH   6  11
ENDBRANCH   3   5
BRANCH   1  15
ATOM     15  C   UNL     1     -10.606   6.032 131.362  0.00  0.00    +0.000 C 
ATOM     16  C   UNL     1      -9.744   6.118 132.616  0.00  0.00    +0.000 C 
BRANCH  15  17
ATOM     17  N   UNL     1     -12.046   6.062 131.716  0.00  0.00    +0.000 NA
ATOM     18  H   UNL     1     -12.513   5.239 131.328  0.00  0.00    +0.000 HD
BRANCH  17  19
ATOM     19  C   UNL     1     -12.719   7.292 131.342  0.00  0.00    +0.000 C 
BRANCH  19  21
ATOM     20  C   UNL     1     -12.753   9.126 129.672  0.00  0.00    +0.000 C 
ATOM     21  C   UNL     1     -12.441   7.653 129.888  0.00  0.00    +0.000 C 
ENDBRANCH  19  21
ENDBRANCH  17  19
ENDBRANCH  15  17
ENDBRANCH   1  15
TORSDOF 7
ENDMDL
MODEL 2
REMARK VINA RESULT:      -5.4      1.543      1.910
REMARK  Name = Articaine
REMARK  11 active torsions:
REMARK  status: ('A' for Active; 'I' for Inactive)
REMARK    1  A    between atoms: C_1  and  C_2
REMARK    2  A    between atoms: C_2  and  C_3
REMARK    3  A    between atoms: C_3  and  N_4
REMARK    4  A    between atoms: N_4  and  C_5
REMARK    5  A    between atoms: C_5  and  C_6
REMARK    6  A    between atoms: C_5  and  C_7
REMARK    7  A    between atoms: N_9  and  C_10
REMARK    8  A    between atoms: C_11  and  C_16
REMARK    9  A    between atoms: C_14  and  C_15
REMARK   10  A    between atoms: C_16  and  O_18
REMARK   11  A    between atoms: O_18  and  C_19
REMARK                            x       y       z     vdW  Elec       q    Type
REMARK                         _______ _______ _______ _____ _____    ______ ____
ROOT
ATOM      1  C   UNL     1     -10.725   4.681 130.373  0.00  0.00    +0.000 C 
ATOM      2  O   UNL     1     -11.501   3.738 130.210  0.00  0.00    +0.000 OA
ATOM      3  N   UNL     1      -9.410   4.539 130.816  0.00  0.00    +0.000 N 
ATOM      4  H   UNL     1      -9.004   5.308 131.342  0.00  0.00    +0.000 HD
ENDROOT
BRANCH   3   5
ATOM      5  C   UNL     1      -8.886   3.265 131.089  0.00  0.00    +0.000 A 
ATOM      6  C   UNL     1      -8.469   2.377 130.095  0.00  0.00    +0.000 A 
ATOM      7  S   UNL     1      -7.887   0.920 130.793  0.00  0.00    +0.000 S 
ATOM      8  C   UNL     1      -8.215   1.452 132.384  0.00  0.00    +0.000 A 
ATOM      9  C   UNL     1      -8.760   2.719 132.421  0.00  0.00    +0.000 A 
ATOM     10  C   UNL     1      -9.220   3.392 133.680  0.00  0.00    +0.000 C 
BRANCH   6  11
ATOM     11  C   UNL     1      -8.444   2.623 128.653  0.00  0.00    +0.000 C 
ATOM     12  O   UNL     1      -9.001   1.884 127.837  0.00  0.00    +0.000 OA
BRANCH  11  13
ATOM     13  O   UNL     1      -7.743   3.741 128.283  0.00  0.00    +0.000 OA
ATOM     14  C   UNL     1      -7.668   3.948 126.861  0.00  0.00    +0.000 C 
ENDBRANCH  11  13
ENDBRANCH   6  11
ENDBRANCH   3   5
BRANCH   1  15
ATOM     15  C   UNL     1     -11.193   6.136 130.119  0.00  0.00    +0.000 C 
ATOM     16  C   UNL     1     -11.907   6.643 131.368  0.00  0.00    +0.000 C 
BRANCH  15  17
ATOM     17  N   UNL     1     -12.114   6.139 128.957  0.00  0.00    +0.000 NA
ATOM     18  H   UNL     1     -11.595   6.371 128.108  0.00  0.00    +0.000 HD
BRANCH  17  19
ATOM     19  C   UNL     1     -13.277   6.989 129.129  0.00  0.00    +0.000 C 
BRANCH  19  21
ATOM     20  C   UNL     1     -12.983   9.452 129.056  0.00  0.00    +0.000 C 
ATOM     21  C   UNL     1     -13.212   8.206 128.214  0.00  0.00    +0.000 C 
ENDBRANCH  19  21
ENDBRANCH  17  19
ENDBRANCH  15  17
ENDBRANCH   1  15
TORSDOF 7
ENDMDL
MODEL 3
REMARK VINA RESULT:      -5.4      6.153      7.974
REMARK  Name = Articaine
REMARK  11 active torsions:
REMARK  status: ('A' for Active; 'I' for Inactive)
REMARK    1  A    between atoms: C_1  and  C_2
REMARK    2  A    between atoms: C_2  and  C_3
REMARK    3  A    between atoms: C_3  and  N_4
REMARK    4  A    between atoms: N_4  and  C_5
REMARK    5  A    between atoms: C_5  and  C_6
REMARK    6  A    between atoms: C_5  and  C_7
REMARK    7  A    between atoms: N_9  and  C_10
REMARK    8  A    between atoms: C_11  and  C_16
REMARK    9  A    between atoms: C_14  and  C_15
REMARK   10  A    between atoms: C_16  and  O_18
REMARK   11  A    between atoms: O_18  and  C_19
REMARK                            x       y       z     vdW  Elec       q    Type
REMARK                         _______ _______ _______ _____ _____    ______ ____
ROOT
ATOM      1  C   UNL     1      -5.605   4.622 125.118  0.00  0.00    +0.000 C 
ATOM      2  O   UNL     1      -6.243   5.660 124.934  0.00  0.00    +0.000 OA
ATOM      3  N   UNL     1      -5.700   3.495 124.302  0.00  0.00    +0.000 N 
ATOM      4  H   UNL     1      -5.533   2.588 124.728  0.00  0.00    +0.000 HD
ENDROOT
BRANCH   3   5
ATOM      5  C   UNL     1      -6.546   3.499 123.181  0.00  0.00    +0.000 A 
ATOM      6  C   UNL     1      -7.868   3.051 123.216  0.00  0.00    +0.000 A 
ATOM      7  S   UNL     1      -8.597   3.202 121.668  0.00  0.00    +0.000 S 
ATOM      8  C   UNL     1      -7.169   3.822 120.962  0.00  0.00    +0.000 A 
ATOM      9  C   UNL     1      -6.130   3.927 121.864  0.00  0.00    +0.000 A 
ATOM     10  C   UNL     1      -4.743   4.360 121.492  0.00  0.00    +0.000 C 
BRANCH   6  11
ATOM     11  C   UNL     1      -8.603   2.573 124.387  0.00  0.00    +0.000 C 
ATOM     12  O   UNL     1      -8.847   3.287 125.363  0.00  0.00    +0.000 OA
BRANCH  11  13
ATOM     13  O   UNL     1      -8.991   1.260 124.313  0.00  0.00    +0.000 OA
ATOM     14  C   UNL     1      -8.223   0.369 125.140  0.00  0.00    +0.000 C 
ENDBRANCH  11  13
ENDBRANCH   6  11
ENDBRANCH   3   5
BRANCH   1  15
ATOM     15  C   UNL     1      -4.650   4.491 126.332  0.00  0.00    +0.000 C 
ATOM     16  C   UNL     1      -4.290   3.020 126.512  0.00  0.00    +0.000 C 
BRANCH  15  17
ATOM     17  N   UNL     1      -5.345   5.008 127.535  0.00  0.00    +0.000 NA
ATOM     18  H   UNL     1      -6.052   5.692 127.256  0.00  0.00    +0.000 HD
BRANCH  17  19
ATOM     19  C   UNL     1      -4.453   5.535 128.550  0.00  0.00    +0.000 C 
BRANCH  19  21
ATOM     20  C   UNL     1      -2.183   6.444 128.971  0.00  0.00    +0.000 C 
ATOM     21  C   UNL     1      -3.269   6.260 127.922  0.00  0.00    +0.000 C 
ENDBRANCH  19  21
ENDBRANCH  17  19
ENDBRANCH  15  17
ENDBRANCH   1  15
TORSDOF 7
ENDMDL
MODEL 4
REMARK VINA RESULT:      -5.4      5.902      8.237
REMARK  Name = Articaine
REMARK  11 active torsions:
REMARK  status: ('A' for Active; 'I' for Inactive)
REMARK    1  A    between atoms: C_1  and  C_2
REMARK    2  A    between atoms: C_2  and  C_3
REMARK    3  A    between atoms: C_3  and  N_4
REMARK    4  A    between atoms: N_4  and  C_5
REMARK    5  A    between atoms: C_5  and  C_6
REMARK    6  A    between atoms: C_5  and  C_7
REMARK    7  A    between atoms: N_9  and  C_10
REMARK    8  A    between atoms: C_11  and  C_16
REMARK    9  A    between atoms: C_14  and  C_15
REMARK   10  A    between atoms: C_16  and  O_18
REMARK   11  A    between atoms: O_18  and  C_19
REMARK                            x       y       z     vdW  Elec       q    Type
REMARK                         _______ _______ _______ _____ _____    ______ ____
ROOT
ATOM      1  C   UNL     1      -7.608   1.880 124.402  0.00  0.00    +0.000 C 
ATOM      2  O   UNL     1      -6.421   1.599 124.574  0.00  0.00    +0.000 OA
ATOM      3  N   UNL     1      -8.667   1.112 124.888  0.00  0.00    +0.000 N 
ATOM      4  H   UNL     1      -9.537   1.122 124.362  0.00  0.00    +0.000 HD
ENDROOT
BRANCH   3   5
ATOM      5  C   UNL     1      -8.418  -0.048 125.638  0.00  0.00    +0.000 A 
ATOM      6  C   UNL     1      -8.508  -1.338 125.110  0.00  0.00    +0.000 A 
ATOM      7  S   UNL     1      -8.137  -2.509 126.311  0.00  0.00    +0.000 S 
ATOM      8  C   UNL     1      -7.895  -1.320 127.515  0.00  0.00    +0.000 A 
ATOM      9  C   UNL     1      -8.083  -0.037 127.044  0.00  0.00    +0.000 A 
ATOM     10  C   UNL     1      -8.017   1.186 127.909  0.00  0.00    +0.000 C 
BRANCH   6  11
ATOM     11  C   UNL     1      -8.804  -1.700 123.724  0.00  0.00    +0.000 C 
ATOM     12  O   UNL     1      -9.734  -2.448 123.410  0.00  0.00    +0.000 OA
BRANCH  11  13
ATOM     13  O   UNL     1      -7.957  -1.144 122.802  0.00  0.00    +0.000 OA
ATOM     14  C   UNL     1      -6.629  -1.697 122.809  0.00  0.00    +0.000 C 
ENDBRANCH  11  13
ENDBRANCH   6  11
ENDBRANCH   3   5
BRANCH   1  15
ATOM     15  C   UNL     1      -8.009   3.128 123.576  0.00  0.00    +0.000 C 
ATOM     16  C   UNL     1      -8.886   2.680 122.412  0.00  0.00    +0.000 C 
BRANCH  15  17
ATOM     17  N   UNL     1      -6.773   3.779 123.077  0.00  0.00    +0.000 NA
ATOM     18  H   UNL     1      -6.785   4.771 123.321  0.00  0.00    +0.000 HD
BRANCH  17  19
ATOM     19  C   UNL     1      -6.530   3.573 121.662  0.00  0.00    +0.000 C 
BRANCH  19  21
ATOM     20  C   UNL     1      -5.469   5.011 119.941  0.00  0.00    +0.000 C 
ATOM     21  C   UNL     1      -5.227   4.230 121.224  0.00  0.00    +0.000 C 
ENDBRANCH  19  21
ENDBRANCH  17  19
ENDBRANCH  15  17
ENDBRANCH   1  15
TORSDOF 7
ENDMDL
MODEL 5
REMARK VINA RESULT:      -5.4      5.626      8.867
REMARK  Name = Articaine
REMARK  11 active torsions:
REMARK  status: ('A' for Active; 'I' for Inactive)
REMARK    1  A    between atoms: C_1  and  C_2
REMARK    2  A    between atoms: C_2  and  C_3
REMARK    3  A    between atoms: C_3  and  N_4
REMARK    4  A    between atoms: N_4  and  C_5
REMARK    5  A    between atoms: C_5  and  C_6
REMARK    6  A    between atoms: C_5  and  C_7
REMARK    7  A    between atoms: N_9  and  C_10
REMARK    8  A    between atoms: C_11  and  C_16
REMARK    9  A    between atoms: C_14  and  C_15
REMARK   10  A    between atoms: C_16  and  O_18
REMARK   11  A    between atoms: O_18  and  C_19
REMARK                            x       y       z     vdW  Elec       q    Type
REMARK                         _______ _______ _______ _____ _____    ______ ____
ROOT
ATOM      1  C   UNL     1      -8.673  -1.104 124.962  0.00  0.00    +0.000 C 
ATOM      2  O   UNL     1      -9.771  -1.224 125.508  0.00  0.00    +0.000 OA
ATOM      3  N   UNL     1      -7.634  -0.323 125.469  0.00  0.00    +0.000 N 
ATOM      4  H   UNL     1      -6.984   0.087 124.804  0.00  0.00    +0.000 HD
ENDROOT
BRANCH   3   5
ATOM      5  C   UNL     1      -7.793   0.373 126.679  0.00  0.00    +0.000 A 
ATOM      6  C   UNL     1      -8.090   1.736 126.748  0.00  0.00    +0.000 A 
ATOM      7  S   UNL     1      -8.210   2.245 128.384  0.00  0.00    +0.000 S 
ATOM      8  C   UNL     1      -7.843   0.688 128.984  0.00  0.00    +0.000 A 
ATOM      9  C   UNL     1      -7.626  -0.234 127.980  0.00  0.00    +0.000 A 
ATOM     10  C   UNL     1      -7.204  -1.652 128.227  0.00  0.00    +0.000 C 
BRANCH   6  11
ATOM     11  C   UNL     1      -8.340   2.637 125.624  0.00  0.00    +0.000 C 
ATOM     12  O   UNL     1      -7.632   3.617 125.379  0.00  0.00    +0.000 OA
BRANCH  11  13
ATOM     13  O   UNL     1      -9.434   2.306 124.867  0.00  0.00    +0.000 OA
ATOM     14  C   UNL     1      -9.184   2.267 123.451  0.00  0.00    +0.000 C 
ENDBRANCH  11  13
ENDBRANCH   6  11
ENDBRANCH   3   5
BRANCH   1  15
ATOM     15  C   UNL     1      -8.383  -1.810 123.614  0.00  0.00    +0.000 C 
ATOM     16  C   UNL     1      -9.028  -3.192 123.640  0.00  0.00    +0.000 C 
BRANCH  15  17
ATOM     17  N   UNL     1      -6.914  -1.924 123.449  0.00  0.00    +0.000 NA
ATOM     18  H   UNL     1      -6.661  -1.727 122.478  0.00  0.00    +0.000 HD
BRANCH  17  19
ATOM     19  C   UNL     1      -6.367  -3.189 123.903  0.00  0.00    +0.000 C 
BRANCH  19  21
ATOM     20  C   UNL     1      -4.423  -4.705 123.624  0.00  0.00    +0.000 C 
ATOM     21  C   UNL     1      -4.861  -3.249 123.686  0.00  0.00    +0.000 C 
ENDBRANCH  19  21
ENDBRANCH  17  19
ENDBRANCH  15  17
ENDBRANCH   1  15
TORSDOF 7
ENDMDL
MODEL 6
REMARK VINA RESULT:      -5.3      2.288      3.445
REMARK  Name = Articaine
REMARK  11 active torsions:
REMARK  status: ('A' for Active; 'I' for Inactive)
REMARK    1  A    between atoms: C_1  and  C_2
REMARK    2  A    between atoms: C_2  and  C_3
REMARK    3  A    between atoms: C_3  and  N_4
REMARK    4  A    between atoms: N_4  and  C_5
REMARK    5  A    between atoms: C_5  and  C_6
REMARK    6  A    between atoms: C_5  and  C_7
REMARK    7  A    between atoms: N_9  and  C_10
REMARK    8  A    between atoms: C_11  and  C_16
REMARK    9  A    between atoms: C_14  and  C_15
REMARK   10  A    between atoms: C_16  and  O_18
REMARK   11  A    between atoms: O_18  and  C_19
REMARK                            x       y       z     vdW  Elec       q    Type
REMARK                         _______ _______ _______ _____ _____    ______ ____
ROOT
ATOM      1  C   UNL     1      -9.836   5.988 129.649  0.00  0.00    +0.000 C 
ATOM      2  O   UNL     1      -9.418   5.987 128.489  0.00  0.00    +0.000 OA
ATOM      3  N   UNL     1      -9.143   5.434 130.726  0.00  0.00    +0.000 N 
ATOM      4  H   UNL     1      -9.690   5.068 131.500  0.00  0.00    +0.000 HD
ENDROOT
BRANCH   3   5
ATOM      5  C   UNL     1      -7.884   4.843 130.532  0.00  0.00    +0.000 A 
ATOM      6  C   UNL     1      -7.710   3.497 130.204  0.00  0.00    +0.000 A 
ATOM      7  S   UNL     1      -6.040   3.126 130.046  0.00  0.00    +0.000 S 
ATOM      8  C   UNL     1      -5.563   4.718 130.439  0.00  0.00    +0.000 A 
ATOM      9  C   UNL     1      -6.634   5.550 130.692  0.00  0.00    +0.000 A 
ATOM     10  C   UNL     1      -6.496   6.974 131.143  0.00  0.00    +0.000 C 
BRANCH   6  11
ATOM     11  C   UNL     1      -8.761   2.512 129.951  0.00  0.00    +0.000 C 
ATOM     12  O   UNL     1      -9.527   2.580 128.986  0.00  0.00    +0.000 OA
BRANCH  11  13
ATOM     13  O   UNL     1      -8.830   1.507 130.881  0.00  0.00    +0.000 OA
ATOM     14  C   UNL     1      -9.754   1.757 131.954  0.00  0.00    +0.000 C 
ENDBRANCH  11  13
ENDBRANCH   6  11
ENDBRANCH   3   5
BRANCH   1  15
ATOM     15  C   UNL     1     -11.221   6.597 129.985  0.00  0.00    +0.000 C 
ATOM     16  C   UNL     1     -11.488   6.406 131.474  0.00  0.00    +0.000 C 
BRANCH  15  17
ATOM     17  N   UNL     1     -12.250   5.898 129.178  0.00  0.00    +0.000 NA
ATOM     18  H   UNL     1     -11.798   5.371 128.427  0.00  0.00    +0.000 HD
BRANCH  17  19
ATOM     19  C   UNL     1     -13.294   6.770 128.673  0.00  0.00    +0.000 C 
BRANCH  19  21
ATOM     20  C   UNL     1     -12.252   7.115 126.448  0.00  0.00    +0.000 C 
ATOM     21  C   UNL     1     -12.730   7.810 127.713  0.00  0.00    +0.000 C 
ENDBRANCH  19  21
ENDBRANCH  17  19
ENDBRANCH  15  17
ENDBRANCH   1  15
TORSDOF 7
ENDMDL
MODEL 7
REMARK VINA RESULT:      -5.2      5.734      8.844
REMARK  Name = Articaine
REMARK  11 active torsions:
REMARK  status: ('A' for Active; 'I' for Inactive)
REMARK    1  A    between atoms: C_1  and  C_2
REMARK    2  A    between atoms: C_2  and  C_3
REMARK    3  A    between atoms: C_3  and  N_4
REMARK    4  A    between atoms: N_4  and  C_5
REMARK    5  A    between atoms: C_5  and  C_6
REMARK    6  A    between atoms: C_5  and  C_7
REMARK    7  A    between atoms: N_9  and  C_10
REMARK    8  A    between atoms: C_11  and  C_16
REMARK    9  A    between atoms: C_14  and  C_15
REMARK   10  A    between atoms: C_16  and  O_18
REMARK   11  A    between atoms: O_18  and  C_19
REMARK                            x       y       z     vdW  Elec       q    Type
REMARK                         _______ _______ _______ _____ _____    ______ ____
ROOT
ATOM      1  C   UNL     1      -8.906  -0.317 124.775  0.00  0.00    +0.000 C 
ATOM      2  O   UNL     1     -10.027   0.140 125.000  0.00  0.00    +0.000 OA
ATOM      3  N   UNL     1      -7.722   0.400 124.955  0.00  0.00    +0.000 N 
ATOM      4  H   UNL     1      -6.934   0.167 124.359  0.00  0.00    +0.000 HD
ENDROOT
BRANCH   3   5
ATOM      5  C   UNL     1      -7.758   1.719 125.437  0.00  0.00    +0.000 A 
ATOM      6  C   UNL     1      -7.810   2.839 124.604  0.00  0.00    +0.000 A 
ATOM      7  S   UNL     1      -7.841   4.282 125.536  0.00  0.00    +0.000 S 
ATOM      8  C   UNL     1      -7.754   3.430 127.014  0.00  0.00    +0.000 A 
ATOM      9  C   UNL     1      -7.702   2.062 126.840  0.00  0.00    +0.000 A 
ATOM     10  C   UNL     1      -7.536   1.084 127.964  0.00  0.00    +0.000 C 
BRANCH   6  11
ATOM     11  C   UNL     1      -7.896   2.844 123.144  0.00  0.00    +0.000 C 
ATOM     12  O   UNL     1      -8.901   3.216 122.532  0.00  0.00    +0.000 OA
BRANCH  11  13
ATOM     13  O   UNL     1      -6.767   2.393 122.510  0.00  0.00    +0.000 OA
ATOM     14  C   UNL     1      -6.029   3.415 121.818  0.00  0.00    +0.000 C 
ENDBRANCH  11  13
ENDBRANCH   6  11
ENDBRANCH   3   5
BRANCH   1  15
ATOM     15  C   UNL     1      -8.739  -1.756 124.225  0.00  0.00    +0.000 C 
ATOM     16  C   UNL     1      -8.896  -2.740 125.380  0.00  0.00    +0.000 C 
BRANCH  15  17
ATOM     17  N   UNL     1      -7.391  -1.875 123.619  0.00  0.00    +0.000 NA
ATOM     18  H   UNL     1      -7.463  -1.794 122.603  0.00  0.00    +0.000 HD
BRANCH  17  19
ATOM     19  C   UNL     1      -6.670  -3.069 124.017  0.00  0.00    +0.000 C 
BRANCH  19  21
ATOM     20  C   UNL     1      -4.546  -4.323 123.744  0.00  0.00    +0.000 C 
ATOM     21  C   UNL     1      -5.181  -2.941 123.720  0.00  0.00    +0.000 C 
ENDBRANCH  19  21
ENDBRANCH  17  19
ENDBRANCH  15  17
ENDBRANCH   1  15
TORSDOF 7
ENDMDL
MODEL 8
REMARK VINA RESULT:      -5.2      5.827      8.852
REMARK  Name = Articaine
REMARK  11 active torsions:
REMARK  status: ('A' for Active; 'I' for Inactive)
REMARK    1  A    between atoms: C_1  and  C_2
REMARK    2  A    between atoms: C_2  and  C_3
REMARK    3  A    between atoms: C_3  and  N_4
REMARK    4  A    between atoms: N_4  and  C_5
REMARK    5  A    between atoms: C_5  and  C_6
REMARK    6  A    between atoms: C_5  and  C_7
REMARK    7  A    between atoms: N_9  and  C_10
REMARK    8  A    between atoms: C_11  and  C_16
REMARK    9  A    between atoms: C_14  and  C_15
REMARK   10  A    between atoms: C_16  and  O_18
REMARK   11  A    between atoms: O_18  and  C_19
REMARK                            x       y       z     vdW  Elec       q    Type
REMARK                         _______ _______ _______ _____ _____    ______ ____
ROOT
ATOM      1  C   UNL     1      -8.647  -1.399 125.303  0.00  0.00    +0.000 C 
ATOM      2  O   UNL     1      -9.574  -0.755 125.796  0.00  0.00    +0.000 OA
ATOM      3  N   UNL     1      -7.626  -1.989 126.049  0.00  0.00    +0.000 N 
ATOM      4  H   UNL     1      -6.716  -2.089 125.607  0.00  0.00    +0.000 HD
ENDROOT
BRANCH   3   5
ATOM      5  C   UNL     1      -7.620  -1.888 127.449  0.00  0.00    +0.000 A 
ATOM      6  C   UNL     1      -6.965  -0.866 128.142  0.00  0.00    +0.000 A 
ATOM      7  S   UNL     1      -7.170  -1.060 129.836  0.00  0.00    +0.000 S 
ATOM      8  C   UNL     1      -8.083  -2.492 129.648  0.00  0.00    +0.000 A 
ATOM      9  C   UNL     1      -8.251  -2.848 128.325  0.00  0.00    +0.000 A 
ATOM     10  C   UNL     1      -8.938  -4.105 127.881  0.00  0.00    +0.000 C 
BRANCH   6  11
ATOM     11  C   UNL     1      -6.251   0.270 127.562  0.00  0.00    +0.000 C 
ATOM     12  O   UNL     1      -5.338   0.141 126.741  0.00  0.00    +0.000 OA
BRANCH  11  13
ATOM     13  O   UNL     1      -6.675   1.493 128.011  0.00  0.00    +0.000 OA
ATOM     14  C   UNL     1      -7.694   2.101 127.199  0.00  0.00    +0.000 C 
ENDBRANCH  11  13
ENDBRANCH   6  11
ENDBRANCH   3   5
BRANCH   1  15
ATOM     15  C   UNL     1      -8.536  -1.566 123.766  0.00  0.00    +0.000 C 
ATOM     16  C   UNL     1      -8.800  -3.027 123.416  0.00  0.00    +0.000 C 
BRANCH  15  17
ATOM     17  N   UNL     1      -7.171  -1.168 123.346  0.00  0.00    +0.000 NA
ATOM     18  H   UNL     1      -7.228  -0.389 122.687  0.00  0.00    +0.000 HD
BRANCH  17  19
ATOM     19  C   UNL     1      -6.373  -2.262 122.824  0.00  0.00    +0.000 C 
BRANCH  19  21
ATOM     20  C   UNL     1      -4.790  -3.975 123.670  0.00  0.00    +0.000 C 
ATOM     21  C   UNL     1      -5.128  -2.491 123.672  0.00  0.00    +0.000 C 
ENDBRANCH  19  21
ENDBRANCH  17  19
ENDBRANCH  15  17
ENDBRANCH   1  15
TORSDOF 7
ENDMDL
MODEL 9
REMARK VINA RESULT:      -5.1      2.645      3.023
REMARK  Name = Articaine
REMARK  11 active torsions:
REMARK  status: ('A' for Active; 'I' for Inactive)
REMARK    1  A    between atoms: C_1  and  C_2
REMARK    2  A    between atoms: C_2  and  C_3
REMARK    3  A    between atoms: C_3  and  N_4
REMARK    4  A    between atoms: N_4  and  C_5
REMARK    5  A    between atoms: C_5  and  C_6
REMARK    6  A    between atoms: C_5  and  C_7
REMARK    7  A    between atoms: N_9  and  C_10
REMARK    8  A    between atoms: C_11  and  C_16
REMARK    9  A    between atoms: C_14  and  C_15
REMARK   10  A    between atoms: C_16  and  O_18
REMARK   11  A    between atoms: O_18  and  C_19
REMARK                            x       y       z     vdW  Elec       q    Type
REMARK                         _______ _______ _______ _____ _____    ______ ____
ROOT
ATOM      1  C   UNL     1      -9.937   5.485 130.451  0.00  0.00    +0.000 C 
ATOM      2  O   UNL     1      -9.702   4.610 129.616  0.00  0.00    +0.000 OA
ATOM      3  N   UNL     1      -9.183   5.677 131.610  0.00  0.00    +0.000 N 
ATOM      4  H   UNL     1      -9.657   6.061 132.422  0.00  0.00    +0.000 HD
ENDROOT
BRANCH   3   5
ATOM      5  C   UNL     1      -8.071   4.862 131.877  0.00  0.00    +0.000 A 
ATOM      6  C   UNL     1      -6.784   5.142 131.411  0.00  0.00    +0.000 A 
ATOM      7  S   UNL     1      -5.679   3.934 131.929  0.00  0.00    +0.000 S 
ATOM      8  C   UNL     1      -6.897   3.043 132.729  0.00  0.00    +0.000 A 
ATOM      9  C   UNL     1      -8.143   3.628 132.625  0.00  0.00    +0.000 A 
ATOM     10  C   UNL     1      -9.400   3.012 133.162  0.00  0.00    +0.000 C 
BRANCH   6  11
ATOM     11  C   UNL     1      -6.365   6.315 130.645  0.00  0.00    +0.000 C 
ATOM     12  O   UNL     1      -6.936   7.407 130.721  0.00  0.00    +0.000 OA
BRANCH  11  13
ATOM     13  O   UNL     1      -5.285   6.100 129.827  0.00  0.00    +0.000 OA
ATOM     14  C   UNL     1      -4.245   7.086 129.948  0.00  0.00    +0.000 C 
ENDBRANCH  11  13
ENDBRANCH   6  11
ENDBRANCH   3   5
BRANCH   1  15
ATOM     15  C   UNL     1     -11.147   6.435 130.274  0.00  0.00    +0.000 C 
ATOM     16  C   UNL     1     -11.884   6.538 131.605  0.00  0.00    +0.000 C 
BRANCH  15  17
ATOM     17  N   UNL     1     -12.037   5.875 129.229  0.00  0.00    +0.000 NA
ATOM     18  H   UNL     1     -11.530   5.171 128.688  0.00  0.00    +0.000 HD
BRANCH  17  19
ATOM     19  C   UNL     1     -12.647   6.877 128.375  0.00  0.00    +0.000 C 
BRANCH  19  21
ATOM     20  C   UNL     1     -11.036   7.634 126.647  0.00  0.00    +0.000 C 
ATOM     21  C   UNL     1     -11.648   7.964 127.999  0.00  0.00    +0.000 C 
ENDBRANCH  19  21
ENDBRANCH  17  19
ENDBRANCH  15  17
ENDBRANCH   1  15
TORSDOF 7
ENDMDL
