MODEL 1
REMARK VINA RESULT:      -8.9      0.000      0.000
REMARK  Name = Arzoxifene
REMARK  10 active torsions:
REMARK  status: ('A' for Active; 'I' for Inactive)
REMARK    1  A    between atoms: C_1  and  O_2
REMARK    2  A    between atoms: O_2  and  C_3
REMARK    3  A    between atoms: C_6  and  C_9
REMARK    4  A    between atoms: C_10  and  O_11
REMARK    5  A    between atoms: O_11  and  C_12
REMARK    6  A    between atoms: C_15  and  O_16
REMARK    7  A    between atoms: O_16  and  C_17
REMARK    8  A    between atoms: C_17  and  C_18
REMARK    9  A    between atoms: C_18  and  N_19
REMARK   10  A    between atoms: C_31  and  O_32
REMARK                            x       y       z     vdW  Elec       q    Type
REMARK                         _______ _______ _______ _____ _____    ______ ____
ROOT
ATOM      1  C   UNL     1      -6.928  -2.281 129.262  0.00  0.00    +0.000 A 
ATOM      2  C   UNL     1      -6.901  -1.460 130.390  0.00  0.00    +0.000 A 
ATOM      3  C   UNL     1      -5.566  -1.523 130.917  0.00  0.00    +0.000 A 
ATOM      4  C   UNL     1      -5.724  -2.629 131.756  0.00  0.00    +0.000 A 
ATOM      5  S   UNL     1      -6.112  -3.762 130.071  0.00  0.00    +0.000 S 
ATOM      6  C   UNL     1      -4.772  -2.814 132.827  0.00  0.00    +0.000 A 
ATOM      7  C   UNL     1      -3.461  -2.365 132.600  0.00  0.00    +0.000 A 
ATOM      8  C   UNL     1      -3.151  -1.812 131.373  0.00  0.00    +0.000 A 
ATOM      9  C   UNL     1      -4.196  -1.411 130.505  0.00  0.00    +0.000 A 
ENDROOT
BRANCH   1  13
ATOM     10  C   UNL     1      -9.222  -2.636 125.473  0.00  0.00    +0.000 A 
ATOM     11  C   UNL     1      -8.723  -1.385 125.824  0.00  0.00    +0.000 A 
ATOM     12  C   UNL     1      -7.973  -1.138 127.048  0.00  0.00    +0.000 A 
ATOM     13  C   UNL     1      -7.793  -2.158 128.003  0.00  0.00    +0.000 A 
ATOM     14  C   UNL     1      -8.586  -3.275 127.712  0.00  0.00    +0.000 A 
ATOM     15  C   UNL     1      -9.155  -3.590 126.471  0.00  0.00    +0.000 A 
BRANCH  10  17
ATOM     16  C   UNL     1      -8.994  -2.429 123.094  0.00  0.00    +0.000 C 
ATOM     17  O   UNL     1      -9.747  -2.886 124.238  0.00  0.00    +0.000 OA
ENDBRANCH  10  17
ENDBRANCH   1  13
BRANCH   7  18
ATOM     18  O   UNL     1      -2.458  -2.384 133.532  0.00  0.00    +0.000 OA
ATOM     19  H   UNL     1      -1.702  -2.928 133.253  0.00  0.00    +0.000 HD
ENDBRANCH   7  18
BRANCH   2  20
ATOM     20  O   UNL     1      -7.981  -0.964 131.091  0.00  0.00    +0.000 OA
BRANCH  20  21
ATOM     21  C   UNL     1      -8.444   0.346 131.078  0.00  0.00    +0.000 A 
ATOM     22  C   UNL     1      -8.158   1.081 129.916  0.00  0.00    +0.000 A 
ATOM     23  C   UNL     1      -8.751   2.333 129.683  0.00  0.00    +0.000 A 
ATOM     24  C   UNL     1      -9.689   2.850 130.580  0.00  0.00    +0.000 A 
ATOM     25  C   UNL     1      -9.966   2.126 131.749  0.00  0.00    +0.000 A 
ATOM     26  C   UNL     1      -9.310   0.903 132.026  0.00  0.00    +0.000 A 
BRANCH  24  27
ATOM     27  O   UNL     1     -10.379   3.950 130.117  0.00  0.00    +0.000 OA
BRANCH  27  28
ATOM     28  C   UNL     1     -10.294   5.120 130.933  0.00  0.00    +0.000 C 
BRANCH  28  29
ATOM     29  C   UNL     1     -11.598   5.946 130.905  0.00  0.00    +0.000 C 
BRANCH  29  30
ATOM     30  N   UNL     1     -11.687   6.983 129.845  0.00  0.00    +0.000 NA
ATOM     31  C   UNL     1     -10.389   7.342 129.252  0.00  0.00    +0.000 C 
ATOM     32  C   UNL     1     -10.498   8.404 128.168  0.00  0.00    +0.000 C 
ATOM     33  C   UNL     1     -11.467   7.961 127.085  0.00  0.00    +0.000 C 
ATOM     34  C   UNL     1     -12.804   7.568 127.701  0.00  0.00    +0.000 C 
ATOM     35  C   UNL     1     -12.627   6.532 128.808  0.00  0.00    +0.000 C 
ENDBRANCH  29  30
ENDBRANCH  28  29
ENDBRANCH  27  28
ENDBRANCH  24  27
ENDBRANCH  20  21
ENDBRANCH   2  20
TORSDOF 9
ENDMDL
MODEL 2
REMARK VINA RESULT:      -8.7      4.246     10.451
REMARK  Name = Arzoxifene
REMARK  10 active torsions:
REMARK  status: ('A' for Active; 'I' for Inactive)
REMARK    1  A    between atoms: C_1  and  O_2
REMARK    2  A    between atoms: O_2  and  C_3
REMARK    3  A    between atoms: C_6  and  C_9
REMARK    4  A    between atoms: C_10  and  O_11
REMARK    5  A    between atoms: O_11  and  C_12
REMARK    6  A    between atoms: C_15  and  O_16
REMARK    7  A    between atoms: O_16  and  C_17
REMARK    8  A    between atoms: C_17  and  C_18
REMARK    9  A    between atoms: C_18  and  N_19
REMARK   10  A    between atoms: C_31  and  O_32
REMARK                            x       y       z     vdW  Elec       q    Type
REMARK                         _______ _______ _______ _____ _____    ______ ____
ROOT
ATOM      1  C   UNL     1      -9.526   6.157 131.257  0.00  0.00    +0.000 A 
ATOM      2  C   UNL     1      -9.741   5.651 129.975  0.00  0.00    +0.000 A 
ATOM      3  C   UNL     1     -10.564   6.605 129.285  0.00  0.00    +0.000 A 
ATOM      4  C   UNL     1     -11.816   6.113 129.662  0.00  0.00    +0.000 A 
ATOM      5  S   UNL     1     -11.321   6.557 131.619  0.00  0.00    +0.000 S 
ATOM      6  C   UNL     1     -12.963   6.484 128.864  0.00  0.00    +0.000 A 
ATOM      7  C   UNL     1     -12.929   7.744 128.246  0.00  0.00    +0.000 A 
ATOM      8  C   UNL     1     -11.836   8.561 128.459  0.00  0.00    +0.000 A 
ATOM      9  C   UNL     1     -10.651   8.010 129.007  0.00  0.00    +0.000 A 
ENDROOT
BRANCH   1  13
ATOM     10  C   UNL     1      -5.655   5.415 133.308  0.00  0.00    +0.000 A 
ATOM     11  C   UNL     1      -6.829   5.088 133.981  0.00  0.00    +0.000 A 
ATOM     12  C   UNL     1      -8.156   5.301 133.423  0.00  0.00    +0.000 A 
ATOM     13  C   UNL     1      -8.323   5.950 132.184  0.00  0.00    +0.000 A 
ATOM     14  C   UNL     1      -7.121   6.513 131.737  0.00  0.00    +0.000 A 
ATOM     15  C   UNL     1      -5.832   6.166 132.161  0.00  0.00    +0.000 A 
BRANCH  10  17
ATOM     16  C   UNL     1      -4.130   3.616 133.751  0.00  0.00    +0.000 C 
ATOM     17  O   UNL     1      -4.427   5.029 133.764  0.00  0.00    +0.000 OA
ENDBRANCH  10  17
ENDBRANCH   1  13
BRANCH   7  18
ATOM     18  O   UNL     1     -13.887   8.219 127.391  0.00  0.00    +0.000 OA
ATOM     19  H   UNL     1     -14.163   9.125 127.608  0.00  0.00    +0.000 HD
ENDBRANCH   7  18
BRANCH   2  20
ATOM     20  O   UNL     1      -9.533   4.359 129.538  0.00  0.00    +0.000 OA
BRANCH  20  21
ATOM     21  C   UNL     1      -9.262   3.251 130.331  0.00  0.00    +0.000 A 
ATOM     22  C   UNL     1      -7.931   2.803 130.317  0.00  0.00    +0.000 A 
ATOM     23  C   UNL     1      -7.479   1.839 131.232  0.00  0.00    +0.000 A 
ATOM     24  C   UNL     1      -8.334   1.345 132.221  0.00  0.00    +0.000 A 
ATOM     25  C   UNL     1      -9.667   1.779 132.229  0.00  0.00    +0.000 A 
ATOM     26  C   UNL     1     -10.147   2.689 131.259  0.00  0.00    +0.000 A 
BRANCH  24  27
ATOM     27  O   UNL     1      -7.709   0.607 133.204  0.00  0.00    +0.000 OA
BRANCH  27  28
ATOM     28  C   UNL     1      -6.951  -0.515 132.745  0.00  0.00    +0.000 C 
BRANCH  28  29
ATOM     29  C   UNL     1      -7.774  -1.821 132.763  0.00  0.00    +0.000 C 
BRANCH  29  30
ATOM     30  N   UNL     1      -7.223  -2.947 131.967  0.00  0.00    +0.000 NA
ATOM     31  C   UNL     1      -6.619  -2.535 130.690  0.00  0.00    +0.000 C 
ATOM     32  C   UNL     1      -6.059  -3.699 129.886  0.00  0.00    +0.000 C 
ATOM     33  C   UNL     1      -5.055  -4.482 130.716  0.00  0.00    +0.000 C 
ATOM     34  C   UNL     1      -5.673  -4.890 132.047  0.00  0.00    +0.000 C 
ATOM     35  C   UNL     1      -6.253  -3.688 132.786  0.00  0.00    +0.000 C 
ENDBRANCH  29  30
ENDBRANCH  28  29
ENDBRANCH  27  28
ENDBRANCH  24  27
ENDBRANCH  20  21
ENDBRANCH   2  20
TORSDOF 9
ENDMDL
MODEL 3
REMARK VINA RESULT:      -8.7      2.785      5.800
REMARK  Name = Arzoxifene
REMARK  10 active torsions:
REMARK  status: ('A' for Active; 'I' for Inactive)
REMARK    1  A    between atoms: C_1  and  O_2
REMARK    2  A    between atoms: O_2  and  C_3
REMARK    3  A    between atoms: C_6  and  C_9
REMARK    4  A    between atoms: C_10  and  O_11
REMARK    5  A    between atoms: O_11  and  C_12
REMARK    6  A    between atoms: C_15  and  O_16
REMARK    7  A    between atoms: O_16  and  C_17
REMARK    8  A    between atoms: C_17  and  C_18
REMARK    9  A    between atoms: C_18  and  N_19
REMARK   10  A    between atoms: C_31  and  O_32
REMARK                            x       y       z     vdW  Elec       q    Type
REMARK                         _______ _______ _______ _____ _____    ______ ____
ROOT
ATOM      1  C   UNL     1      -7.669  -0.157 126.655  0.00  0.00    +0.000 A 
ATOM      2  C   UNL     1      -7.840   1.221 126.791  0.00  0.00    +0.000 A 
ATOM      3  C   UNL     1      -8.388   1.697 125.551  0.00  0.00    +0.000 A 
ATOM      4  C   UNL     1      -7.192   1.937 124.872  0.00  0.00    +0.000 A 
ATOM      5  S   UNL     1      -6.796  -0.088 124.998  0.00  0.00    +0.000 S 
ATOM      6  C   UNL     1      -7.220   2.832 123.736  0.00  0.00    +0.000 A 
ATOM      7  C   UNL     1      -8.403   2.866 122.982  0.00  0.00    +0.000 A 
ATOM      8  C   UNL     1      -9.445   2.033 123.338  0.00  0.00    +0.000 A 
ATOM      9  C   UNL     1      -9.438   1.415 124.613  0.00  0.00    +0.000 A 
ENDROOT
BRANCH   1  13
ATOM     10  C   UNL     1      -7.126  -3.062 129.972  0.00  0.00    +0.000 A 
ATOM     11  C   UNL     1      -7.893  -3.450 128.877  0.00  0.00    +0.000 A 
ATOM     12  C   UNL     1      -8.158  -2.582 127.739  0.00  0.00    +0.000 A 
ATOM     13  C   UNL     1      -7.720  -1.243 127.733  0.00  0.00    +0.000 A 
ATOM     14  C   UNL     1      -7.237  -0.860 128.991  0.00  0.00    +0.000 A 
ATOM     15  C   UNL     1      -6.815  -1.716 130.017  0.00  0.00    +0.000 A 
BRANCH  10  17
ATOM     16  C   UNL     1      -5.549  -4.737 130.654  0.00  0.00    +0.000 C 
ATOM     17  O   UNL     1      -6.729  -3.950 130.930  0.00  0.00    +0.000 OA
ENDBRANCH  10  17
ENDBRANCH   1  13
BRANCH   7  18
ATOM     18  O   UNL     1      -8.632   3.713 121.930  0.00  0.00    +0.000 OA
ATOM     19  H   UNL     1      -7.809   4.028 121.520  0.00  0.00    +0.000 HD
ENDBRANCH   7  18
BRANCH   2  20
ATOM     20  O   UNL     1      -7.286   2.044 127.750  0.00  0.00    +0.000 OA
BRANCH  20  21
ATOM     21  C   UNL     1      -7.968   2.935 128.570  0.00  0.00    +0.000 A 
ATOM     22  C   UNL     1      -9.041   2.394 129.296  0.00  0.00    +0.000 A 
ATOM     23  C   UNL     1      -9.670   3.125 130.317  0.00  0.00    +0.000 A 
ATOM     24  C   UNL     1      -9.200   4.391 130.674  0.00  0.00    +0.000 A 
ATOM     25  C   UNL     1      -8.137   4.941 129.943  0.00  0.00    +0.000 A 
ATOM     26  C   UNL     1      -7.554   4.240 128.861  0.00  0.00    +0.000 A 
BRANCH  24  27
ATOM     27  O   UNL     1      -9.730   4.891 131.845  0.00  0.00    +0.000 OA
BRANCH  27  28
ATOM     28  C   UNL     1     -10.186   6.244 131.787  0.00  0.00    +0.000 C 
BRANCH  28  29
ATOM     29  C   UNL     1     -11.618   6.354 131.223  0.00  0.00    +0.000 C 
BRANCH  29  30
ATOM     30  N   UNL     1     -11.774   7.189 130.004  0.00  0.00    +0.000 NA
ATOM     31  C   UNL     1     -10.500   7.658 129.437  0.00  0.00    +0.000 C 
ATOM     32  C   UNL     1     -10.677   8.511 128.189  0.00  0.00    +0.000 C 
ATOM     33  C   UNL     1     -11.477   7.759 127.140  0.00  0.00    +0.000 C 
ATOM     34  C   UNL     1     -12.786   7.255 127.734  0.00  0.00    +0.000 C 
ATOM     35  C   UNL     1     -12.548   6.441 129.003  0.00  0.00    +0.000 C 
ENDBRANCH  29  30
ENDBRANCH  28  29
ENDBRANCH  27  28
ENDBRANCH  24  27
ENDBRANCH  20  21
ENDBRANCH   2  20
TORSDOF 9
ENDMDL
MODEL 4
REMARK VINA RESULT:      -8.6      2.221      5.733
REMARK  Name = Arzoxifene
REMARK  10 active torsions:
REMARK  status: ('A' for Active; 'I' for Inactive)
REMARK    1  A    between atoms: C_1  and  O_2
REMARK    2  A    between atoms: O_2  and  C_3
REMARK    3  A    between atoms: C_6  and  C_9
REMARK    4  A    between atoms: C_10  and  O_11
REMARK    5  A    between atoms: O_11  and  C_12
REMARK    6  A    between atoms: C_15  and  O_16
REMARK    7  A    between atoms: O_16  and  C_17
REMARK    8  A    between atoms: C_17  and  C_18
REMARK    9  A    between atoms: C_18  and  N_19
REMARK   10  A    between atoms: C_31  and  O_32
REMARK                            x       y       z     vdW  Elec       q    Type
REMARK                         _______ _______ _______ _____ _____    ______ ____
ROOT
ATOM      1  C   UNL     1      -7.150  -3.083 131.325  0.00  0.00    +0.000 A 
ATOM      2  C   UNL     1      -7.607  -1.949 130.653  0.00  0.00    +0.000 A 
ATOM      3  C   UNL     1      -7.972  -2.369 129.328  0.00  0.00    +0.000 A 
ATOM      4  C   UNL     1      -6.731  -2.208 128.707  0.00  0.00    +0.000 A 
ATOM      5  S   UNL     1      -5.989  -3.663 129.973  0.00  0.00    +0.000 S 
ATOM      6  C   UNL     1      -6.700  -2.094 127.267  0.00  0.00    +0.000 A 
ATOM      7  C   UNL     1      -7.689  -2.787 126.551  0.00  0.00    +0.000 A 
ATOM      8  C   UNL     1      -8.602  -3.553 127.249  0.00  0.00    +0.000 A 
ATOM      9  C   UNL     1      -8.736  -3.376 128.648  0.00  0.00    +0.000 A 
ENDROOT
BRANCH   1  13
ATOM     10  C   UNL     1      -7.226  -4.729 135.451  0.00  0.00    +0.000 A 
ATOM     11  C   UNL     1      -7.982  -3.591 135.183  0.00  0.00    +0.000 A 
ATOM     12  C   UNL     1      -8.024  -2.948 133.878  0.00  0.00    +0.000 A 
ATOM     13  C   UNL     1      -7.209  -3.402 132.822  0.00  0.00    +0.000 A 
ATOM     14  C   UNL     1      -6.268  -4.338 133.271  0.00  0.00    +0.000 A 
ATOM     15  C   UNL     1      -6.336  -5.084 134.455  0.00  0.00    +0.000 A 
BRANCH  10  17
ATOM     16  C   UNL     1      -8.224  -4.870 137.628  0.00  0.00    +0.000 C 
ATOM     17  O   UNL     1      -7.353  -5.424 136.619  0.00  0.00    +0.000 OA
ENDBRANCH  10  17
ENDBRANCH   1  13
BRANCH   7  18
ATOM     18  O   UNL     1      -7.858  -2.723 125.193  0.00  0.00    +0.000 OA
ATOM     19  H   UNL     1      -8.784  -2.856 124.928  0.00  0.00    +0.000 HD
ENDBRANCH   7  18
BRANCH   2  20
ATOM     20  O   UNL     1      -7.427  -0.629 131.017  0.00  0.00    +0.000 OA
BRANCH  20  21
ATOM     21  C   UNL     1      -8.301   0.423 130.771  0.00  0.00    +0.000 A 
ATOM     22  C   UNL     1      -9.175   0.746 131.821  0.00  0.00    +0.000 A 
ATOM     23  C   UNL     1      -9.950   1.916 131.787  0.00  0.00    +0.000 A 
ATOM     24  C   UNL     1      -9.824   2.819 130.729  0.00  0.00    +0.000 A 
ATOM     25  C   UNL     1      -8.963   2.493 129.671  0.00  0.00    +0.000 A 
ATOM     26  C   UNL     1      -8.241   1.277 129.663  0.00  0.00    +0.000 A 
BRANCH  24  27
ATOM     27  O   UNL     1     -10.440   4.035 130.935  0.00  0.00    +0.000 OA
BRANCH  27  28
ATOM     28  C   UNL     1      -9.612   5.060 131.490  0.00  0.00    +0.000 C 
BRANCH  28  29
ATOM     29  C   UNL     1     -10.228   6.464 131.318  0.00  0.00    +0.000 C 
BRANCH  29  30
ATOM     30  N   UNL     1     -10.935   6.710 130.034  0.00  0.00    +0.000 NA
ATOM     31  C   UNL     1     -12.377   6.961 130.187  0.00  0.00    +0.000 C 
ATOM     32  C   UNL     1     -13.086   7.212 128.865  0.00  0.00    +0.000 C 
ATOM     33  C   UNL     1     -12.428   8.360 128.118  0.00  0.00    +0.000 C 
ATOM     34  C   UNL     1     -10.931   8.110 127.979  0.00  0.00    +0.000 C 
ATOM     35  C   UNL     1     -10.284   7.825 129.332  0.00  0.00    +0.000 C 
ENDBRANCH  29  30
ENDBRANCH  28  29
ENDBRANCH  27  28
ENDBRANCH  24  27
ENDBRANCH  20  21
ENDBRANCH   2  20
TORSDOF 9
ENDMDL
MODEL 5
REMARK VINA RESULT:      -8.5      4.483      9.151
REMARK  Name = Arzoxifene
REMARK  10 active torsions:
REMARK  status: ('A' for Active; 'I' for Inactive)
REMARK    1  A    between atoms: C_1  and  O_2
REMARK    2  A    between atoms: O_2  and  C_3
REMARK    3  A    between atoms: C_6  and  C_9
REMARK    4  A    between atoms: C_10  and  O_11
REMARK    5  A    between atoms: O_11  and  C_12
REMARK    6  A    between atoms: C_15  and  O_16
REMARK    7  A    between atoms: O_16  and  C_17
REMARK    8  A    between atoms: C_17  and  C_18
REMARK    9  A    between atoms: C_18  and  N_19
REMARK   10  A    between atoms: C_31  and  O_32
REMARK                            x       y       z     vdW  Elec       q    Type
REMARK                         _______ _______ _______ _____ _____    ______ ____
ROOT
ATOM      1  C   UNL     1     -10.269   4.955 129.914  0.00  0.00    +0.000 A 
ATOM      2  C   UNL     1     -10.712   5.937 130.801  0.00  0.00    +0.000 A 
ATOM      3  C   UNL     1     -11.718   6.697 130.112  0.00  0.00    +0.000 A 
ATOM      4  C   UNL     1     -10.888   7.648 129.513  0.00  0.00    +0.000 A 
ATOM      5  S   UNL     1     -10.003   6.106 128.458  0.00  0.00    +0.000 S 
ATOM      6  C   UNL     1     -11.483   8.887 129.066  0.00  0.00    +0.000 A 
ATOM      7  C   UNL     1     -12.815   8.833 128.628  0.00  0.00    +0.000 A 
ATOM      8  C   UNL     1     -13.463   7.613 128.616  0.00  0.00    +0.000 A 
ATOM      9  C   UNL     1     -12.910   6.523 129.332  0.00  0.00    +0.000 A 
ENDROOT
BRANCH   1  13
ATOM     10  C   UNL     1      -8.725   1.115 131.527  0.00  0.00    +0.000 A 
ATOM     11  C   UNL     1      -8.254   1.545 130.290  0.00  0.00    +0.000 A 
ATOM     12  C   UNL     1      -8.698   2.774 129.649  0.00  0.00    +0.000 A 
ATOM     13  C   UNL     1      -9.719   3.559 130.220  0.00  0.00    +0.000 A 
ATOM     14  C   UNL     1     -10.338   2.893 131.285  0.00  0.00    +0.000 A 
ATOM     15  C   UNL     1      -9.812   1.816 132.012  0.00  0.00    +0.000 A 
BRANCH  10  17
ATOM     16  C   UNL     1      -7.704  -1.053 131.407  0.00  0.00    +0.000 C 
ATOM     17  O   UNL     1      -8.155   0.069 132.196  0.00  0.00    +0.000 OA
ENDBRANCH  10  17
ENDBRANCH   1  13
BRANCH   7  18
ATOM     18  O   UNL     1     -13.558   9.921 128.252  0.00  0.00    +0.000 OA
ATOM     19  H   UNL     1     -14.079   9.755 127.449  0.00  0.00    +0.000 HD
ENDBRANCH   7  18
BRANCH   2  20
ATOM     20  O   UNL     1     -10.097   6.354 131.964  0.00  0.00    +0.000 OA
BRANCH  20  21
ATOM     21  C   UNL     1      -8.733   6.345 132.228  0.00  0.00    +0.000 A 
ATOM     22  C   UNL     1      -8.342   5.652 133.385  0.00  0.00    +0.000 A 
ATOM     23  C   UNL     1      -6.989   5.381 133.648  0.00  0.00    +0.000 A 
ATOM     24  C   UNL     1      -6.002   5.745 132.728  0.00  0.00    +0.000 A 
ATOM     25  C   UNL     1      -6.387   6.449 131.578  0.00  0.00    +0.000 A 
ATOM     26  C   UNL     1      -7.740   6.794 131.349  0.00  0.00    +0.000 A 
BRANCH  24  27
ATOM     27  O   UNL     1      -4.759   5.203 132.976  0.00  0.00    +0.000 OA
BRANCH  27  28
ATOM     28  C   UNL     1      -4.392   4.096 132.150  0.00  0.00    +0.000 C 
BRANCH  28  29
ATOM     29  C   UNL     1      -2.963   4.238 131.585  0.00  0.00    +0.000 C 
BRANCH  29  30
ATOM     30  N   UNL     1      -2.864   4.693 130.174  0.00  0.00    +0.000 NA
ATOM     31  C   UNL     1      -4.109   4.529 129.407  0.00  0.00    +0.000 C 
ATOM     32  C   UNL     1      -3.992   4.999 127.965  0.00  0.00    +0.000 C 
ATOM     33  C   UNL     1      -3.528   6.445 127.913  0.00  0.00    +0.000 C 
ATOM     34  C   UNL     1      -2.251   6.619 128.725  0.00  0.00    +0.000 C 
ATOM     35  C   UNL     1      -2.417   6.093 130.148  0.00  0.00    +0.000 C 
ENDBRANCH  29  30
ENDBRANCH  28  29
ENDBRANCH  27  28
ENDBRANCH  24  27
ENDBRANCH  20  21
ENDBRANCH   2  20
TORSDOF 9
ENDMDL
MODEL 6
REMARK VINA RESULT:      -8.4      3.958     10.313
REMARK  Name = Arzoxifene
REMARK  10 active torsions:
REMARK  status: ('A' for Active; 'I' for Inactive)
REMARK    1  A    between atoms: C_1  and  O_2
REMARK    2  A    between atoms: O_2  and  C_3
REMARK    3  A    between atoms: C_6  and  C_9
REMARK    4  A    between atoms: C_10  and  O_11
REMARK    5  A    between atoms: O_11  and  C_12
REMARK    6  A    between atoms: C_15  and  O_16
REMARK    7  A    between atoms: O_16  and  C_17
REMARK    8  A    between atoms: C_17  and  C_18
REMARK    9  A    between atoms: C_18  and  N_19
REMARK   10  A    between atoms: C_31  and  O_32
REMARK                            x       y       z     vdW  Elec       q    Type
REMARK                         _______ _______ _______ _____ _____    ______ ____
ROOT
ATOM      1  C   UNL     1      -9.816   6.127 131.370  0.00  0.00    +0.000 A 
ATOM      2  C   UNL     1      -9.999   5.618 130.084  0.00  0.00    +0.000 A 
ATOM      3  C   UNL     1     -10.740   6.604 129.348  0.00  0.00    +0.000 A 
ATOM      4  C   UNL     1     -12.031   6.181 129.672  0.00  0.00    +0.000 A 
ATOM      5  S   UNL     1     -11.602   6.622 131.646  0.00  0.00    +0.000 S 
ATOM      6  C   UNL     1     -13.120   6.601 128.819  0.00  0.00    +0.000 A 
ATOM      7  C   UNL     1     -12.994   7.850 128.192  0.00  0.00    +0.000 A 
ATOM      8  C   UNL     1     -11.871   8.612 128.447  0.00  0.00    +0.000 A 
ATOM      9  C   UNL     1     -10.742   8.009 129.053  0.00  0.00    +0.000 A 
ENDROOT
BRANCH   1  13
ATOM     10  C   UNL     1      -6.095   5.179 133.604  0.00  0.00    +0.000 A 
ATOM     11  C   UNL     1      -7.314   4.978 134.244  0.00  0.00    +0.000 A 
ATOM     12  C   UNL     1      -8.600   5.269 133.624  0.00  0.00    +0.000 A 
ATOM     13  C   UNL     1      -8.668   5.870 132.352  0.00  0.00    +0.000 A 
ATOM     14  C   UNL     1      -7.409   6.314 131.929  0.00  0.00    +0.000 A 
ATOM     15  C   UNL     1      -6.168   5.886 132.419  0.00  0.00    +0.000 A 
BRANCH  10  17
ATOM     16  C   UNL     1      -3.977   5.705 134.603  0.00  0.00    +0.000 C 
ATOM     17  O   UNL     1      -4.919   4.720 134.126  0.00  0.00    +0.000 OA
ENDBRANCH  10  17
ENDBRANCH   1  13
BRANCH   7  18
ATOM     18  O   UNL     1     -13.887   8.364 127.290  0.00  0.00    +0.000 OA
ATOM     19  H   UNL     1     -13.464   8.949 126.640  0.00  0.00    +0.000 HD
ENDBRANCH   7  18
BRANCH   2  20
ATOM     20  O   UNL     1      -9.838   4.311 129.668  0.00  0.00    +0.000 OA
BRANCH  20  21
ATOM     21  C   UNL     1      -8.648   3.595 129.632  0.00  0.00    +0.000 A 
ATOM     22  C   UNL     1      -8.759   2.217 129.877  0.00  0.00    +0.000 A 
ATOM     23  C   UNL     1      -7.677   1.350 129.656  0.00  0.00    +0.000 A 
ATOM     24  C   UNL     1      -6.477   1.835 129.129  0.00  0.00    +0.000 A 
ATOM     25  C   UNL     1      -6.357   3.213 128.898  0.00  0.00    +0.000 A 
ATOM     26  C   UNL     1      -7.418   4.100 129.195  0.00  0.00    +0.000 A 
BRANCH  24  27
ATOM     27  O   UNL     1      -5.592   0.858 128.724  0.00  0.00    +0.000 OA
BRANCH  27  28
ATOM     28  C   UNL     1      -5.690   0.469 127.352  0.00  0.00    +0.000 C 
BRANCH  28  29
ATOM     29  C   UNL     1      -5.759  -1.063 127.184  0.00  0.00    +0.000 C 
BRANCH  29  30
ATOM     30  N   UNL     1      -7.076  -1.690 127.470  0.00  0.00    +0.000 NA
ATOM     31  C   UNL     1      -7.624  -2.462 126.344  0.00  0.00    +0.000 C 
ATOM     32  C   UNL     1      -8.972  -3.097 126.653  0.00  0.00    +0.000 C 
ATOM     33  C   UNL     1      -8.877  -3.968 127.894  0.00  0.00    +0.000 C 
ATOM     34  C   UNL     1      -8.289  -3.174 129.053  0.00  0.00    +0.000 C 
ATOM     35  C   UNL     1      -6.960  -2.529 128.671  0.00  0.00    +0.000 C 
ENDBRANCH  29  30
ENDBRANCH  28  29
ENDBRANCH  27  28
ENDBRANCH  24  27
ENDBRANCH  20  21
ENDBRANCH   2  20
TORSDOF 9
ENDMDL
MODEL 7
REMARK VINA RESULT:      -8.4      1.750      2.244
REMARK  Name = Arzoxifene
REMARK  10 active torsions:
REMARK  status: ('A' for Active; 'I' for Inactive)
REMARK    1  A    between atoms: C_1  and  O_2
REMARK    2  A    between atoms: O_2  and  C_3
REMARK    3  A    between atoms: C_6  and  C_9
REMARK    4  A    between atoms: C_10  and  O_11
REMARK    5  A    between atoms: O_11  and  C_12
REMARK    6  A    between atoms: C_15  and  O_16
REMARK    7  A    between atoms: O_16  and  C_17
REMARK    8  A    between atoms: C_17  and  C_18
REMARK    9  A    between atoms: C_18  and  N_19
REMARK   10  A    between atoms: C_31  and  O_32
REMARK                            x       y       z     vdW  Elec       q    Type
REMARK                         _______ _______ _______ _____ _____    ______ ____
ROOT
ATOM      1  C   UNL     1      -6.831  -2.450 128.455  0.00  0.00    +0.000 A 
ATOM      2  C   UNL     1      -5.943  -1.954 129.411  0.00  0.00    +0.000 A 
ATOM      3  C   UNL     1      -5.654  -3.036 130.311  0.00  0.00    +0.000 A 
ATOM      4  C   UNL     1      -6.700  -2.840 131.216  0.00  0.00    +0.000 A 
ATOM      5  S   UNL     1      -8.016  -3.241 129.673  0.00  0.00    +0.000 S 
ATOM      6  C   UNL     1      -6.577  -3.419 132.535  0.00  0.00    +0.000 A 
ATOM      7  C   UNL     1      -5.854  -4.617 132.640  0.00  0.00    +0.000 A 
ATOM      8  C   UNL     1      -5.339  -5.187 131.493  0.00  0.00    +0.000 A 
ATOM      9  C   UNL     1      -5.258  -4.416 130.308  0.00  0.00    +0.000 A 
ENDROOT
BRANCH   1  13
ATOM     10  C   UNL     1      -8.019  -1.555 124.269  0.00  0.00    +0.000 A 
ATOM     11  C   UNL     1      -6.668  -1.748 124.541  0.00  0.00    +0.000 A 
ATOM     12  C   UNL     1      -6.153  -2.029 125.875  0.00  0.00    +0.000 A 
ATOM     13  C   UNL     1      -7.008  -2.024 126.994  0.00  0.00    +0.000 A 
ATOM     14  C   UNL     1      -8.273  -1.519 126.668  0.00  0.00    +0.000 A 
ATOM     15  C   UNL     1      -8.824  -1.422 125.384  0.00  0.00    +0.000 A 
BRANCH  10  17
ATOM     16  C   UNL     1      -9.558  -0.544 122.731  0.00  0.00    +0.000 C 
ATOM     17  O   UNL     1      -8.498  -1.489 122.992  0.00  0.00    +0.000 OA
ENDBRANCH  10  17
ENDBRANCH   1  13
BRANCH   7  18
ATOM     18  O   UNL     1      -5.569  -5.255 133.819  0.00  0.00    +0.000 OA
ATOM     19  H   UNL     1      -4.807  -4.863 134.278  0.00  0.00    +0.000 HD
ENDBRANCH   7  18
BRANCH   2  20
ATOM     20  O   UNL     1      -5.659  -0.631 129.685  0.00  0.00    +0.000 OA
BRANCH  20  21
ATOM     21  C   UNL     1      -6.578   0.401 129.819  0.00  0.00    +0.000 A 
ATOM     22  C   UNL     1      -6.653   1.293 128.738  0.00  0.00    +0.000 A 
ATOM     23  C   UNL     1      -7.684   2.244 128.649  0.00  0.00    +0.000 A 
ATOM     24  C   UNL     1      -8.696   2.283 129.612  0.00  0.00    +0.000 A 
ATOM     25  C   UNL     1      -8.617   1.403 130.701  0.00  0.00    +0.000 A 
ATOM     26  C   UNL     1      -7.537   0.499 130.835  0.00  0.00    +0.000 A 
BRANCH  24  27
ATOM     27  O   UNL     1      -9.773   3.078 129.280  0.00  0.00    +0.000 OA
BRANCH  27  28
ATOM     28  C   UNL     1     -10.287   3.892 130.336  0.00  0.00    +0.000 C 
BRANCH  28  29
ATOM     29  C   UNL     1      -9.940   5.384 130.144  0.00  0.00    +0.000 C 
BRANCH  29  30
ATOM     30  N   UNL     1     -10.775   6.123 129.163  0.00  0.00    +0.000 NA
ATOM     31  C   UNL     1     -12.205   6.165 129.509  0.00  0.00    +0.000 C 
ATOM     32  C   UNL     1     -13.046   6.926 128.496  0.00  0.00    +0.000 C 
ATOM     33  C   UNL     1     -12.507   8.335 128.309  0.00  0.00    +0.000 C 
ATOM     34  C   UNL     1     -11.022   8.292 127.972  0.00  0.00    +0.000 C 
ATOM     35  C   UNL     1     -10.239   7.482 129.000  0.00  0.00    +0.000 C 
ENDBRANCH  29  30
ENDBRANCH  28  29
ENDBRANCH  27  28
ENDBRANCH  24  27
ENDBRANCH  20  21
ENDBRANCH   2  20
TORSDOF 9
ENDMDL
MODEL 8
REMARK VINA RESULT:      -8.2      4.375      8.686
REMARK  Name = Arzoxifene
REMARK  10 active torsions:
REMARK  status: ('A' for Active; 'I' for Inactive)
REMARK    1  A    between atoms: C_1  and  O_2
REMARK    2  A    between atoms: O_2  and  C_3
REMARK    3  A    between atoms: C_6  and  C_9
REMARK    4  A    between atoms: C_10  and  O_11
REMARK    5  A    between atoms: O_11  and  C_12
REMARK    6  A    between atoms: C_15  and  O_16
REMARK    7  A    between atoms: O_16  and  C_17
REMARK    8  A    between atoms: C_17  and  C_18
REMARK    9  A    between atoms: C_18  and  N_19
REMARK   10  A    between atoms: C_31  and  O_32
REMARK                            x       y       z     vdW  Elec       q    Type
REMARK                         _______ _______ _______ _____ _____    ______ ____
ROOT
ATOM      1  C   UNL     1      -7.394   5.865 131.962  0.00  0.00    +0.000 A 
ATOM      2  C   UNL     1      -6.803   4.733 132.524  0.00  0.00    +0.000 A 
ATOM      3  C   UNL     1      -5.649   5.184 133.251  0.00  0.00    +0.000 A 
ATOM      4  C   UNL     1      -4.713   5.129 132.216  0.00  0.00    +0.000 A 
ATOM      5  S   UNL     1      -5.819   6.575 131.236  0.00  0.00    +0.000 S 
ATOM      6  C   UNL     1      -3.312   5.078 132.565  0.00  0.00    +0.000 A 
ATOM      7  C   UNL     1      -2.925   5.735 133.744  0.00  0.00    +0.000 A 
ATOM      8  C   UNL     1      -3.882   6.411 134.474  0.00  0.00    +0.000 A 
ATOM      9  C   UNL     1      -5.254   6.167 134.219  0.00  0.00    +0.000 A 
ENDROOT
BRANCH   1  13
ATOM     10  C   UNL     1     -11.427   7.245 130.708  0.00  0.00    +0.000 A 
ATOM     11  C   UNL     1     -11.328   6.459 131.852  0.00  0.00    +0.000 A 
ATOM     12  C   UNL     1     -10.066   5.931 132.353  0.00  0.00    +0.000 A 
ATOM     13  C   UNL     1      -8.869   6.117 131.634  0.00  0.00    +0.000 A 
ATOM     14  C   UNL     1      -9.116   6.642 130.359  0.00  0.00    +0.000 A 
ATOM     15  C   UNL     1     -10.276   7.310 129.945  0.00  0.00    +0.000 A 
BRANCH  10  17
ATOM     16  C   UNL     1     -12.525   8.815 129.263  0.00  0.00    +0.000 C 
ATOM     17  O   UNL     1     -12.583   7.888 130.369  0.00  0.00    +0.000 OA
ENDBRANCH  10  17
ENDBRANCH   1  13
BRANCH   7  18
ATOM     18  O   UNL     1      -1.659   5.717 134.267  0.00  0.00    +0.000 OA
ATOM     19  H   UNL     1      -1.622   6.090 135.164  0.00  0.00    +0.000 HD
ENDBRANCH   7  18
BRANCH   2  20
ATOM     20  O   UNL     1      -7.029   3.414 132.186  0.00  0.00    +0.000 OA
BRANCH  20  21
ATOM     21  C   UNL     1      -7.250   2.913 130.909  0.00  0.00    +0.000 A 
ATOM     22  C   UNL     1      -8.585   2.614 130.595  0.00  0.00    +0.000 A 
ATOM     23  C   UNL     1      -8.972   2.312 129.279  0.00  0.00    +0.000 A 
ATOM     24  C   UNL     1      -8.041   2.360 128.238  0.00  0.00    +0.000 A 
ATOM     25  C   UNL     1      -6.704   2.644 128.550  0.00  0.00    +0.000 A 
ATOM     26  C   UNL     1      -6.295   2.869 129.886  0.00  0.00    +0.000 A 
BRANCH  24  27
ATOM     27  O   UNL     1      -8.589   2.296 126.975  0.00  0.00    +0.000 OA
BRANCH  27  28
ATOM     28  C   UNL     1      -8.312   1.100 126.242  0.00  0.00    +0.000 C 
BRANCH  28  29
ATOM     29  C   UNL     1      -9.512   0.653 125.380  0.00  0.00    +0.000 C 
BRANCH  29  30
ATOM     30  N   UNL     1      -9.552  -0.788 125.020  0.00  0.00    +0.000 NA
ATOM     31  C   UNL     1      -8.981  -1.087 123.698  0.00  0.00    +0.000 C 
ATOM     32  C   UNL     1      -9.030  -2.567 123.344  0.00  0.00    +0.000 C 
ATOM     33  C   UNL     1      -8.338  -3.392 124.416  0.00  0.00    +0.000 C 
ATOM     34  C   UNL     1      -8.914  -3.065 125.788  0.00  0.00    +0.000 C 
ATOM     35  C   UNL     1      -8.876  -1.565 126.068  0.00  0.00    +0.000 C 
ENDBRANCH  29  30
ENDBRANCH  28  29
ENDBRANCH  27  28
ENDBRANCH  24  27
ENDBRANCH  20  21
ENDBRANCH   2  20
TORSDOF 9
ENDMDL
MODEL 9
REMARK VINA RESULT:      -8.1      3.808      8.693
REMARK  Name = Arzoxifene
REMARK  10 active torsions:
REMARK  status: ('A' for Active; 'I' for Inactive)
REMARK    1  A    between atoms: C_1  and  O_2
REMARK    2  A    between atoms: O_2  and  C_3
REMARK    3  A    between atoms: C_6  and  C_9
REMARK    4  A    between atoms: C_10  and  O_11
REMARK    5  A    between atoms: O_11  and  C_12
REMARK    6  A    between atoms: C_15  and  O_16
REMARK    7  A    between atoms: O_16  and  C_17
REMARK    8  A    between atoms: C_17  and  C_18
REMARK    9  A    between atoms: C_18  and  N_19
REMARK   10  A    between atoms: C_31  and  O_32
REMARK                            x       y       z     vdW  Elec       q    Type
REMARK                         _______ _______ _______ _____ _____    ______ ____
ROOT
ATOM      1  C   UNL     1      -8.819   5.607 132.472  0.00  0.00    +0.000 A 
ATOM      2  C   UNL     1      -9.036   4.474 133.258  0.00  0.00    +0.000 A 
ATOM      3  C   UNL     1      -8.134   4.563 134.373  0.00  0.00    +0.000 A 
ATOM      4  C   UNL     1      -7.031   3.924 133.800  0.00  0.00    +0.000 A 
ATOM      5  S   UNL     1      -6.952   5.458 132.416  0.00  0.00    +0.000 S 
ATOM      6  C   UNL     1      -6.020   3.387 134.684  0.00  0.00    +0.000 A 
ATOM      7  C   UNL     1      -5.813   4.060 135.898  0.00  0.00    +0.000 A 
ATOM      8  C   UNL     1      -6.548   5.198 136.163  0.00  0.00    +0.000 A 
ATOM      9  C   UNL     1      -7.700   5.480 135.387  0.00  0.00    +0.000 A 
ENDROOT
BRANCH   1  13
ATOM     10  C   UNL     1     -12.166   7.230 130.044  0.00  0.00    +0.000 A 
ATOM     11  C   UNL     1     -10.866   7.453 129.602  0.00  0.00    +0.000 A 
ATOM     12  C   UNL     1      -9.687   6.988 130.319  0.00  0.00    +0.000 A 
ATOM     13  C   UNL     1      -9.807   6.357 131.573  0.00  0.00    +0.000 A 
ATOM     14  C   UNL     1     -11.112   6.458 132.072  0.00  0.00    +0.000 A 
ATOM     15  C   UNL     1     -12.267   6.732 131.329  0.00  0.00    +0.000 A 
BRANCH  10  17
ATOM     16  C   UNL     1     -13.030   7.637 127.842  0.00  0.00    +0.000 C 
ATOM     17  O   UNL     1     -13.254   7.501 129.262  0.00  0.00    +0.000 OA
ENDBRANCH  10  17
ENDBRANCH   1  13
BRANCH   7  18
ATOM     18  O   UNL     1      -4.959   3.643 136.885  0.00  0.00    +0.000 OA
ATOM     19  H   UNL     1      -4.165   3.209 136.530  0.00  0.00    +0.000 HD
ENDBRANCH   7  18
BRANCH   2  20
ATOM     20  O   UNL     1      -9.701   3.319 132.898  0.00  0.00    +0.000 OA
BRANCH  20  21
ATOM     21  C   UNL     1      -9.312   2.411 131.921  0.00  0.00    +0.000 A 
ATOM     22  C   UNL     1      -9.358   2.883 130.600  0.00  0.00    +0.000 A 
ATOM     23  C   UNL     1      -8.789   2.150 129.545  0.00  0.00    +0.000 A 
ATOM     24  C   UNL     1      -8.110   0.955 129.799  0.00  0.00    +0.000 A 
ATOM     25  C   UNL     1      -8.074   0.474 131.116  0.00  0.00    +0.000 A 
ATOM     26  C   UNL     1      -8.715   1.169 132.168  0.00  0.00    +0.000 A 
BRANCH  24  27
ATOM     27  O   UNL     1      -7.386   0.469 128.732  0.00  0.00    +0.000 OA
BRANCH  27  28
ATOM     28  C   UNL     1      -6.770  -0.805 128.933  0.00  0.00    +0.000 C 
BRANCH  28  29
ATOM     29  C   UNL     1      -7.655  -1.966 128.432  0.00  0.00    +0.000 C 
BRANCH  29  30
ATOM     30  N   UNL     1      -7.767  -2.108 126.957  0.00  0.00    +0.000 NA
ATOM     31  C   UNL     1      -6.473  -2.270 126.275  0.00  0.00    +0.000 C 
ATOM     32  C   UNL     1      -6.604  -2.415 124.766  0.00  0.00    +0.000 C 
ATOM     33  C   UNL     1      -7.529  -3.570 124.422  0.00  0.00    +0.000 C 
ATOM     34  C   UNL     1      -8.860  -3.414 125.146  0.00  0.00    +0.000 C 
ATOM     35  C   UNL     1      -8.662  -3.232 126.648  0.00  0.00    +0.000 C 
ENDBRANCH  29  30
ENDBRANCH  28  29
ENDBRANCH  27  28
ENDBRANCH  24  27
ENDBRANCH  20  21
ENDBRANCH   2  20
TORSDOF 9
ENDMDL
