MODEL 1
REMARK VINA RESULT:      -7.8      0.000      0.000
REMARK  Name = Asciminib
REMARK  7 active torsions:
REMARK  status: ('A' for Active; 'I' for Inactive)
REMARK    1  A    between atoms: O_1  and  C_2
REMARK    2  A    between atoms: N_5  and  C_7
REMARK    3  A    between atoms: C_8  and  C_27
REMARK    4  A    between atoms: C_10  and  C_13
REMARK    5  A    between atoms: N_15  and  C_16
REMARK    6  A    between atoms: C_19  and  O_20
REMARK    7  A    between atoms: O_20  and  C_21
REMARK                            x       y       z     vdW  Elec       q    Type
REMARK                         _______ _______ _______ _____ _____    ______ ____
ROOT
ATOM      1  C   UNL     1      -6.282  -0.918 131.062  0.00  0.00    +0.000 A 
ATOM      2  C   UNL     1      -7.397  -0.805 130.205  0.00  0.00    +0.000 A 
ATOM      3  C   UNL     1      -8.251   0.317 130.294  0.00  0.00    +0.000 A 
ATOM      4  C   UNL     1      -7.997   1.315 131.224  0.00  0.00    +0.000 A 
ATOM      5  C   UNL     1      -6.891   1.114 132.047  0.00  0.00    +0.000 A 
ATOM      6  N   UNL     1      -6.058   0.027 132.003  0.00  0.00    +0.000 NA
ENDROOT
BRANCH   2   7
ATOM      7  C   UNL     1      -7.730  -1.823 129.214  0.00  0.00    +0.000 A 
ATOM      8  C   UNL     1      -8.267  -3.082 129.378  0.00  0.00    +0.000 A 
ATOM      9  C   UNL     1      -8.447  -3.572 128.074  0.00  0.00    +0.000 A 
ATOM     10  N   UNL     1      -8.015  -2.720 127.145  0.00  0.00    +0.000 NA
ATOM     11  N   UNL     1      -7.644  -1.638 127.857  0.00  0.00    +0.000 N 
ATOM     12  H   UNL     1      -7.348  -0.806 127.356  0.00  0.00    +0.000 HD
ENDBRANCH   2   7
BRANCH   1  16
ATOM     13  C   UNL     1      -4.023  -3.765 131.579  0.00  0.00    +0.000 C 
ATOM     14  C   UNL     1      -3.739  -3.423 130.123  0.00  0.00    +0.000 C 
ATOM     15  C   UNL     1      -4.340  -2.017 129.955  0.00  0.00    +0.000 C 
ATOM     16  N   UNL     1      -5.388  -1.953 130.959  0.00  0.00    +0.000 N 
ATOM     17  C   UNL     1      -5.417  -3.153 131.796  0.00  0.00    +0.000 C 
BRANCH  13  18
ATOM     18  O   UNL     1      -3.063  -3.130 132.422  0.00  0.00    +0.000 OA
ATOM     19  H   UNL     1      -2.932  -2.219 132.112  0.00  0.00    +0.000 HD
ENDBRANCH  13  18
ENDBRANCH   1  16
BRANCH   4  20
ATOM     20  C   UNL     1      -8.813   2.558 131.386  0.00  0.00    +0.000 C 
ATOM     21  O   UNL     1      -9.265   2.796 132.510  0.00  0.00    +0.000 OA
ATOM     22  N   UNL     1      -9.071   3.351 130.269  0.00  0.00    +0.000 N 
ATOM     23  H   UNL     1      -8.850   3.014 129.342  0.00  0.00    +0.000 HD
BRANCH  22  24
ATOM     24  C   UNL     1      -9.801   4.566 130.323  0.00  0.00    +0.000 A 
ATOM     25  C   UNL     1     -11.196   4.556 130.245  0.00  0.00    +0.000 A 
ATOM     26  C   UNL     1     -11.917   5.766 130.250  0.00  0.00    +0.000 A 
ATOM     27  C   UNL     1     -11.254   6.995 130.359  0.00  0.00    +0.000 A 
ATOM     28  C   UNL     1      -9.862   6.996 130.397  0.00  0.00    +0.000 A 
ATOM     29  C   UNL     1      -9.147   5.795 130.392  0.00  0.00    +0.000 A 
BRANCH  27  30
ATOM     30  O   UNL     1     -12.053   8.104 130.435  0.00  0.00    +0.000 OA
BRANCH  30  31
ATOM     31  C   UNL     1     -12.444   8.720 129.206  0.00  0.00    +0.000 C 
ATOM     32  F   UNL     1     -11.367   8.889 128.398  0.00  0.00    +0.000 F 
ATOM     33  F   UNL     1     -13.333   7.921 128.563  0.00  0.00    +0.000 F 
ATOM     34 CL   UNL     1     -13.188  10.291 129.520  0.00  0.00    +0.000 Cl
ENDBRANCH  30  31
ENDBRANCH  27  30
ENDBRANCH  22  24
ENDBRANCH   4  20
TORSDOF 7
ENDMDL
MODEL 2
REMARK VINA RESULT:      -7.7      7.181      8.429
REMARK  Name = Asciminib
REMARK  7 active torsions:
REMARK  status: ('A' for Active; 'I' for Inactive)
REMARK    1  A    between atoms: O_1  and  C_2
REMARK    2  A    between atoms: N_5  and  C_7
REMARK    3  A    between atoms: C_8  and  C_27
REMARK    4  A    between atoms: C_10  and  C_13
REMARK    5  A    between atoms: N_15  and  C_16
REMARK    6  A    between atoms: C_19  and  O_20
REMARK    7  A    between atoms: O_20  and  C_21
REMARK                            x       y       z     vdW  Elec       q    Type
REMARK                         _______ _______ _______ _____ _____    ______ ____
ROOT
ATOM      1  C   UNL     1      -7.080   1.242 124.854  0.00  0.00    +0.000 A 
ATOM      2  C   UNL     1      -6.767   2.535 124.383  0.00  0.00    +0.000 A 
ATOM      3  C   UNL     1      -6.188   3.486 125.252  0.00  0.00    +0.000 A 
ATOM      4  C   UNL     1      -5.923   3.155 126.573  0.00  0.00    +0.000 A 
ATOM      5  C   UNL     1      -6.285   1.867 126.963  0.00  0.00    +0.000 A 
ATOM      6  N   UNL     1      -6.869   0.929 126.152  0.00  0.00    +0.000 NA
ENDROOT
BRANCH   2   7
ATOM      7  C   UNL     1      -7.031   2.954 123.011  0.00  0.00    +0.000 A 
ATOM      8  C   UNL     1      -6.201   2.972 121.910  0.00  0.00    +0.000 A 
ATOM      9  C   UNL     1      -7.016   3.392 120.847  0.00  0.00    +0.000 A 
ATOM     10  N   UNL     1      -8.260   3.671 121.238  0.00  0.00    +0.000 NA
ATOM     11  N   UNL     1      -8.264   3.337 122.543  0.00  0.00    +0.000 N 
ATOM     12  H   UNL     1      -9.140   3.386 123.054  0.00  0.00    +0.000 HD
ENDBRANCH   2   7
BRANCH   1  16
ATOM     13  C   UNL     1      -9.088  -1.238 123.041  0.00  0.00    +0.000 C 
ATOM     14  C   UNL     1      -7.705  -1.499 122.463  0.00  0.00    +0.000 C 
ATOM     15  C   UNL     1      -6.759  -0.787 123.445  0.00  0.00    +0.000 C 
ATOM     16  N   UNL     1      -7.574   0.267 124.026  0.00  0.00    +0.000 N 
ATOM     17  C   UNL     1      -8.960   0.202 123.565  0.00  0.00    +0.000 C 
BRANCH  13  18
ATOM     18  O   UNL     1      -9.343  -2.140 124.116  0.00  0.00    +0.000 OA
ATOM     19  H   UNL     1      -8.575  -2.138 124.711  0.00  0.00    +0.000 HD
ENDBRANCH  13  18
ENDBRANCH   1  16
BRANCH   4  20
ATOM     20  C   UNL     1      -5.286   4.069 127.571  0.00  0.00    +0.000 C 
ATOM     21  O   UNL     1      -5.963   5.017 127.983  0.00  0.00    +0.000 OA
ATOM     22  N   UNL     1      -3.961   3.850 127.944  0.00  0.00    +0.000 N 
ATOM     23  H   UNL     1      -3.391   3.189 127.435  0.00  0.00    +0.000 HD
BRANCH  22  24
ATOM     24  C   UNL     1      -3.279   4.637 128.908  0.00  0.00    +0.000 A 
ATOM     25  C   UNL     1      -3.377   4.332 130.268  0.00  0.00    +0.000 A 
ATOM     26  C   UNL     1      -2.740   5.143 131.226  0.00  0.00    +0.000 A 
ATOM     27  C   UNL     1      -1.977   6.250 130.835  0.00  0.00    +0.000 A 
ATOM     28  C   UNL     1      -1.917   6.569 129.481  0.00  0.00    +0.000 A 
ATOM     29  C   UNL     1      -2.550   5.763 128.529  0.00  0.00    +0.000 A 
BRANCH  27  30
ATOM     30  O   UNL     1      -1.335   6.923 131.840  0.00  0.00    +0.000 OA
BRANCH  30  31
ATOM     31  C   UNL     1      -2.064   7.950 132.515  0.00  0.00    +0.000 C 
ATOM     32  F   UNL     1      -1.272   9.031 132.728  0.00  0.00    +0.000 F 
ATOM     33  F   UNL     1      -3.113   8.339 131.748  0.00  0.00    +0.000 F 
ATOM     34 CL   UNL     1      -2.663   7.354 134.066  0.00  0.00    +0.000 Cl
ENDBRANCH  30  31
ENDBRANCH  27  30
ENDBRANCH  22  24
ENDBRANCH   4  20
TORSDOF 7
ENDMDL
MODEL 3
REMARK VINA RESULT:      -7.7      1.706      2.798
REMARK  Name = Asciminib
REMARK  7 active torsions:
REMARK  status: ('A' for Active; 'I' for Inactive)
REMARK    1  A    between atoms: O_1  and  C_2
REMARK    2  A    between atoms: N_5  and  C_7
REMARK    3  A    between atoms: C_8  and  C_27
REMARK    4  A    between atoms: C_10  and  C_13
REMARK    5  A    between atoms: N_15  and  C_16
REMARK    6  A    between atoms: C_19  and  O_20
REMARK    7  A    between atoms: O_20  and  C_21
REMARK                            x       y       z     vdW  Elec       q    Type
REMARK                         _______ _______ _______ _____ _____    ______ ____
ROOT
ATOM      1  C   UNL     1      -6.643  -1.090 129.959  0.00  0.00    +0.000 A 
ATOM      2  C   UNL     1      -7.132  -0.436 131.110  0.00  0.00    +0.000 A 
ATOM      3  C   UNL     1      -7.814   0.796 130.991  0.00  0.00    +0.000 A 
ATOM      4  C   UNL     1      -8.009   1.369 129.742  0.00  0.00    +0.000 A 
ATOM      5  C   UNL     1      -7.474   0.670 128.662  0.00  0.00    +0.000 A 
ATOM      6  N   UNL     1      -6.787  -0.513 128.745  0.00  0.00    +0.000 NA
ENDROOT
BRANCH   2   7
ATOM      7  C   UNL     1      -6.951  -0.974 132.453  0.00  0.00    +0.000 A 
ATOM      8  C   UNL     1      -5.951  -0.749 133.375  0.00  0.00    +0.000 A 
ATOM      9  C   UNL     1      -6.342  -1.465 134.518  0.00  0.00    +0.000 A 
ATOM     10  N   UNL     1      -7.477  -2.139 134.333  0.00  0.00    +0.000 NA
ATOM     11  N   UNL     1      -7.863  -1.775 133.095  0.00  0.00    +0.000 N 
ATOM     12  H   UNL     1      -8.761  -2.101 132.750  0.00  0.00    +0.000 HD
ENDBRANCH   2   7
BRANCH   1  16
ATOM     13  C   UNL     1      -5.719  -4.602 130.492  0.00  0.00    +0.000 C 
ATOM     14  C   UNL     1      -4.420  -4.036 129.939  0.00  0.00    +0.000 C 
ATOM     15  C   UNL     1      -4.602  -2.513 130.065  0.00  0.00    +0.000 C 
ATOM     16  N   UNL     1      -6.042  -2.321 130.022  0.00  0.00    +0.000 N 
ATOM     17  C   UNL     1      -6.762  -3.593 129.983  0.00  0.00    +0.000 C 
BRANCH  13  18
ATOM     18  O   UNL     1      -5.679  -4.602 131.919  0.00  0.00    +0.000 OA
ATOM     19  H   UNL     1      -5.557  -5.516 132.225  0.00  0.00    +0.000 HD
ENDBRANCH  13  18
ENDBRANCH   1  16
BRANCH   4  20
ATOM     20  C   UNL     1      -8.741   2.649 129.496  0.00  0.00    +0.000 C 
ATOM     21  O   UNL     1      -9.005   2.933 128.323  0.00  0.00    +0.000 OA
ATOM     22  N   UNL     1      -9.039   3.480 130.575  0.00  0.00    +0.000 N 
ATOM     23  H   UNL     1      -8.630   3.302 131.482  0.00  0.00    +0.000 HD
BRANCH  22  24
ATOM     24  C   UNL     1      -9.760   4.695 130.452  0.00  0.00    +0.000 A 
ATOM     25  C   UNL     1     -11.157   4.689 130.428  0.00  0.00    +0.000 A 
ATOM     26  C   UNL     1     -11.871   5.890 130.256  0.00  0.00    +0.000 A 
ATOM     27  C   UNL     1     -11.198   7.112 130.131  0.00  0.00    +0.000 A 
ATOM     28  C   UNL     1      -9.806   7.104 130.118  0.00  0.00    +0.000 A 
ATOM     29  C   UNL     1      -9.097   5.910 130.289  0.00  0.00    +0.000 A 
BRANCH  27  30
ATOM     30  O   UNL     1     -11.987   8.228 130.049  0.00  0.00    +0.000 OA
BRANCH  30  31
ATOM     31  C   UNL     1     -12.464   8.603 128.755  0.00  0.00    +0.000 C 
ATOM     32  F   UNL     1     -11.424   8.806 127.908  0.00  0.00    +0.000 F 
ATOM     33  F   UNL     1     -13.232   7.605 128.250  0.00  0.00    +0.000 F 
ATOM     34 CL   UNL     1     -13.423  10.082 128.864  0.00  0.00    +0.000 Cl
ENDBRANCH  30  31
ENDBRANCH  27  30
ENDBRANCH  22  24
ENDBRANCH   4  20
TORSDOF 7
ENDMDL
MODEL 4
REMARK VINA RESULT:      -7.6      7.088      8.548
REMARK  Name = Asciminib
REMARK  7 active torsions:
REMARK  status: ('A' for Active; 'I' for Inactive)
REMARK    1  A    between atoms: O_1  and  C_2
REMARK    2  A    between atoms: N_5  and  C_7
REMARK    3  A    between atoms: C_8  and  C_27
REMARK    4  A    between atoms: C_10  and  C_13
REMARK    5  A    between atoms: N_15  and  C_16
REMARK    6  A    between atoms: C_19  and  O_20
REMARK    7  A    between atoms: O_20  and  C_21
REMARK                            x       y       z     vdW  Elec       q    Type
REMARK                         _______ _______ _______ _____ _____    ______ ____
ROOT
ATOM      1  C   UNL     1      -3.222  -2.879 133.458  0.00  0.00    +0.000 A 
ATOM      2  C   UNL     1      -4.384  -3.675 133.371  0.00  0.00    +0.000 A 
ATOM      3  C   UNL     1      -5.132  -3.710 132.173  0.00  0.00    +0.000 A 
ATOM      4  C   UNL     1      -4.728  -2.963 131.075  0.00  0.00    +0.000 A 
ATOM      5  C   UNL     1      -3.585  -2.186 131.254  0.00  0.00    +0.000 A 
ATOM      6  N   UNL     1      -2.851  -2.112 132.409  0.00  0.00    +0.000 NA
ENDROOT
BRANCH   2   7
ATOM      7  C   UNL     1      -4.873  -4.474 134.489  0.00  0.00    +0.000 A 
ATOM      8  C   UNL     1      -4.662  -5.802 134.794  0.00  0.00    +0.000 A 
ATOM      9  C   UNL     1      -5.306  -5.999 136.026  0.00  0.00    +0.000 A 
ATOM     10  N   UNL     1      -5.926  -4.900 136.458  0.00  0.00    +0.000 NA
ATOM     11  N   UNL     1      -5.595  -3.969 135.542  0.00  0.00    +0.000 N 
ATOM     12  H   UNL     1      -5.888  -3.010 135.698  0.00  0.00    +0.000 HD
ENDBRANCH   2   7
BRANCH   1  16
ATOM     13  C   UNL     1      -1.223  -2.068 136.428  0.00  0.00    +0.000 C 
ATOM     14  C   UNL     1      -0.933  -3.554 136.274  0.00  0.00    +0.000 C 
ATOM     15  C   UNL     1      -1.406  -3.872 134.845  0.00  0.00    +0.000 C 
ATOM     16  N   UNL     1      -2.427  -2.874 134.576  0.00  0.00    +0.000 N 
ATOM     17  C   UNL     1      -2.552  -1.911 135.670  0.00  0.00    +0.000 C 
BRANCH  13  18
ATOM     18  O   UNL     1      -0.195  -1.305 135.797  0.00  0.00    +0.000 OA
ATOM     19  H   UNL     1      -0.572  -0.460 135.502  0.00  0.00    +0.000 HD
ENDBRANCH  13  18
ENDBRANCH   1  16
BRANCH   4  20
ATOM     20  C   UNL     1      -5.424  -2.947 129.751  0.00  0.00    +0.000 C 
ATOM     21  O   UNL     1      -4.744  -3.204 128.752  0.00  0.00    +0.000 OA
ATOM     22  N   UNL     1      -6.771  -2.594 129.695  0.00  0.00    +0.000 N 
ATOM     23  H   UNL     1      -7.229  -2.202 130.507  0.00  0.00    +0.000 HD
BRANCH  22  24
ATOM     24  C   UNL     1      -7.529  -2.585 128.496  0.00  0.00    +0.000 A 
ATOM     25  C   UNL     1      -7.464  -1.491 127.628  0.00  0.00    +0.000 A 
ATOM     26  C   UNL     1      -8.254  -1.462 126.463  0.00  0.00    +0.000 A 
ATOM     27  C   UNL     1      -9.096  -2.534 126.140  0.00  0.00    +0.000 A 
ATOM     28  C   UNL     1      -9.182  -3.601 127.030  0.00  0.00    +0.000 A 
ATOM     29  C   UNL     1      -8.397  -3.630 128.188  0.00  0.00    +0.000 A 
BRANCH  27  30
ATOM     30  O   UNL     1      -9.759  -2.439 124.945  0.00  0.00    +0.000 OA
BRANCH  30  31
ATOM     31  C   UNL     1      -9.202  -3.132 123.827  0.00  0.00    +0.000 C 
ATOM     32  F   UNL     1      -8.234  -3.990 124.235  0.00  0.00    +0.000 F 
ATOM     33  F   UNL     1     -10.173  -3.853 123.212  0.00  0.00    +0.000 F 
ATOM     34 CL   UNL     1      -8.511  -1.981 122.679  0.00  0.00    +0.000 Cl
ENDBRANCH  30  31
ENDBRANCH  27  30
ENDBRANCH  22  24
ENDBRANCH   4  20
TORSDOF 7
ENDMDL
MODEL 5
REMARK VINA RESULT:      -7.5      7.599      9.767
REMARK  Name = Asciminib
REMARK  7 active torsions:
REMARK  status: ('A' for Active; 'I' for Inactive)
REMARK    1  A    between atoms: O_1  and  C_2
REMARK    2  A    between atoms: N_5  and  C_7
REMARK    3  A    between atoms: C_8  and  C_27
REMARK    4  A    between atoms: C_10  and  C_13
REMARK    5  A    between atoms: N_15  and  C_16
REMARK    6  A    between atoms: C_19  and  O_20
REMARK    7  A    between atoms: O_20  and  C_21
REMARK                            x       y       z     vdW  Elec       q    Type
REMARK                         _______ _______ _______ _____ _____    ______ ____
ROOT
ATOM      1  C   UNL     1      -6.594   4.279 131.805  0.00  0.00    +0.000 A 
ATOM      2  C   UNL     1      -6.985   5.634 131.752  0.00  0.00    +0.000 A 
ATOM      3  C   UNL     1      -6.008   6.655 131.739  0.00  0.00    +0.000 A 
ATOM      4  C   UNL     1      -4.659   6.331 131.779  0.00  0.00    +0.000 A 
ATOM      5  C   UNL     1      -4.361   4.971 131.855  0.00  0.00    +0.000 A 
ATOM      6  N   UNL     1      -5.283   3.959 131.892  0.00  0.00    +0.000 NA
ENDROOT
BRANCH   2   7
ATOM      7  C   UNL     1      -8.384   6.046 131.722  0.00  0.00    +0.000 A 
ATOM      8  C   UNL     1      -9.163   6.476 130.670  0.00  0.00    +0.000 A 
ATOM      9  C   UNL     1     -10.445   6.651 131.215  0.00  0.00    +0.000 A 
ATOM     10  N   UNL     1     -10.480   6.403 132.524  0.00  0.00    +0.000 NA
ATOM     11  N   UNL     1      -9.233   5.975 132.799  0.00  0.00    +0.000 N 
ATOM     12  H   UNL     1      -9.029   5.643 133.736  0.00  0.00    +0.000 HD
ENDBRANCH   2   7
BRANCH   1  16
ATOM     13  C   UNL     1      -9.344   1.973 131.034  0.00  0.00    +0.000 C 
ATOM     14  C   UNL     1      -8.767   1.335 132.289  0.00  0.00    +0.000 C 
ATOM     15  C   UNL     1      -7.882   2.442 132.888  0.00  0.00    +0.000 C 
ATOM     16  N   UNL     1      -7.506   3.257 131.744  0.00  0.00    +0.000 N 
ATOM     17  C   UNL     1      -8.162   2.809 130.516  0.00  0.00    +0.000 C 
BRANCH  13  18
ATOM     18  O   UNL     1     -10.440   2.818 131.379  0.00  0.00    +0.000 OA
ATOM     19  H   UNL     1     -10.210   3.734 131.152  0.00  0.00    +0.000 HD
ENDBRANCH  13  18
ENDBRANCH   1  16
BRANCH   4  20
ATOM     20  C   UNL     1      -3.541   7.324 131.739  0.00  0.00    +0.000 C 
ATOM     21  O   UNL     1      -3.085   7.618 130.630  0.00  0.00    +0.000 OA
ATOM     22  N   UNL     1      -3.034   7.823 132.938  0.00  0.00    +0.000 N 
ATOM     23  H   UNL     1      -3.303   7.406 133.818  0.00  0.00    +0.000 HD
BRANCH  22  24
ATOM     24  C   UNL     1      -2.002   8.794 133.006  0.00  0.00    +0.000 A 
ATOM     25  C   UNL     1      -0.684   8.408 133.268  0.00  0.00    +0.000 A 
ATOM     26  C   UNL     1       0.330   9.378 133.385  0.00  0.00    +0.000 A 
ATOM     27  C   UNL     1       0.045  10.738 133.216  0.00  0.00    +0.000 A 
ATOM     28  C   UNL     1      -1.277  11.116 132.994  0.00  0.00    +0.000 A 
ATOM     29  C   UNL     1      -2.285  10.153 132.878  0.00  0.00    +0.000 A 
BRANCH  27  30
ATOM     30  O   UNL     1       1.116  11.589 133.270  0.00  0.00    +0.000 OA
BRANCH  30  31
ATOM     31  C   UNL     1       0.955  12.888 132.696  0.00  0.00    +0.000 C 
ATOM     32  F   UNL     1      -0.150  13.493 133.198  0.00  0.00    +0.000 F 
ATOM     33  F   UNL     1       2.032  13.654 133.002  0.00  0.00    +0.000 F 
ATOM     34 CL   UNL     1       0.804  12.764 130.941  0.00  0.00    +0.000 Cl
ENDBRANCH  30  31
ENDBRANCH  27  30
ENDBRANCH  22  24
ENDBRANCH   4  20
TORSDOF 7
ENDMDL
MODEL 6
REMARK VINA RESULT:      -7.5      7.667     10.863
REMARK  Name = Asciminib
REMARK  7 active torsions:
REMARK  status: ('A' for Active; 'I' for Inactive)
REMARK    1  A    between atoms: O_1  and  C_2
REMARK    2  A    between atoms: N_5  and  C_7
REMARK    3  A    between atoms: C_8  and  C_27
REMARK    4  A    between atoms: C_10  and  C_13
REMARK    5  A    between atoms: N_15  and  C_16
REMARK    6  A    between atoms: C_19  and  O_20
REMARK    7  A    between atoms: O_20  and  C_21
REMARK                            x       y       z     vdW  Elec       q    Type
REMARK                         _______ _______ _______ _____ _____    ______ ____
ROOT
ATOM      1  C   UNL     1      -6.890   1.480 123.237  0.00  0.00    +0.000 A 
ATOM      2  C   UNL     1      -6.643   1.862 124.573  0.00  0.00    +0.000 A 
ATOM      3  C   UNL     1      -6.539   0.880 125.584  0.00  0.00    +0.000 A 
ATOM      4  C   UNL     1      -6.677  -0.464 125.270  0.00  0.00    +0.000 A 
ATOM      5  C   UNL     1      -6.943  -0.752 123.932  0.00  0.00    +0.000 A 
ATOM      6  N   UNL     1      -7.074   0.176 122.933  0.00  0.00    +0.000 NA
ENDROOT
BRANCH   2   7
ATOM      7  C   UNL     1      -6.501   3.256 124.977  0.00  0.00    +0.000 A 
ATOM      8  C   UNL     1      -5.407   4.092 124.919  0.00  0.00    +0.000 A 
ATOM      9  C   UNL     1      -5.877   5.338 125.363  0.00  0.00    +0.000 A 
ATOM     10  N   UNL     1      -7.159   5.299 125.727  0.00  0.00    +0.000 NA
ATOM     11  N   UNL     1      -7.535   4.041 125.423  0.00  0.00    +0.000 N 
ATOM     12  H   UNL     1      -8.511   3.786 125.537  0.00  0.00    +0.000 HD
ENDBRANCH   2   7
BRANCH   1  16
ATOM     13  C   UNL     1      -6.186   3.957 120.622  0.00  0.00    +0.000 C 
ATOM     14  C   UNL     1      -7.708   3.926 120.597  0.00  0.00    +0.000 C 
ATOM     15  C   UNL     1      -8.080   3.223 121.914  0.00  0.00    +0.000 C 
ATOM     16  N   UNL     1      -6.925   2.394 122.216  0.00  0.00    +0.000 N 
ATOM     17  C   UNL     1      -5.839   2.601 121.258  0.00  0.00    +0.000 C 
BRANCH  13  18
ATOM     18  O   UNL     1      -5.737   5.028 121.451  0.00  0.00    +0.000 OA
ATOM     19  H   UNL     1      -6.381   5.753 121.397  0.00  0.00    +0.000 HD
ENDBRANCH  13  18
ENDBRANCH   1  16
BRANCH   4  20
ATOM     20  C   UNL     1      -6.555  -1.587 126.250  0.00  0.00    +0.000 C 
ATOM     21  O   UNL     1      -6.928  -2.705 125.879  0.00  0.00    +0.000 OA
ATOM     22  N   UNL     1      -6.089  -1.319 127.536  0.00  0.00    +0.000 N 
ATOM     23  H   UNL     1      -5.987  -0.364 127.852  0.00  0.00    +0.000 HD
BRANCH  22  24
ATOM     24  C   UNL     1      -5.903  -2.318 128.525  0.00  0.00    +0.000 A 
ATOM     25  C   UNL     1      -6.979  -2.748 129.307  0.00  0.00    +0.000 A 
ATOM     26  C   UNL     1      -6.783  -3.704 130.322  0.00  0.00    +0.000 A 
ATOM     27  C   UNL     1      -5.517  -4.259 130.549  0.00  0.00    +0.000 A 
ATOM     28  C   UNL     1      -4.445  -3.797 129.791  0.00  0.00    +0.000 A 
ATOM     29  C   UNL     1      -4.640  -2.847 128.783  0.00  0.00    +0.000 A 
BRANCH  27  30
ATOM     30  O   UNL     1      -5.452  -5.238 131.504  0.00  0.00    +0.000 OA
BRANCH  30  31
ATOM     31  C   UNL     1      -4.989  -4.861 132.802  0.00  0.00    +0.000 C 
ATOM     32  F   UNL     1      -3.702  -5.253 132.977  0.00  0.00    +0.000 F 
ATOM     33  F   UNL     1      -5.039  -3.510 132.926  0.00  0.00    +0.000 F 
ATOM     34 CL   UNL     1      -5.997  -5.601 134.049  0.00  0.00    +0.000 Cl
ENDBRANCH  30  31
ENDBRANCH  27  30
ENDBRANCH  22  24
ENDBRANCH   4  20
TORSDOF 7
ENDMDL
MODEL 7
REMARK VINA RESULT:      -7.4      1.707      2.141
REMARK  Name = Asciminib
REMARK  7 active torsions:
REMARK  status: ('A' for Active; 'I' for Inactive)
REMARK    1  A    between atoms: O_1  and  C_2
REMARK    2  A    between atoms: N_5  and  C_7
REMARK    3  A    between atoms: C_8  and  C_27
REMARK    4  A    between atoms: C_10  and  C_13
REMARK    5  A    between atoms: N_15  and  C_16
REMARK    6  A    between atoms: C_19  and  O_20
REMARK    7  A    between atoms: O_20  and  C_21
REMARK                            x       y       z     vdW  Elec       q    Type
REMARK                         _______ _______ _______ _____ _____    ______ ____
ROOT
ATOM      1  C   UNL     1      -6.105  -0.264 132.947  0.00  0.00    +0.000 A 
ATOM      2  C   UNL     1      -6.898  -0.586 131.824  0.00  0.00    +0.000 A 
ATOM      3  C   UNL     1      -7.982   0.244 131.459  0.00  0.00    +0.000 A 
ATOM      4  C   UNL     1      -8.274   1.379 132.201  0.00  0.00    +0.000 A 
ATOM      5  C   UNL     1      -7.458   1.610 133.308  0.00  0.00    +0.000 A 
ATOM      6  N   UNL     1      -6.415   0.813 133.702  0.00  0.00    +0.000 NA
ENDROOT
BRANCH   2   7
ATOM      7  C   UNL     1      -6.656  -1.770 131.008  0.00  0.00    +0.000 A 
ATOM      8  C   UNL     1      -7.427  -2.899 130.826  0.00  0.00    +0.000 A 
ATOM      9  C   UNL     1      -6.736  -3.661 129.870  0.00  0.00    +0.000 A 
ATOM     10  N   UNL     1      -5.587  -3.095 129.501  0.00  0.00    +0.000 NA
ATOM     11  N   UNL     1      -5.590  -1.917 130.155  0.00  0.00    +0.000 N 
ATOM     12  H   UNL     1      -4.841  -1.257 129.970  0.00  0.00    +0.000 HD
ENDBRANCH   2   7
BRANCH   1  16
ATOM     13  C   UNL     1      -2.868  -1.980 133.159  0.00  0.00    +0.000 C 
ATOM     14  C   UNL     1      -3.567  -2.515 134.399  0.00  0.00    +0.000 C 
ATOM     15  C   UNL     1      -5.046  -2.160 134.167  0.00  0.00    +0.000 C 
ATOM     16  N   UNL     1      -5.001  -1.001 133.292  0.00  0.00    +0.000 N 
ATOM     17  C   UNL     1      -3.634  -0.675 132.885  0.00  0.00    +0.000 C 
BRANCH  13  18
ATOM     18  O   UNL     1      -3.034  -2.894 132.076  0.00  0.00    +0.000 OA
ATOM     19  H   UNL     1      -2.157  -3.196 131.788  0.00  0.00    +0.000 HD
ENDBRANCH  13  18
ENDBRANCH   1  16
BRANCH   4  20
ATOM     20  C   UNL     1      -9.374   2.343 131.890  0.00  0.00    +0.000 C 
ATOM     21  O   UNL     1     -10.522   1.891 131.833  0.00  0.00    +0.000 OA
ATOM     22  N   UNL     1      -9.056   3.674 131.626  0.00  0.00    +0.000 N 
ATOM     23  H   UNL     1      -8.094   3.951 131.490  0.00  0.00    +0.000 HD
BRANCH  22  24
ATOM     24  C   UNL     1     -10.028   4.672 131.357  0.00  0.00    +0.000 A 
ATOM     25  C   UNL     1     -10.286   5.678 132.292  0.00  0.00    +0.000 A 
ATOM     26  C   UNL     1     -11.285   6.638 132.045  0.00  0.00    +0.000 A 
ATOM     27  C   UNL     1     -12.018   6.620 130.851  0.00  0.00    +0.000 A 
ATOM     28  C   UNL     1     -11.780   5.592 129.943  0.00  0.00    +0.000 A 
ATOM     29  C   UNL     1     -10.788   4.637 130.189  0.00  0.00    +0.000 A 
BRANCH  27  30
ATOM     30  O   UNL     1     -12.909   7.645 130.676  0.00  0.00    +0.000 OA
BRANCH  30  31
ATOM     31  C   UNL     1     -12.642   8.577 129.627  0.00  0.00    +0.000 C 
ATOM     32  F   UNL     1     -11.312   8.624 129.363  0.00  0.00    +0.000 F 
ATOM     33  F   UNL     1     -13.283   8.183 128.498  0.00  0.00    +0.000 F 
ATOM     34 CL   UNL     1     -13.201  10.189 130.086  0.00  0.00    +0.000 Cl
ENDBRANCH  30  31
ENDBRANCH  27  30
ENDBRANCH  22  24
ENDBRANCH   4  20
TORSDOF 7
ENDMDL
MODEL 8
REMARK VINA RESULT:      -7.4      7.315      9.586
REMARK  Name = Asciminib
REMARK  7 active torsions:
REMARK  status: ('A' for Active; 'I' for Inactive)
REMARK    1  A    between atoms: O_1  and  C_2
REMARK    2  A    between atoms: N_5  and  C_7
REMARK    3  A    between atoms: C_8  and  C_27
REMARK    4  A    between atoms: C_10  and  C_13
REMARK    5  A    between atoms: N_15  and  C_16
REMARK    6  A    between atoms: C_19  and  O_20
REMARK    7  A    between atoms: O_20  and  C_21
REMARK                            x       y       z     vdW  Elec       q    Type
REMARK                         _______ _______ _______ _____ _____    ______ ____
ROOT
ATOM      1  C   UNL     1      -2.741   5.432 130.368  0.00  0.00    +0.000 A 
ATOM      2  C   UNL     1      -3.373   4.225 130.733  0.00  0.00    +0.000 A 
ATOM      3  C   UNL     1      -3.808   3.321 129.738  0.00  0.00    +0.000 A 
ATOM      4  C   UNL     1      -3.615   3.615 128.395  0.00  0.00    +0.000 A 
ATOM      5  C   UNL     1      -3.006   4.838 128.121  0.00  0.00    +0.000 A 
ATOM      6  N   UNL     1      -2.594   5.746 129.061  0.00  0.00    +0.000 NA
ENDROOT
BRANCH   2   7
ATOM      7  C   UNL     1      -3.620   3.858 132.124  0.00  0.00    +0.000 A 
ATOM      8  C   UNL     1      -2.824   3.176 133.019  0.00  0.00    +0.000 A 
ATOM      9  C   UNL     1      -3.540   3.192 134.227  0.00  0.00    +0.000 A 
ATOM     10  N   UNL     1      -4.724   3.792 134.109  0.00  0.00    +0.000 NA
ATOM     11  N   UNL     1      -4.724   4.246 132.841  0.00  0.00    +0.000 N 
ATOM     12  H   UNL     1      -5.503   4.819 132.530  0.00  0.00    +0.000 HD
ENDBRANCH   2   7
BRANCH   1  16
ATOM     13  C   UNL     1      -0.914   7.139 133.055  0.00  0.00    +0.000 C 
ATOM     14  C   UNL     1      -1.978   8.174 132.718  0.00  0.00    +0.000 C 
ATOM     15  C   UNL     1      -3.009   7.382 131.894  0.00  0.00    +0.000 C 
ATOM     16  N   UNL     1      -2.239   6.301 131.302  0.00  0.00    +0.000 N 
ATOM     17  C   UNL     1      -0.852   6.298 131.769  0.00  0.00    +0.000 C 
BRANCH  13  18
ATOM     18  O   UNL     1      -1.346   6.339 134.155  0.00  0.00    +0.000 OA
ATOM     19  H   UNL     1      -0.942   5.459 134.076  0.00  0.00    +0.000 HD
ENDBRANCH  13  18
ENDBRANCH   1  16
BRANCH   4  20
ATOM     20  C   UNL     1      -4.006   2.722 127.261  0.00  0.00    +0.000 C 
ATOM     21  O   UNL     1      -3.237   2.664 126.296  0.00  0.00    +0.000 OA
ATOM     22  N   UNL     1      -5.226   2.049 127.316  0.00  0.00    +0.000 N 
ATOM     23  H   UNL     1      -5.904   2.282 128.027  0.00  0.00    +0.000 HD
BRANCH  22  24
ATOM     24  C   UNL     1      -5.670   1.153 126.310  0.00  0.00    +0.000 A 
ATOM     25  C   UNL     1      -5.292  -0.192 126.344  0.00  0.00    +0.000 A 
ATOM     26  C   UNL     1      -5.693  -1.069 125.319  0.00  0.00    +0.000 A 
ATOM     27  C   UNL     1      -6.497  -0.620 124.264  0.00  0.00    +0.000 A 
ATOM     28  C   UNL     1      -6.837   0.730 124.219  0.00  0.00    +0.000 A 
ATOM     29  C   UNL     1      -6.438   1.602 125.237  0.00  0.00    +0.000 A 
BRANCH  27  30
ATOM     30  O   UNL     1      -6.896  -1.571 123.364  0.00  0.00    +0.000 OA
BRANCH  30  31
ATOM     31  C   UNL     1      -8.048  -2.350 123.697  0.00  0.00    +0.000 C 
ATOM     32  F   UNL     1      -8.842  -1.674 124.564  0.00  0.00    +0.000 F 
ATOM     33  F   UNL     1      -8.766  -2.598 122.572  0.00  0.00    +0.000 F 
ATOM     34 CL   UNL     1      -7.558  -3.881 124.428  0.00  0.00    +0.000 Cl
ENDBRANCH  30  31
ENDBRANCH  27  30
ENDBRANCH  22  24
ENDBRANCH   4  20
TORSDOF 7
ENDMDL
MODEL 9
REMARK VINA RESULT:      -7.1      6.516      9.029
REMARK  Name = Asciminib
REMARK  7 active torsions:
REMARK  status: ('A' for Active; 'I' for Inactive)
REMARK    1  A    between atoms: O_1  and  C_2
REMARK    2  A    between atoms: N_5  and  C_7
REMARK    3  A    between atoms: C_8  and  C_27
REMARK    4  A    between atoms: C_10  and  C_13
REMARK    5  A    between atoms: N_15  and  C_16
REMARK    6  A    between atoms: C_19  and  O_20
REMARK    7  A    between atoms: O_20  and  C_21
REMARK                            x       y       z     vdW  Elec       q    Type
REMARK                         _______ _______ _______ _____ _____    ______ ____
ROOT
ATOM      1  C   UNL     1      -4.251   4.106 131.537  0.00  0.00    +0.000 A 
ATOM      2  C   UNL     1      -4.451   4.305 130.154  0.00  0.00    +0.000 A 
ATOM      3  C   UNL     1      -5.273   3.421 129.421  0.00  0.00    +0.000 A 
ATOM      4  C   UNL     1      -5.888   2.351 130.055  0.00  0.00    +0.000 A 
ATOM      5  C   UNL     1      -5.618   2.212 131.416  0.00  0.00    +0.000 A 
ATOM      6  N   UNL     1      -4.809   3.038 132.150  0.00  0.00    +0.000 NA
ENDROOT
BRANCH   2   7
ATOM      7  C   UNL     1      -3.824   5.400 129.422  0.00  0.00    +0.000 A 
ATOM      8  C   UNL     1      -4.185   6.726 129.323  0.00  0.00    +0.000 A 
ATOM      9  C   UNL     1      -3.171   7.323 128.557  0.00  0.00    +0.000 A 
ATOM     10  N   UNL     1      -2.254   6.444 128.151  0.00  0.00    +0.000 NA
ATOM     11  N   UNL     1      -2.636   5.295 128.742  0.00  0.00    +0.000 N 
ATOM     12  H   UNL     1      -2.039   4.479 128.647  0.00  0.00    +0.000 HD
ENDBRANCH   2   7
BRANCH   1  16
ATOM     13  C   UNL     1      -2.868   6.977 133.357  0.00  0.00    +0.000 C 
ATOM     14  C   UNL     1      -1.779   5.937 133.577  0.00  0.00    +0.000 C 
ATOM     15  C   UNL     1      -2.092   4.855 132.529  0.00  0.00    +0.000 C 
ATOM     16  N   UNL     1      -3.521   4.982 132.299  0.00  0.00    +0.000 N 
ATOM     17  C   UNL     1      -4.095   6.109 133.034  0.00  0.00    +0.000 C 
BRANCH  13  18
ATOM     18  O   UNL     1      -2.532   7.801 132.241  0.00  0.00    +0.000 OA
ATOM     19  H   UNL     1      -3.354   8.095 131.814  0.00  0.00    +0.000 HD
ENDBRANCH  13  18
ENDBRANCH   1  16
BRANCH   4  20
ATOM     20  C   UNL     1      -6.801   1.372 129.387  0.00  0.00    +0.000 C 
ATOM     21  O   UNL     1      -7.688   0.862 130.079  0.00  0.00    +0.000 OA
ATOM     22  N   UNL     1      -6.580   1.041 128.051  0.00  0.00    +0.000 N 
ATOM     23  H   UNL     1      -5.729   1.330 127.588  0.00  0.00    +0.000 HD
BRANCH  22  24
ATOM     24  C   UNL     1      -7.409   0.153 127.318  0.00  0.00    +0.000 A 
ATOM     25  C   UNL     1      -7.209  -1.227 127.395  0.00  0.00    +0.000 A 
ATOM     26  C   UNL     1      -8.000  -2.104 126.629  0.00  0.00    +0.000 A 
ATOM     27  C   UNL     1      -9.015  -1.613 125.798  0.00  0.00    +0.000 A 
ATOM     28  C   UNL     1      -9.181  -0.234 125.698  0.00  0.00    +0.000 A 
ATOM     29  C   UNL     1      -8.395   0.637 126.459  0.00  0.00    +0.000 A 
BRANCH  27  30
ATOM     30  O   UNL     1      -9.777  -2.554 125.159  0.00  0.00    +0.000 OA
BRANCH  30  31
ATOM     31  C   UNL     1      -9.174  -3.266 124.077  0.00  0.00    +0.000 C 
ATOM     32  F   UNL     1      -8.443  -4.309 124.546  0.00  0.00    +0.000 F 
ATOM     33  F   UNL     1     -10.142  -3.760 123.265  0.00  0.00    +0.000 F 
ATOM     34 CL   UNL     1      -8.123  -2.191 123.149  0.00  0.00    +0.000 Cl
ENDBRANCH  30  31
ENDBRANCH  27  30
ENDBRANCH  22  24
ENDBRANCH   4  20
TORSDOF 7
ENDMDL
