MODEL 1
REMARK VINA RESULT:      -5.4      0.000      0.000
REMARK  Name = Ascorbic acid
REMARK  6 active torsions:
REMARK  status: ('A' for Active; 'I' for Inactive)
REMARK    1  A    between atoms: C_2  and  C_10
REMARK    2  A    between atoms: C_6  and  O_7
REMARK    3  A    between atoms: C_8  and  O_9
REMARK    4  A    between atoms: C_10  and  O_11
REMARK    5  A    between atoms: C_10  and  C_12
REMARK    6  A    between atoms: C_12  and  O_13
REMARK                            x       y       z     vdW  Elec       q    Type
REMARK                         _______ _______ _______ _____ _____    ______ ____
ROOT
ATOM      1  C   UNL     1     -10.440   6.758 128.627  0.00  0.00    +0.000 C 
ATOM      2  O   UNL     1      -9.356   6.849 129.567  0.00  0.00    +0.000 OA
ATOM      3  C   UNL     1      -9.835   6.682 130.829  0.00  0.00    +0.000 C 
ATOM      4  O   UNL     1      -9.200   6.761 131.859  0.00  0.00    +0.000 OA
ATOM      5  C   UNL     1     -11.274   6.374 130.754  0.00  0.00    +0.000 C 
ATOM      6  C   UNL     1     -11.607   6.407 129.469  0.00  0.00    +0.000 C 
ENDROOT
BRANCH   5   7
ATOM      7  O   UNL     1     -12.054   6.102 131.836  0.00  0.00    +0.000 OA
ATOM      8  H   UNL     1     -11.687   5.275 132.218  0.00  0.00    +0.000 HD
ENDBRANCH   5   7
BRANCH   6   9
ATOM      9  O   UNL     1     -12.818   6.168 128.889  0.00  0.00    +0.000 OA
ATOM     10  H   UNL     1     -13.253   5.425 129.348  0.00  0.00    +0.000 HD
ENDBRANCH   6   9
BRANCH   1  11
ATOM     11  C   UNL     1     -10.624   8.096 127.885  0.00  0.00    +0.000 C 
BRANCH  11  12
ATOM     12  O   UNL     1     -11.722   8.827 128.449  0.00  0.00    +0.000 OA
ATOM     13  H   UNL     1     -11.619   8.787 129.419  0.00  0.00    +0.000 HD
ENDBRANCH  11  12
BRANCH  11  14
ATOM     14  C   UNL     1     -10.904   7.865 126.398  0.00  0.00    +0.000 C 
BRANCH  14  15
ATOM     15  O   UNL     1     -11.625   6.644 126.225  0.00  0.00    +0.000 OA
ATOM     16  H   UNL     1     -12.543   6.870 125.993  0.00  0.00    +0.000 HD
ENDBRANCH  14  15
ENDBRANCH  11  14
ENDBRANCH   1  11
TORSDOF 6
ENDMDL
MODEL 2
REMARK VINA RESULT:      -5.2      1.693      2.103
REMARK  Name = Ascorbic acid
REMARK  6 active torsions:
REMARK  status: ('A' for Active; 'I' for Inactive)
REMARK    1  A    between atoms: C_2  and  C_10
REMARK    2  A    between atoms: C_6  and  O_7
REMARK    3  A    between atoms: C_8  and  O_9
REMARK    4  A    between atoms: C_10  and  O_11
REMARK    5  A    between atoms: C_10  and  C_12
REMARK    6  A    between atoms: C_12  and  O_13
REMARK                            x       y       z     vdW  Elec       q    Type
REMARK                         _______ _______ _______ _____ _____    ______ ____
ROOT
ATOM      1  C   UNL     1     -12.716   6.601 129.439  0.00  0.00    +0.000 C 
ATOM      2  O   UNL     1     -11.989   5.374 129.255  0.00  0.00    +0.000 OA
ATOM      3  C   UNL     1     -11.253   5.113 130.368  0.00  0.00    +0.000 C 
ATOM      4  O   UNL     1     -10.479   4.191 130.523  0.00  0.00    +0.000 OA
ATOM      5  C   UNL     1     -11.548   6.136 131.385  0.00  0.00    +0.000 C 
ATOM      6  C   UNL     1     -12.411   6.985 130.836  0.00  0.00    +0.000 C 
ENDROOT
BRANCH   5   7
ATOM      7  O   UNL     1     -11.016   6.145 132.638  0.00  0.00    +0.000 OA
ATOM      8  H   UNL     1     -11.225   7.034 133.001  0.00  0.00    +0.000 HD
ENDBRANCH   5   7
BRANCH   6   9
ATOM      9  O   UNL     1     -13.000   8.086 131.385  0.00  0.00    +0.000 OA
ATOM     10  H   UNL     1     -13.328   8.664 130.673  0.00  0.00    +0.000 HD
ENDBRANCH   6   9
BRANCH   1  11
ATOM     11  C   UNL     1     -12.254   7.659 128.419  0.00  0.00    +0.000 C 
BRANCH  11  12
ATOM     12  O   UNL     1     -12.897   8.914 128.683  0.00  0.00    +0.000 OA
ATOM     13  H   UNL     1     -12.291   9.613 128.369  0.00  0.00    +0.000 HD
ENDBRANCH  11  12
BRANCH  11  14
ATOM     14  C   UNL     1     -12.593   7.229 126.989  0.00  0.00    +0.000 C 
BRANCH  14  15
ATOM     15  O   UNL     1     -11.487   6.524 126.422  0.00  0.00    +0.000 OA
ATOM     16  H   UNL     1     -11.840   5.758 125.935  0.00  0.00    +0.000 HD
ENDBRANCH  14  15
ENDBRANCH  11  14
ENDBRANCH   1  11
TORSDOF 6
ENDMDL
MODEL 3
REMARK VINA RESULT:      -5.1      1.407      2.209
REMARK  Name = Ascorbic acid
REMARK  6 active torsions:
REMARK  status: ('A' for Active; 'I' for Inactive)
REMARK    1  A    between atoms: C_2  and  C_10
REMARK    2  A    between atoms: C_6  and  O_7
REMARK    3  A    between atoms: C_8  and  O_9
REMARK    4  A    between atoms: C_10  and  O_11
REMARK    5  A    between atoms: C_10  and  C_12
REMARK    6  A    between atoms: C_12  and  O_13
REMARK                            x       y       z     vdW  Elec       q    Type
REMARK                         _______ _______ _______ _____ _____    ______ ____
ROOT
ATOM      1  C   UNL     1     -11.295   7.855 128.976  0.00  0.00    +0.000 C 
ATOM      2  O   UNL     1     -12.252   8.343 129.932  0.00  0.00    +0.000 OA
ATOM      3  C   UNL     1     -12.466   7.393 130.882  0.00  0.00    +0.000 C 
ATOM      4  O   UNL     1     -13.258   7.455 131.799  0.00  0.00    +0.000 OA
ATOM      5  C   UNL     1     -11.564   6.256 130.631  0.00  0.00    +0.000 C 
ATOM      6  C   UNL     1     -10.881   6.546 129.529  0.00  0.00    +0.000 C 
ENDROOT
BRANCH   5   7
ATOM      7  O   UNL     1     -11.486   5.153 131.425  0.00  0.00    +0.000 OA
ATOM      8  H   UNL     1     -11.340   4.402 130.809  0.00  0.00    +0.000 HD
ENDBRANCH   5   7
BRANCH   6   9
ATOM      9  O   UNL     1      -9.909   5.818 128.906  0.00  0.00    +0.000 OA
ATOM     10  H   UNL     1      -9.338   5.403 129.577  0.00  0.00    +0.000 HD
ENDBRANCH   6   9
BRANCH   1  11
ATOM     11  C   UNL     1     -11.939   7.733 127.582  0.00  0.00    +0.000 C 
BRANCH  11  12
ATOM     12  O   UNL     1     -12.607   6.470 127.455  0.00  0.00    +0.000 OA
ATOM     13  H   UNL     1     -12.629   6.256 126.502  0.00  0.00    +0.000 HD
ENDBRANCH  11  12
BRANCH  11  14
ATOM     14  C   UNL     1     -10.884   7.841 126.477  0.00  0.00    +0.000 C 
BRANCH  14  15
ATOM     15  O   UNL     1     -10.445   6.535 126.100  0.00  0.00    +0.000 OA
ATOM     16  H   UNL     1     -10.532   5.955 126.877  0.00  0.00    +0.000 HD
ENDBRANCH  14  15
ENDBRANCH  11  14
ENDBRANCH   1  11
TORSDOF 6
ENDMDL
MODEL 4
REMARK VINA RESULT:      -5.0      1.900      4.119
REMARK  Name = Ascorbic acid
REMARK  6 active torsions:
REMARK  status: ('A' for Active; 'I' for Inactive)
REMARK    1  A    between atoms: C_2  and  C_10
REMARK    2  A    between atoms: C_6  and  O_7
REMARK    3  A    between atoms: C_8  and  O_9
REMARK    4  A    between atoms: C_10  and  O_11
REMARK    5  A    between atoms: C_10  and  C_12
REMARK    6  A    between atoms: C_12  and  O_13
REMARK                            x       y       z     vdW  Elec       q    Type
REMARK                         _______ _______ _______ _____ _____    ______ ____
ROOT
ATOM      1  C   UNL     1     -10.316   6.473 130.290  0.00  0.00    +0.000 C 
ATOM      2  O   UNL     1     -11.419   6.208 131.174  0.00  0.00    +0.000 OA
ATOM      3  C   UNL     1     -12.378   7.156 130.998  0.00  0.00    +0.000 C 
ATOM      4  O   UNL     1     -13.410   7.266 131.626  0.00  0.00    +0.000 OA
ATOM      5  C   UNL     1     -11.970   8.047 129.897  0.00  0.00    +0.000 C 
ATOM      6  C   UNL     1     -10.778   7.628 129.487  0.00  0.00    +0.000 C 
ENDROOT
BRANCH   5   7
ATOM      7  O   UNL     1     -12.726   9.077 129.428  0.00  0.00    +0.000 OA
ATOM      8  H   UNL     1     -13.606   8.965 129.850  0.00  0.00    +0.000 HD
ENDBRANCH   5   7
BRANCH   6   9
ATOM      9  O   UNL     1      -9.998   8.113 128.478  0.00  0.00    +0.000 OA
ATOM     10  H   UNL     1     -10.220   9.049 128.322  0.00  0.00    +0.000 HD
ENDBRANCH   6   9
BRANCH   1  11
ATOM     11  C   UNL     1      -9.040   6.783 131.096  0.00  0.00    +0.000 C 
BRANCH  11  12
ATOM     12  O   UNL     1      -7.881   6.635 130.263  0.00  0.00    +0.000 OA
ATOM     13  H   UNL     1      -7.641   7.529 129.952  0.00  0.00    +0.000 HD
ENDBRANCH  11  12
BRANCH  11  14
ATOM     14  C   UNL     1      -8.904   5.840 132.294  0.00  0.00    +0.000 C 
BRANCH  14  15
ATOM     15  O   UNL     1      -9.673   6.338 133.390  0.00  0.00    +0.000 OA
ATOM     16  H   UNL     1      -9.727   7.306 133.301  0.00  0.00    +0.000 HD
ENDBRANCH  14  15
ENDBRANCH  11  14
ENDBRANCH   1  11
TORSDOF 6
ENDMDL
MODEL 5
REMARK VINA RESULT:      -4.9      1.463      2.184
REMARK  Name = Ascorbic acid
REMARK  6 active torsions:
REMARK  status: ('A' for Active; 'I' for Inactive)
REMARK    1  A    between atoms: C_2  and  C_10
REMARK    2  A    between atoms: C_6  and  O_7
REMARK    3  A    between atoms: C_8  and  O_9
REMARK    4  A    between atoms: C_10  and  O_11
REMARK    5  A    between atoms: C_10  and  C_12
REMARK    6  A    between atoms: C_12  and  O_13
REMARK                            x       y       z     vdW  Elec       q    Type
REMARK                         _______ _______ _______ _____ _____    ______ ____
ROOT
ATOM      1  C   UNL     1     -10.876   6.678 129.898  0.00  0.00    +0.000 C 
ATOM      2  O   UNL     1      -9.498   6.967 129.606  0.00  0.00    +0.000 OA
ATOM      3  C   UNL     1      -8.769   6.899 130.753  0.00  0.00    +0.000 C 
ATOM      4  O   UNL     1      -7.588   7.147 130.873  0.00  0.00    +0.000 OA
ATOM      5  C   UNL     1      -9.648   6.459 131.850  0.00  0.00    +0.000 C 
ATOM      6  C   UNL     1     -10.864   6.321 131.335  0.00  0.00    +0.000 C 
ENDROOT
BRANCH   5   7
ATOM      7  O   UNL     1      -9.226   6.240 133.126  0.00  0.00    +0.000 OA
ATOM      8  H   UNL     1      -9.933   5.701 133.542  0.00  0.00    +0.000 HD
ENDBRANCH   5   7
BRANCH   6   9
ATOM      9  O   UNL     1     -12.014   5.913 131.946  0.00  0.00    +0.000 OA
ATOM     10  H   UNL     1     -12.771   6.387 131.556  0.00  0.00    +0.000 HD
ENDBRANCH   6   9
BRANCH   1  11
ATOM     11  C   UNL     1     -11.760   7.904 129.598  0.00  0.00    +0.000 C 
BRANCH  11  12
ATOM     12  O   UNL     1     -13.122   7.630 129.955  0.00  0.00    +0.000 OA
ATOM     13  H   UNL     1     -13.660   8.364 129.600  0.00  0.00    +0.000 HD
ENDBRANCH  11  12
BRANCH  11  14
ATOM     14  C   UNL     1     -11.708   8.269 128.112  0.00  0.00    +0.000 C 
BRANCH  14  15
ATOM     15  O   UNL     1     -10.486   8.951 127.824  0.00  0.00    +0.000 OA
ATOM     16  H   UNL     1     -10.646   9.905 127.929  0.00  0.00    +0.000 HD
ENDBRANCH  14  15
ENDBRANCH  11  14
ENDBRANCH   1  11
TORSDOF 6
ENDMDL
MODEL 6
REMARK VINA RESULT:      -4.8      1.492      3.999
REMARK  Name = Ascorbic acid
REMARK  6 active torsions:
REMARK  status: ('A' for Active; 'I' for Inactive)
REMARK    1  A    between atoms: C_2  and  C_10
REMARK    2  A    between atoms: C_6  and  O_7
REMARK    3  A    between atoms: C_8  and  O_9
REMARK    4  A    between atoms: C_10  and  O_11
REMARK    5  A    between atoms: C_10  and  C_12
REMARK    6  A    between atoms: C_12  and  O_13
REMARK                            x       y       z     vdW  Elec       q    Type
REMARK                         _______ _______ _______ _____ _____    ______ ____
ROOT
ATOM      1  C   UNL     1     -10.671   7.292 129.474  0.00  0.00    +0.000 C 
ATOM      2  O   UNL     1     -10.048   7.463 128.189  0.00  0.00    +0.000 OA
ATOM      3  C   UNL     1     -11.005   7.478 127.222  0.00  0.00    +0.000 C 
ATOM      4  O   UNL     1     -10.820   7.545 126.024  0.00  0.00    +0.000 OA
ATOM      5  C   UNL     1     -12.330   7.409 127.861  0.00  0.00    +0.000 C 
ATOM      6  C   UNL     1     -12.120   7.316 129.169  0.00  0.00    +0.000 C 
ENDROOT
BRANCH   5   7
ATOM      7  O   UNL     1     -13.509   7.452 127.182  0.00  0.00    +0.000 OA
ATOM      8  H   UNL     1     -13.279   7.240 126.251  0.00  0.00    +0.000 HD
ENDBRANCH   5   7
BRANCH   6   9
ATOM      9  O   UNL     1     -13.031   7.249 130.183  0.00  0.00    +0.000 OA
ATOM     10  H   UNL     1     -13.675   6.544 129.989  0.00  0.00    +0.000 HD
ENDBRANCH   6   9
BRANCH   1  11
ATOM     11  C   UNL     1     -10.222   5.966 130.118  0.00  0.00    +0.000 C 
BRANCH  11  12
ATOM     12  O   UNL     1     -11.194   4.941 129.867  0.00  0.00    +0.000 OA
ATOM     13  H   UNL     1     -10.960   4.184 130.438  0.00  0.00    +0.000 HD
ENDBRANCH  11  12
BRANCH  11  14
ATOM     14  C   UNL     1     -10.054   6.119 131.632  0.00  0.00    +0.000 C 
BRANCH  14  15
ATOM     15  O   UNL     1     -11.312   5.926 132.280  0.00  0.00    +0.000 OA
ATOM     16  H   UNL     1     -11.546   6.757 132.731  0.00  0.00    +0.000 HD
ENDBRANCH  14  15
ENDBRANCH  11  14
ENDBRANCH   1  11
TORSDOF 6
ENDMDL
MODEL 7
REMARK VINA RESULT:      -4.7      1.451      3.969
REMARK  Name = Ascorbic acid
REMARK  6 active torsions:
REMARK  status: ('A' for Active; 'I' for Inactive)
REMARK    1  A    between atoms: C_2  and  C_10
REMARK    2  A    between atoms: C_6  and  O_7
REMARK    3  A    between atoms: C_8  and  O_9
REMARK    4  A    between atoms: C_10  and  O_11
REMARK    5  A    between atoms: C_10  and  C_12
REMARK    6  A    between atoms: C_12  and  O_13
REMARK                            x       y       z     vdW  Elec       q    Type
REMARK                         _______ _______ _______ _____ _____    ______ ____
ROOT
ATOM      1  C   UNL     1      -9.900   7.026 131.031  0.00  0.00    +0.000 C 
ATOM      2  O   UNL     1      -9.378   7.220 129.705  0.00  0.00    +0.000 OA
ATOM      3  C   UNL     1     -10.264   6.732 128.795  0.00  0.00    +0.000 C 
ATOM      4  O   UNL     1     -10.110   6.681 127.593  0.00  0.00    +0.000 OA
ATOM      5  C   UNL     1     -11.471   6.274 129.504  0.00  0.00    +0.000 C 
ATOM      6  C   UNL     1     -11.250   6.465 130.800  0.00  0.00    +0.000 C 
ENDROOT
BRANCH   5   7
ATOM      7  O   UNL     1     -12.576   5.773 128.886  0.00  0.00    +0.000 OA
ATOM      8  H   UNL     1     -13.157   6.549 128.728  0.00  0.00    +0.000 HD
ENDBRANCH   5   7
BRANCH   6   9
ATOM      9  O   UNL     1     -12.077   6.219 131.857  0.00  0.00    +0.000 OA
ATOM     10  H   UNL     1     -12.314   5.274 131.866  0.00  0.00    +0.000 HD
ENDBRANCH   6   9
BRANCH   1  11
ATOM     11  C   UNL     1      -8.992   6.076 131.834  0.00  0.00    +0.000 C 
BRANCH  11  12
ATOM     12  O   UNL     1      -9.297   6.165 133.233  0.00  0.00    +0.000 OA
ATOM     13  H   UNL     1     -10.090   6.729 133.314  0.00  0.00    +0.000 HD
ENDBRANCH  11  12
BRANCH  11  14
ATOM     14  C   UNL     1      -7.515   6.425 131.633  0.00  0.00    +0.000 C 
BRANCH  14  15
ATOM     15  O   UNL     1      -7.076   5.955 130.357  0.00  0.00    +0.000 OA
ATOM     16  H   UNL     1      -7.657   5.219 130.096  0.00  0.00    +0.000 HD
ENDBRANCH  14  15
ENDBRANCH  11  14
ENDBRANCH   1  11
TORSDOF 6
ENDMDL
MODEL 8
REMARK VINA RESULT:      -4.6      2.152      3.258
REMARK  Name = Ascorbic acid
REMARK  6 active torsions:
REMARK  status: ('A' for Active; 'I' for Inactive)
REMARK    1  A    between atoms: C_2  and  C_10
REMARK    2  A    between atoms: C_6  and  O_7
REMARK    3  A    between atoms: C_8  and  O_9
REMARK    4  A    between atoms: C_10  and  O_11
REMARK    5  A    between atoms: C_10  and  C_12
REMARK    6  A    between atoms: C_12  and  O_13
REMARK                            x       y       z     vdW  Elec       q    Type
REMARK                         _______ _______ _______ _____ _____    ______ ____
ROOT
ATOM      1  C   UNL     1     -11.551   5.916 130.706  0.00  0.00    +0.000 C 
ATOM      2  O   UNL     1     -11.002   5.531 129.434  0.00  0.00    +0.000 OA
ATOM      3  C   UNL     1      -9.647   5.643 129.474  0.00  0.00    +0.000 C 
ATOM      4  O   UNL     1      -8.880   5.456 128.553  0.00  0.00    +0.000 OA
ATOM      5  C   UNL     1      -9.241   6.025 130.837  0.00  0.00    +0.000 C 
ATOM      6  C   UNL     1     -10.356   6.165 131.544  0.00  0.00    +0.000 C 
ENDROOT
BRANCH   5   7
ATOM      7  O   UNL     1      -7.947   6.175 131.235  0.00  0.00    +0.000 OA
ATOM      8  H   UNL     1      -7.661   7.037 130.861  0.00  0.00    +0.000 HD
ENDBRANCH   5   7
BRANCH   6   9
ATOM      9  O   UNL     1     -10.502   6.488 132.862  0.00  0.00    +0.000 OA
ATOM     10  H   UNL     1      -9.759   6.114 133.369  0.00  0.00    +0.000 HD
ENDBRANCH   6   9
BRANCH   1  11
ATOM     11  C   UNL     1     -12.441   7.164 130.554  0.00  0.00    +0.000 C 
BRANCH  11  12
ATOM     12  O   UNL     1     -13.340   7.270 131.668  0.00  0.00    +0.000 OA
ATOM     13  H   UNL     1     -12.848   6.973 132.457  0.00  0.00    +0.000 HD
ENDBRANCH  11  12
BRANCH  11  14
ATOM     14  C   UNL     1     -13.265   7.099 129.266  0.00  0.00    +0.000 C 
BRANCH  14  15
ATOM     15  O   UNL     1     -13.227   8.365 128.604  0.00  0.00    +0.000 OA
ATOM     16  H   UNL     1     -14.050   8.838 128.820  0.00  0.00    +0.000 HD
ENDBRANCH  14  15
ENDBRANCH  11  14
ENDBRANCH   1  11
TORSDOF 6
ENDMDL
MODEL 9
REMARK VINA RESULT:      -4.6      1.520      4.049
REMARK  Name = Ascorbic acid
REMARK  6 active torsions:
REMARK  status: ('A' for Active; 'I' for Inactive)
REMARK    1  A    between atoms: C_2  and  C_10
REMARK    2  A    between atoms: C_6  and  O_7
REMARK    3  A    between atoms: C_8  and  O_9
REMARK    4  A    between atoms: C_10  and  O_11
REMARK    5  A    between atoms: C_10  and  C_12
REMARK    6  A    between atoms: C_12  and  O_13
REMARK                            x       y       z     vdW  Elec       q    Type
REMARK                         _______ _______ _______ _____ _____    ______ ____
ROOT
ATOM      1  C   UNL     1     -11.285   6.422 130.215  0.00  0.00    +0.000 C 
ATOM      2  O   UNL     1     -12.278   7.426 130.486  0.00  0.00    +0.000 OA
ATOM      3  C   UNL     1     -12.162   8.433 129.579  0.00  0.00    +0.000 C 
ATOM      4  O   UNL     1     -12.803   9.463 129.557  0.00  0.00    +0.000 OA
ATOM      5  C   UNL     1     -11.125   8.073 128.597  0.00  0.00    +0.000 C 
ATOM      6  C   UNL     1     -10.635   6.896 128.971  0.00  0.00    +0.000 C 
ENDROOT
BRANCH   5   7
ATOM      7  O   UNL     1     -10.789   8.840 127.523  0.00  0.00    +0.000 OA
ATOM      8  H   UNL     1     -11.108   9.742 127.741  0.00  0.00    +0.000 HD
ENDBRANCH   5   7
BRANCH   6   9
ATOM      9  O   UNL     1      -9.672   6.137 128.373  0.00  0.00    +0.000 OA
ATOM     10  H   UNL     1      -9.644   6.346 127.421  0.00  0.00    +0.000 HD
ENDBRANCH   6   9
BRANCH   1  11
ATOM     11  C   UNL     1     -10.299   6.306 131.392  0.00  0.00    +0.000 C 
BRANCH  11  12
ATOM     12  O   UNL     1      -9.109   7.058 131.117  0.00  0.00    +0.000 OA
ATOM     13  H   UNL     1      -9.393   7.895 130.704  0.00  0.00    +0.000 HD
ENDBRANCH  11  12
BRANCH  11  14
ATOM     14  C   UNL     1      -9.909   4.847 131.641  0.00  0.00    +0.000 C 
BRANCH  14  15
ATOM     15  O   UNL     1     -10.873   3.979 131.042  0.00  0.00    +0.000 OA
ATOM     16  H   UNL     1     -11.665   4.509 130.841  0.00  0.00    +0.000 HD
ENDBRANCH  14  15
ENDBRANCH  11  14
ENDBRANCH   1  11
TORSDOF 6
ENDMDL
