MODEL 1
REMARK VINA RESULT:      -7.8      0.000      0.000
REMARK  Name = Asenapine
REMARK  1 active torsions:
REMARK  status: ('A' for Active; 'I' for Inactive)
REMARK    1  A    between atoms: C_1  and  N_2
REMARK                            x       y       z     vdW  Elec       q    Type
REMARK                         _______ _______ _______ _____ _____    ______ ____
ROOT
ATOM      1  C   UNL     1      -5.550   4.196 127.439  0.00  0.00    +0.000 C 
ATOM      2  N   UNL     1      -6.094   4.325 126.079  0.00  0.00    +0.000 NA
ATOM      3  C   UNL     1      -7.245   3.435 126.029  0.00  0.00    +0.000 C 
ATOM      4  C   UNL     1      -7.575   3.341 124.561  0.00  0.00    +0.000 C 
ATOM      5  C   UNL     1      -6.239   3.346 123.817  0.00  0.00    +0.000 C 
ATOM      6  C   UNL     1      -5.247   3.842 124.953  0.00  0.00    +0.000 C 
ATOM      7  C   UNL     1      -6.446   3.825 122.364  0.00  0.00    +0.000 A 
ATOM      8  C   UNL     1      -7.669   3.637 121.637  0.00  0.00    +0.000 A 
ATOM      9  O   UNL     1      -8.894   3.174 122.114  0.00  0.00    +0.000 OA
ATOM     10  C   UNL     1      -8.928   2.073 122.937  0.00  0.00    +0.000 A 
ATOM     11  C   UNL     1      -9.707   0.965 122.571  0.00  0.00    +0.000 A 
ATOM     12  C   UNL     1      -9.782  -0.149 123.422  0.00  0.00    +0.000 A 
ATOM     13  C   UNL     1      -9.110  -0.150 124.627  0.00  0.00    +0.000 A 
ATOM     14 CL   UNL     1      -9.151  -1.501 125.691  0.00  0.00    +0.000 Cl
ATOM     15  C   UNL     1      -8.388   0.971 125.012  0.00  0.00    +0.000 A 
ATOM     16  C   UNL     1      -8.328   2.102 124.182  0.00  0.00    +0.000 A 
ATOM     17  C   UNL     1      -7.760   3.952 120.263  0.00  0.00    +0.000 A 
ATOM     18  C   UNL     1      -6.641   4.359 119.552  0.00  0.00    +0.000 A 
ATOM     19  C   UNL     1      -5.432   4.501 120.224  0.00  0.00    +0.000 A 
ATOM     20  C   UNL     1      -5.339   4.260 121.611  0.00  0.00    +0.000 A 
ENDROOT
TORSDOF 0
ENDMDL
MODEL 2
REMARK VINA RESULT:      -7.2      3.728      4.635
REMARK  Name = Asenapine
REMARK  1 active torsions:
REMARK  status: ('A' for Active; 'I' for Inactive)
REMARK    1  A    between atoms: C_1  and  N_2
REMARK                            x       y       z     vdW  Elec       q    Type
REMARK                         _______ _______ _______ _____ _____    ______ ____
ROOT
ATOM      1  C   UNL     1      -5.830  -1.444 129.733  0.00  0.00    +0.000 C 
ATOM      2  N   UNL     1      -6.258  -0.651 128.571  0.00  0.00    +0.000 NA
ATOM      3  C   UNL     1      -6.452  -1.609 127.491  0.00  0.00    +0.000 C 
ATOM      4  C   UNL     1      -6.567  -0.752 126.256  0.00  0.00    +0.000 C 
ATOM      5  C   UNL     1      -5.592   0.411 126.443  0.00  0.00    +0.000 C 
ATOM      6  C   UNL     1      -5.275   0.308 127.995  0.00  0.00    +0.000 C 
ATOM      7  C   UNL     1      -6.023   1.606 125.567  0.00  0.00    +0.000 A 
ATOM      8  C   UNL     1      -6.736   1.463 124.330  0.00  0.00    +0.000 A 
ATOM      9  O   UNL     1      -7.301   0.310 123.788  0.00  0.00    +0.000 OA
ATOM     10  C   UNL     1      -6.583  -0.862 123.793  0.00  0.00    +0.000 A 
ATOM     11  C   UNL     1      -6.348  -1.529 122.581  0.00  0.00    +0.000 A 
ATOM     12  C   UNL     1      -5.652  -2.749 122.578  0.00  0.00    +0.000 A 
ATOM     13  C   UNL     1      -5.216  -3.305 123.764  0.00  0.00    +0.000 A 
ATOM     14 CL   UNL     1      -4.337  -4.782 123.807  0.00  0.00    +0.000 Cl
ATOM     15  C   UNL     1      -5.502  -2.671 124.965  0.00  0.00    +0.000 A 
ATOM     16  C   UNL     1      -6.221  -1.465 124.983  0.00  0.00    +0.000 A 
ATOM     17  C   UNL     1      -6.971   2.573 123.488  0.00  0.00    +0.000 A 
ATOM     18  C   UNL     1      -6.433   3.817 123.784  0.00  0.00    +0.000 A 
ATOM     19  C   UNL     1      -5.696   3.969 124.954  0.00  0.00    +0.000 A 
ATOM     20  C   UNL     1      -5.512   2.889 125.842  0.00  0.00    +0.000 A 
ENDROOT
TORSDOF 0
ENDMDL
MODEL 3
REMARK VINA RESULT:      -7.0      5.196      7.300
REMARK  Name = Asenapine
REMARK  1 active torsions:
REMARK  status: ('A' for Active; 'I' for Inactive)
REMARK    1  A    between atoms: C_1  and  N_2
REMARK                            x       y       z     vdW  Elec       q    Type
REMARK                         _______ _______ _______ _____ _____    ______ ____
ROOT
ATOM      1  C   UNL     1      -6.500  -3.726 131.244  0.00  0.00    +0.000 C 
ATOM      2  N   UNL     1      -6.505  -3.605 129.779  0.00  0.00    +0.000 NA
ATOM      3  C   UNL     1      -5.614  -2.495 129.472  0.00  0.00    +0.000 C 
ATOM      4  C   UNL     1      -5.889  -2.191 128.022  0.00  0.00    +0.000 C 
ATOM      5  C   UNL     1      -7.390  -2.400 127.813  0.00  0.00    +0.000 C 
ATOM      6  C   UNL     1      -7.781  -3.200 129.128  0.00  0.00    +0.000 C 
ATOM      7  C   UNL     1      -7.681  -2.681 126.324  0.00  0.00    +0.000 A 
ATOM      8  C   UNL     1      -6.874  -2.173 125.251  0.00  0.00    +0.000 A 
ATOM      9  O   UNL     1      -5.648  -1.515 125.330  0.00  0.00    +0.000 OA
ATOM     10  C   UNL     1      -5.474  -0.518 126.260  0.00  0.00    +0.000 A 
ATOM     11  C   UNL     1      -5.077   0.759 125.833  0.00  0.00    +0.000 A 
ATOM     12  C   UNL     1      -4.856   1.775 126.776  0.00  0.00    +0.000 A 
ATOM     13  C   UNL     1      -5.008   1.519 128.124  0.00  0.00    +0.000 A 
ATOM     14 CL   UNL     1      -4.774   2.738 129.314  0.00  0.00    +0.000 Cl
ATOM     15  C   UNL     1      -5.344   0.240 128.546  0.00  0.00    +0.000 A 
ATOM     16  C   UNL     1      -5.541  -0.792 127.613  0.00  0.00    +0.000 A 
ATOM     17  C   UNL     1      -7.267  -2.326 123.903  0.00  0.00    +0.000 A 
ATOM     18  C   UNL     1      -8.495  -2.884 123.580  0.00  0.00    +0.000 A 
ATOM     19  C   UNL     1      -9.318  -3.339 124.605  0.00  0.00    +0.000 A 
ATOM     20  C   UNL     1      -8.910  -3.260 125.953  0.00  0.00    +0.000 A 
ENDROOT
TORSDOF 0
ENDMDL
MODEL 4
REMARK VINA RESULT:      -6.9      1.710      2.365
REMARK  Name = Asenapine
REMARK  1 active torsions:
REMARK  status: ('A' for Active; 'I' for Inactive)
REMARK    1  A    between atoms: C_1  and  N_2
REMARK                            x       y       z     vdW  Elec       q    Type
REMARK                         _______ _______ _______ _____ _____    ______ ____
ROOT
ATOM      1  C   UNL     1      -8.173   2.392 129.239  0.00  0.00    +0.000 C 
ATOM      2  N   UNL     1      -8.197   2.636 127.789  0.00  0.00    +0.000 NA
ATOM      3  C   UNL     1      -8.884   1.490 127.209  0.00  0.00    +0.000 C 
ATOM      4  C   UNL     1      -8.608   1.605 125.731  0.00  0.00    +0.000 C 
ATOM      5  C   UNL     1      -7.178   2.130 125.598  0.00  0.00    +0.000 C 
ATOM      6  C   UNL     1      -6.892   2.642 127.073  0.00  0.00    +0.000 C 
ATOM      7  C   UNL     1      -6.993   2.813 124.226  0.00  0.00    +0.000 A 
ATOM      8  C   UNL     1      -7.732   2.444 123.053  0.00  0.00    +0.000 A 
ATOM      9  O   UNL     1      -8.816   1.574 122.954  0.00  0.00    +0.000 OA
ATOM     10  C   UNL     1      -8.776   0.365 123.608  0.00  0.00    +0.000 A 
ATOM     11  C   UNL     1      -8.951  -0.819 122.875  0.00  0.00    +0.000 A 
ATOM     12  C   UNL     1      -8.953  -2.058 123.537  0.00  0.00    +0.000 A 
ATOM     13  C   UNL     1      -8.804  -2.114 124.908  0.00  0.00    +0.000 A 
ATOM     14 CL   UNL     1      -8.773  -3.608 125.759  0.00  0.00    +0.000 Cl
ATOM     15  C   UNL     1      -8.689  -0.938 125.635  0.00  0.00    +0.000 A 
ATOM     16  C   UNL     1      -8.713   0.308 124.987  0.00  0.00    +0.000 A 
ATOM     17  C   UNL     1      -7.419   2.990 121.788  0.00  0.00    +0.000 A 
ATOM     18  C   UNL     1      -6.323   3.825 121.626  0.00  0.00    +0.000 A 
ATOM     19  C   UNL     1      -5.561   4.159 122.741  0.00  0.00    +0.000 A 
ATOM     20  C   UNL     1      -5.902   3.680 124.024  0.00  0.00    +0.000 A 
ENDROOT
TORSDOF 0
ENDMDL
MODEL 5
REMARK VINA RESULT:      -6.9      4.571      5.720
REMARK  Name = Asenapine
REMARK  1 active torsions:
REMARK  status: ('A' for Active; 'I' for Inactive)
REMARK    1  A    between atoms: C_1  and  N_2
REMARK                            x       y       z     vdW  Elec       q    Type
REMARK                         _______ _______ _______ _____ _____    ______ ____
ROOT
ATOM      1  C   UNL     1      -4.964   2.383 127.977  0.00  0.00    +0.000 C 
ATOM      2  N   UNL     1      -5.883   1.589 127.147  0.00  0.00    +0.000 NA
ATOM      3  C   UNL     1      -6.593   0.716 128.071  0.00  0.00    +0.000 C 
ATOM      4  C   UNL     1      -7.271  -0.292 127.178  0.00  0.00    +0.000 C 
ATOM      5  C   UNL     1      -6.302  -0.572 126.028  0.00  0.00    +0.000 C 
ATOM      6  C   UNL     1      -5.278   0.632 126.179  0.00  0.00    +0.000 C 
ATOM      7  C   UNL     1      -7.075  -1.106 124.804  0.00  0.00    +0.000 A 
ATOM      8  C   UNL     1      -8.299  -1.849 124.905  0.00  0.00    +0.000 A 
ATOM      9  O   UNL     1      -9.080  -2.076 126.037  0.00  0.00    +0.000 OA
ATOM     10  C   UNL     1      -8.474  -2.443 127.215  0.00  0.00    +0.000 A 
ATOM     11  C   UNL     1      -8.865  -3.632 127.848  0.00  0.00    +0.000 A 
ATOM     12  C   UNL     1      -8.283  -3.997 129.073  0.00  0.00    +0.000 A 
ATOM     13  C   UNL     1      -7.342  -3.181 129.667  0.00  0.00    +0.000 A 
ATOM     14 CL   UNL     1      -6.582  -3.599 131.152  0.00  0.00    +0.000 Cl
ATOM     15  C   UNL     1      -7.000  -1.977 129.066  0.00  0.00    +0.000 A 
ATOM     16  C   UNL     1      -7.596  -1.588 127.855  0.00  0.00    +0.000 A 
ATOM     17  C   UNL     1      -8.888  -2.448 123.770  0.00  0.00    +0.000 A 
ATOM     18  C   UNL     1      -8.247  -2.421 122.540  0.00  0.00    +0.000 A 
ATOM     19  C   UNL     1      -7.035  -1.749 122.427  0.00  0.00    +0.000 A 
ATOM     20  C   UNL     1      -6.468  -1.084 123.535  0.00  0.00    +0.000 A 
ENDROOT
TORSDOF 0
ENDMDL
MODEL 6
REMARK VINA RESULT:      -6.9      3.309      6.438
REMARK  Name = Asenapine
REMARK  1 active torsions:
REMARK  status: ('A' for Active; 'I' for Inactive)
REMARK    1  A    between atoms: C_1  and  N_2
REMARK                            x       y       z     vdW  Elec       q    Type
REMARK                         _______ _______ _______ _____ _____    ______ ____
ROOT
ATOM      1  C   UNL     1      -9.202  -2.915 123.218  0.00  0.00    +0.000 C 
ATOM      2  N   UNL     1      -9.246  -1.909 124.290  0.00  0.00    +0.000 NA
ATOM      3  C   UNL     1      -9.048  -0.625 123.633  0.00  0.00    +0.000 C 
ATOM      4  C   UNL     1      -8.774   0.331 124.766  0.00  0.00    +0.000 C 
ATOM      5  C   UNL     1      -7.947  -0.443 125.793  0.00  0.00    +0.000 C 
ATOM      6  C   UNL     1      -8.154  -1.938 125.303  0.00  0.00    +0.000 C 
ATOM      7  C   UNL     1      -8.097   0.204 127.186  0.00  0.00    +0.000 A 
ATOM      8  C   UNL     1      -8.360   1.601 127.385  0.00  0.00    +0.000 A 
ATOM      9  O   UNL     1      -8.685   2.562 126.430  0.00  0.00    +0.000 OA
ATOM     10  C   UNL     1      -7.978   2.612 125.252  0.00  0.00    +0.000 A 
ATOM     11  C   UNL     1      -7.340   3.806 124.884  0.00  0.00    +0.000 A 
ATOM     12  C   UNL     1      -6.649   3.882 123.663  0.00  0.00    +0.000 A 
ATOM     13  C   UNL     1      -6.612   2.794 122.815  0.00  0.00    +0.000 A 
ATOM     14 CL   UNL     1      -5.757   2.831 121.323  0.00  0.00    +0.000 Cl
ATOM     15  C   UNL     1      -7.294   1.634 123.157  0.00  0.00    +0.000 A 
ATOM     16  C   UNL     1      -8.011   1.555 124.362  0.00  0.00    +0.000 A 
ATOM     17  C   UNL     1      -8.336   2.174 128.676  0.00  0.00    +0.000 A 
ATOM     18  C   UNL     1      -7.958   1.423 129.780  0.00  0.00    +0.000 A 
ATOM     19  C   UNL     1      -7.650   0.078 129.605  0.00  0.00    +0.000 A 
ATOM     20  C   UNL     1      -7.739  -0.528 128.334  0.00  0.00    +0.000 A 
ENDROOT
TORSDOF 0
ENDMDL
MODEL 7
REMARK VINA RESULT:      -6.7      6.666      8.681
REMARK  Name = Asenapine
REMARK  1 active torsions:
REMARK  status: ('A' for Active; 'I' for Inactive)
REMARK    1  A    between atoms: C_1  and  N_2
REMARK                            x       y       z     vdW  Elec       q    Type
REMARK                         _______ _______ _______ _____ _____    ______ ____
ROOT
ATOM      1  C   UNL     1      -5.619  -2.911 133.825  0.00  0.00    +0.000 C 
ATOM      2  N   UNL     1      -5.917  -2.616 132.416  0.00  0.00    +0.000 NA
ATOM      3  C   UNL     1      -6.152  -1.180 132.356  0.00  0.00    +0.000 C 
ATOM      4  C   UNL     1      -6.764  -0.963 130.995  0.00  0.00    +0.000 C 
ATOM      5  C   UNL     1      -7.666  -2.170 130.730  0.00  0.00    +0.000 C 
ATOM      6  C   UNL     1      -7.171  -3.184 131.847  0.00  0.00    +0.000 C 
ATOM      7  C   UNL     1      -7.875  -2.347 129.211  0.00  0.00    +0.000 A 
ATOM      8  C   UNL     1      -7.842  -1.259 128.276  0.00  0.00    +0.000 A 
ATOM      9  O   UNL     1      -7.469   0.064 128.504  0.00  0.00    +0.000 OA
ATOM     10  C   UNL     1      -7.934   0.716 129.621  0.00  0.00    +0.000 A 
ATOM     11  C   UNL     1      -8.641   1.919 129.471  0.00  0.00    +0.000 A 
ATOM     12  C   UNL     1      -9.086   2.616 130.606  0.00  0.00    +0.000 A 
ATOM     13  C   UNL     1      -8.813   2.133 131.870  0.00  0.00    +0.000 A 
ATOM     14 CL   UNL     1      -9.360   2.937 133.288  0.00  0.00    +0.000 Cl
ATOM     15  C   UNL     1      -8.064   0.974 132.015  0.00  0.00    +0.000 A 
ATOM     16  C   UNL     1      -7.590   0.283 130.888  0.00  0.00    +0.000 A 
ATOM     17  C   UNL     1      -8.192  -1.448 126.920  0.00  0.00    +0.000 A 
ATOM     18  C   UNL     1      -8.674  -2.670 126.474  0.00  0.00    +0.000 A 
ATOM     19  C   UNL     1      -8.762  -3.727 127.374  0.00  0.00    +0.000 A 
ATOM     20  C   UNL     1      -8.349  -3.576 128.714  0.00  0.00    +0.000 A 
ENDROOT
TORSDOF 0
ENDMDL
MODEL 8
REMARK VINA RESULT:      -6.7      4.296      7.046
REMARK  Name = Asenapine
REMARK  1 active torsions:
REMARK  status: ('A' for Active; 'I' for Inactive)
REMARK    1  A    between atoms: C_1  and  N_2
REMARK                            x       y       z     vdW  Elec       q    Type
REMARK                         _______ _______ _______ _____ _____    ______ ____
ROOT
ATOM      1  C   UNL     1      -6.100   2.760 124.797  0.00  0.00    +0.000 C 
ATOM      2  N   UNL     1      -6.327   2.159 126.120  0.00  0.00    +0.000 NA
ATOM      3  C   UNL     1      -6.390   0.722 125.894  0.00  0.00    +0.000 C 
ATOM      4  C   UNL     1      -6.939   0.170 127.184  0.00  0.00    +0.000 C 
ATOM      5  C   UNL     1      -7.969   1.183 127.684  0.00  0.00    +0.000 C 
ATOM      6  C   UNL     1      -7.625   2.449 126.791  0.00  0.00    +0.000 C 
ATOM      7  C   UNL     1      -8.161   1.031 129.208  0.00  0.00    +0.000 A 
ATOM      8  C   UNL     1      -7.978  -0.208 129.909  0.00  0.00    +0.000 A 
ATOM      9  O   UNL     1      -7.457  -1.405 129.422  0.00  0.00    +0.000 OA
ATOM     10  C   UNL     1      -7.870  -1.875 128.198  0.00  0.00    +0.000 A 
ATOM     11  C   UNL     1      -8.426  -3.160 128.107  0.00  0.00    +0.000 A 
ATOM     12  C   UNL     1      -8.814  -3.668 126.857  0.00  0.00    +0.000 A 
ATOM     13  C   UNL     1      -8.631  -2.917 125.714  0.00  0.00    +0.000 A 
ATOM     14 CL   UNL     1      -9.114  -3.485 124.164  0.00  0.00    +0.000 Cl
ATOM     15  C   UNL     1      -8.027  -1.670 125.801  0.00  0.00    +0.000 A 
ATOM     16  C   UNL     1      -7.610  -1.163 127.042  0.00  0.00    +0.000 A 
ATOM     17  C   UNL     1      -8.314  -0.333 131.275  0.00  0.00    +0.000 A 
ATOM     18  C   UNL     1      -8.925   0.710 131.955  0.00  0.00    +0.000 A 
ATOM     19  C   UNL     1      -9.159   1.905 131.284  0.00  0.00    +0.000 A 
ATOM     20  C   UNL     1      -8.764   2.072 129.940  0.00  0.00    +0.000 A 
ENDROOT
TORSDOF 0
ENDMDL
MODEL 9
REMARK VINA RESULT:      -6.6      3.518      6.257
REMARK  Name = Asenapine
REMARK  1 active torsions:
REMARK  status: ('A' for Active; 'I' for Inactive)
REMARK    1  A    between atoms: C_1  and  N_2
REMARK                            x       y       z     vdW  Elec       q    Type
REMARK                         _______ _______ _______ _____ _____    ______ ____
ROOT
ATOM      1  C   UNL     1      -4.048   2.742 127.256  0.00  0.00    +0.000 C 
ATOM      2  N   UNL     1      -4.704   1.428 127.194  0.00  0.00    +0.000 NA
ATOM      3  C   UNL     1      -5.257   1.327 125.851  0.00  0.00    +0.000 C 
ATOM      4  C   UNL     1      -6.184   0.140 125.922  0.00  0.00    +0.000 C 
ATOM      5  C   UNL     1      -6.832   0.180 127.307  0.00  0.00    +0.000 C 
ATOM      6  C   UNL     1      -5.894   1.214 128.063  0.00  0.00    +0.000 C 
ATOM      7  C   UNL     1      -7.323  -1.229 127.700  0.00  0.00    +0.000 A 
ATOM      8  C   UNL     1      -7.737  -2.217 126.745  0.00  0.00    +0.000 A 
ATOM      9  O   UNL     1      -7.624  -2.176 125.357  0.00  0.00    +0.000 OA
ATOM     10  C   UNL     1      -7.967  -1.027 124.683  0.00  0.00    +0.000 A 
ATOM     11  C   UNL     1      -8.937  -1.087 123.672  0.00  0.00    +0.000 A 
ATOM     12  C   UNL     1      -9.266   0.071 122.948  0.00  0.00    +0.000 A 
ATOM     13  C   UNL     1      -8.625   1.263 123.215  0.00  0.00    +0.000 A 
ATOM     14 CL   UNL     1      -9.013   2.713 122.374  0.00  0.00    +0.000 Cl
ATOM     15  C   UNL     1      -7.625   1.305 124.176  0.00  0.00    +0.000 A 
ATOM     16  C   UNL     1      -7.267   0.148 124.887  0.00  0.00    +0.000 A 
ATOM     17  C   UNL     1      -8.323  -3.434 127.158  0.00  0.00    +0.000 A 
ATOM     18  C   UNL     1      -8.609  -3.668 128.495  0.00  0.00    +0.000 A 
ATOM     19  C   UNL     1      -8.263  -2.703 129.435  0.00  0.00    +0.000 A 
ATOM     20  C   UNL     1      -7.611  -1.513 129.048  0.00  0.00    +0.000 A 
ENDROOT
TORSDOF 0
ENDMDL
