MODEL 1
REMARK VINA RESULT:      -4.6      0.000      0.000
REMARK  Name = Asparagine
REMARK  5 active torsions:
REMARK  status: ('A' for Active; 'I' for Inactive)
REMARK    1  A    between atoms: N_1  and  CA_2
REMARK    2  A    between atoms: CA_2  and  CB_3
REMARK    3  A    between atoms: CA_2  and  C_7
REMARK    4  A    between atoms: CB_3  and  CG_4
REMARK    5  A    between atoms: C_7  and  O_8
REMARK                            x       y       z     vdW  Elec       q    Type
REMARK                         _______ _______ _______ _____ _____    ______ ____
ROOT
ATOM      1  CA  ASN A   1     -11.586   7.799 127.868  0.00  0.00    +0.000 C 
ENDROOT
BRANCH   1   2
ATOM      2  N   ASN A   1     -10.574   8.854 128.197  0.00  0.00    +0.000 NA
ATOM      3  H1  ASN A   1     -10.773   9.183 129.151  0.00  0.00    +0.000 HD
ATOM      4  H2  ASN A   1     -10.798   9.696 127.656  0.00  0.00    +0.000 HD
ENDBRANCH   1   2
BRANCH   1   5
ATOM      5  C   ASN A   1     -11.513   7.469 126.371  0.00  0.00    +0.000 C 
ATOM      6  OXT ASN A   1     -10.748   8.014 125.582  0.00  0.00    +0.000 OA
BRANCH   5   7
ATOM      7  O   ASN A   1     -12.390   6.507 125.991  0.00  0.00    +0.000 OA
ATOM      8  H   ASN A   1     -13.305   6.857 126.094  0.00  0.00    +0.000 HD
ENDBRANCH   5   7
ENDBRANCH   1   5
BRANCH   1   9
ATOM      9  CB  ASN A   1     -12.997   8.238 128.252  0.00  0.00    +0.000 C 
BRANCH   9  10
ATOM     10  CG  ASN A   1     -13.074   9.399 129.228  0.00  0.00    +0.000 C 
ATOM     11  ND2 ASN A   1     -13.467  10.620 128.759  0.00  0.00    +0.000 N 
ATOM     12  OD1 ASN A   1     -12.847   9.256 130.426  0.00  0.00    +0.000 OA
ATOM     13 HD21 ASN A   1     -13.415  10.894 127.786  0.00  0.00    +0.000 HD
ATOM     14 HD22 ASN A   1     -13.477  11.378 129.431  0.00  0.00    +0.000 HD
ENDBRANCH   9  10
ENDBRANCH   1   9
TORSDOF 5
ENDMDL
MODEL 2
REMARK VINA RESULT:      -4.6      2.004      2.564
REMARK  Name = Asparagine
REMARK  5 active torsions:
REMARK  status: ('A' for Active; 'I' for Inactive)
REMARK    1  A    between atoms: N_1  and  CA_2
REMARK    2  A    between atoms: CA_2  and  CB_3
REMARK    3  A    between atoms: CA_2  and  C_7
REMARK    4  A    between atoms: CB_3  and  CG_4
REMARK    5  A    between atoms: C_7  and  O_8
REMARK                            x       y       z     vdW  Elec       q    Type
REMARK                         _______ _______ _______ _____ _____    ______ ____
ROOT
ATOM      1  CA  ASN A   1     -10.884   8.207 127.697  0.00  0.00    +0.000 C 
ENDROOT
BRANCH   1   2
ATOM      2  N   ASN A   1     -12.121   8.864 128.231  0.00  0.00    +0.000 NA
ATOM      3  H1  ASN A   1     -12.265   8.513 129.188  0.00  0.00    +0.000 HD
ATOM      4  H2  ASN A   1     -12.933   8.457 127.756  0.00  0.00    +0.000 HD
ENDBRANCH   1   2
BRANCH   1   5
ATOM      5  C   ASN A   1     -11.168   7.642 126.299  0.00  0.00    +0.000 C 
ATOM      6  OXT ASN A   1     -10.714   8.112 125.261  0.00  0.00    +0.000 OA
BRANCH   5   7
ATOM      7  O   ASN A   1     -11.986   6.561 126.314  0.00  0.00    +0.000 OA
ATOM      8  H   ASN A   1     -11.768   5.989 125.543  0.00  0.00    +0.000 HD
ENDBRANCH   5   7
ENDBRANCH   1   5
BRANCH   1   9
ATOM      9  CB  ASN A   1     -10.389   7.104 128.631  0.00  0.00    +0.000 C 
BRANCH   9  10
ATOM     10  CG  ASN A   1     -11.434   6.532 129.573  0.00  0.00    +0.000 C 
ATOM     11  ND2 ASN A   1     -11.423   6.933 130.878  0.00  0.00    +0.000 N 
ATOM     12  OD1 ASN A   1     -12.312   5.769 129.181  0.00  0.00    +0.000 OA
ATOM     13 HD21 ASN A   1     -10.614   7.327 131.341  0.00  0.00    +0.000 HD
ATOM     14 HD22 ASN A   1     -12.115   6.508 131.485  0.00  0.00    +0.000 HD
ENDBRANCH   9  10
ENDBRANCH   1   9
TORSDOF 5
ENDMDL
MODEL 3
REMARK VINA RESULT:      -4.5      2.647      4.154
REMARK  Name = Asparagine
REMARK  5 active torsions:
REMARK  status: ('A' for Active; 'I' for Inactive)
REMARK    1  A    between atoms: N_1  and  CA_2
REMARK    2  A    between atoms: CA_2  and  CB_3
REMARK    3  A    between atoms: CA_2  and  C_7
REMARK    4  A    between atoms: CB_3  and  CG_4
REMARK    5  A    between atoms: C_7  and  O_8
REMARK                            x       y       z     vdW  Elec       q    Type
REMARK                         _______ _______ _______ _____ _____    ______ ____
ROOT
ATOM      1  CA  ASN A   1     -11.408   6.442 129.914  0.00  0.00    +0.000 C 
ENDROOT
BRANCH   1   2
ATOM      2  N   ASN A   1     -12.457   6.084 128.905  0.00  0.00    +0.000 NA
ATOM      3  H1  ASN A   1     -12.065   6.277 127.973  0.00  0.00    +0.000 HD
ATOM      4  H2  ASN A   1     -13.199   6.790 128.947  0.00  0.00    +0.000 HD
ENDBRANCH   1   2
BRANCH   1   5
ATOM      5  C   ASN A   1     -12.055   6.580 131.298  0.00  0.00    +0.000 C 
ATOM      6  OXT ASN A   1     -13.107   7.174 131.510  0.00  0.00    +0.000 OA
BRANCH   5   7
ATOM      7  O   ASN A   1     -11.343   5.981 132.284  0.00  0.00    +0.000 OA
ATOM      8  H   ASN A   1     -11.822   5.170 132.572  0.00  0.00    +0.000 HD
ENDBRANCH   5   7
ENDBRANCH   1   5
BRANCH   1   9
ATOM      9  CB  ASN A   1     -10.680   7.730 129.531  0.00  0.00    +0.000 C 
BRANCH   9  10
ATOM     10  CG  ASN A   1     -11.292   8.504 128.376  0.00  0.00    +0.000 C 
ATOM     11  ND2 ASN A   1     -12.364   9.310 128.628  0.00  0.00    +0.000 N 
ATOM     12  OD1 ASN A   1     -10.816   8.464 127.245  0.00  0.00    +0.000 OA
ATOM     13 HD21 ASN A   1     -12.972   9.207 129.430  0.00  0.00    +0.000 HD
ATOM     14 HD22 ASN A   1     -12.765   9.787 127.829  0.00  0.00    +0.000 HD
ENDBRANCH   9  10
ENDBRANCH   1   9
TORSDOF 5
ENDMDL
MODEL 4
REMARK VINA RESULT:      -4.4      2.444      3.851
REMARK  Name = Asparagine
REMARK  5 active torsions:
REMARK  status: ('A' for Active; 'I' for Inactive)
REMARK    1  A    between atoms: N_1  and  CA_2
REMARK    2  A    between atoms: CA_2  and  CB_3
REMARK    3  A    between atoms: CA_2  and  C_7
REMARK    4  A    between atoms: CB_3  and  CG_4
REMARK    5  A    between atoms: C_7  and  O_8
REMARK                            x       y       z     vdW  Elec       q    Type
REMARK                         _______ _______ _______ _____ _____    ______ ____
ROOT
ATOM      1  CA  ASN A   1     -10.390   7.292 128.734  0.00  0.00    +0.000 C 
ENDROOT
BRANCH   1   2
ATOM      2  N   ASN A   1      -9.695   6.176 128.013  0.00  0.00    +0.000 NA
ATOM      3  H1  ASN A   1     -10.396   5.445 127.833  0.00  0.00    +0.000 HD
ATOM      4  H2  ASN A   1      -9.084   5.692 128.680  0.00  0.00    +0.000 HD
ENDBRANCH   1   2
BRANCH   1   5
ATOM      5  C   ASN A   1     -11.424   6.707 129.705  0.00  0.00    +0.000 C 
ATOM      6  OXT ASN A   1     -11.578   7.092 130.860  0.00  0.00    +0.000 OA
BRANCH   5   7
ATOM      7  O   ASN A   1     -12.161   5.706 129.165  0.00  0.00    +0.000 OA
ATOM      8  H   ASN A   1     -12.932   6.099 128.696  0.00  0.00    +0.000 HD
ENDBRANCH   5   7
ENDBRANCH   1   5
BRANCH   1   9
ATOM      9  CB  ASN A   1     -11.058   8.258 127.757  0.00  0.00    +0.000 C 
BRANCH   9  10
ATOM     10  CG  ASN A   1     -11.351   7.691 126.379  0.00  0.00    +0.000 C 
ATOM     11  ND2 ASN A   1     -12.422   6.856 126.232  0.00  0.00    +0.000 N 
ATOM     12  OD1 ASN A   1     -10.689   8.004 125.394  0.00  0.00    +0.000 OA
ATOM     13 HD21 ASN A   1     -12.846   6.343 126.994  0.00  0.00    +0.000 HD
ATOM     14 HD22 ASN A   1     -12.569   6.472 125.306  0.00  0.00    +0.000 HD
ENDBRANCH   9  10
ENDBRANCH   1   9
TORSDOF 5
ENDMDL
MODEL 5
REMARK VINA RESULT:      -4.4      2.248      2.460
REMARK  Name = Asparagine
REMARK  5 active torsions:
REMARK  status: ('A' for Active; 'I' for Inactive)
REMARK    1  A    between atoms: N_1  and  CA_2
REMARK    2  A    between atoms: CA_2  and  CB_3
REMARK    3  A    between atoms: CA_2  and  C_7
REMARK    4  A    between atoms: CB_3  and  CG_4
REMARK    5  A    between atoms: C_7  and  O_8
REMARK                            x       y       z     vdW  Elec       q    Type
REMARK                         _______ _______ _______ _____ _____    ______ ____
ROOT
ATOM      1  CA  ASN A   1     -12.030   7.358 127.543  0.00  0.00    +0.000 C 
ENDROOT
BRANCH   1   2
ATOM      2  N   ASN A   1     -12.338   6.689 126.238  0.00  0.00    +0.000 NA
ATOM      3  H1  ASN A   1     -11.464   6.661 125.694  0.00  0.00    +0.000 HD
ATOM      4  H2  ASN A   1     -12.894   7.335 125.668  0.00  0.00    +0.000 HD
ENDBRANCH   1   2
BRANCH   1   5
ATOM      5  C   ASN A   1     -10.514   7.344 127.779  0.00  0.00    +0.000 C 
ATOM      6  OXT ASN A   1      -9.787   6.387 127.535  0.00  0.00    +0.000 OA
BRANCH   5   7
ATOM      7  O   ASN A   1     -10.042   8.506 128.297  0.00  0.00    +0.000 OA
ATOM      8  H   ASN A   1     -10.750   9.187 128.242  0.00  0.00    +0.000 HD
ENDBRANCH   5   7
ENDBRANCH   1   5
BRANCH   1   9
ATOM      9  CB  ASN A   1     -12.759   6.683 128.704  0.00  0.00    +0.000 C 
BRANCH   9  10
ATOM     10  CG  ASN A   1     -12.884   7.518 129.967  0.00  0.00    +0.000 C 
ATOM     11  ND2 ASN A   1     -12.735   8.871 129.870  0.00  0.00    +0.000 N 
ATOM     12  OD1 ASN A   1     -13.167   7.015 131.051  0.00  0.00    +0.000 OA
ATOM     13 HD21 ASN A   1     -12.254   9.333 129.110  0.00  0.00    +0.000 HD
ATOM     14 HD22 ASN A   1     -12.795   9.393 130.737  0.00  0.00    +0.000 HD
ENDBRANCH   9  10
ENDBRANCH   1   9
TORSDOF 5
ENDMDL
MODEL 6
REMARK VINA RESULT:      -4.1      2.514      2.970
REMARK  Name = Asparagine
REMARK  5 active torsions:
REMARK  status: ('A' for Active; 'I' for Inactive)
REMARK    1  A    between atoms: N_1  and  CA_2
REMARK    2  A    between atoms: CA_2  and  CB_3
REMARK    3  A    between atoms: CA_2  and  C_7
REMARK    4  A    between atoms: CB_3  and  CG_4
REMARK    5  A    between atoms: C_7  and  O_8
REMARK                            x       y       z     vdW  Elec       q    Type
REMARK                         _______ _______ _______ _____ _____    ______ ____
ROOT
ATOM      1  CA  ASN A   1     -11.473   6.853 128.688  0.00  0.00    +0.000 C 
ENDROOT
BRANCH   1   2
ATOM      2  N   ASN A   1     -11.099   8.166 129.305  0.00  0.00    +0.000 NA
ATOM      3  H1  ASN A   1     -10.220   8.472 128.865  0.00  0.00    +0.000 HD
ATOM      4  H2  ASN A   1     -10.779   7.993 130.264  0.00  0.00    +0.000 HD
ENDBRANCH   1   2
BRANCH   1   5
ATOM      5  C   ASN A   1     -12.419   7.096 127.504  0.00  0.00    +0.000 C 
ATOM      6  OXT ASN A   1     -13.513   7.642 127.598  0.00  0.00    +0.000 OA
BRANCH   5   7
ATOM      7  O   ASN A   1     -11.931   6.638 126.325  0.00  0.00    +0.000 OA
ATOM      8  H   ASN A   1     -12.684   6.339 125.766  0.00  0.00    +0.000 HD
ENDBRANCH   5   7
ENDBRANCH   1   5
BRANCH   1   9
ATOM      9  CB  ASN A   1     -12.121   5.919 129.709  0.00  0.00    +0.000 C 
BRANCH   9  10
ATOM     10  CG  ASN A   1     -12.246   6.480 131.115  0.00  0.00    +0.000 C 
ATOM     11  ND2 ASN A   1     -11.268   6.187 132.022  0.00  0.00    +0.000 N 
ATOM     12  OD1 ASN A   1     -13.167   7.225 131.437  0.00  0.00    +0.000 OA
ATOM     13 HD21 ASN A   1     -10.641   5.398 131.941  0.00  0.00    +0.000 HD
ATOM     14 HD22 ASN A   1     -11.400   6.552 132.958  0.00  0.00    +0.000 HD
ENDBRANCH   9  10
ENDBRANCH   1   9
TORSDOF 5
ENDMDL
MODEL 7
REMARK VINA RESULT:      -4.1      2.999      4.012
REMARK  Name = Asparagine
REMARK  5 active torsions:
REMARK  status: ('A' for Active; 'I' for Inactive)
REMARK    1  A    between atoms: N_1  and  CA_2
REMARK    2  A    between atoms: CA_2  and  CB_3
REMARK    3  A    between atoms: CA_2  and  C_7
REMARK    4  A    between atoms: CB_3  and  CG_4
REMARK    5  A    between atoms: C_7  and  O_8
REMARK                            x       y       z     vdW  Elec       q    Type
REMARK                         _______ _______ _______ _____ _____    ______ ____
ROOT
ATOM      1  CA  ASN A   1     -12.776   7.385 129.571  0.00  0.00    +0.000 C 
ENDROOT
BRANCH   1   2
ATOM      2  N   ASN A   1     -12.020   6.467 128.659  0.00  0.00    +0.000 NA
ATOM      3  H1  ASN A   1     -11.094   6.887 128.501  0.00  0.00    +0.000 HD
ATOM      4  H2  ASN A   1     -12.424   6.540 127.720  0.00  0.00    +0.000 HD
ENDBRANCH   1   2
BRANCH   1   5
ATOM      5  C   ASN A   1     -12.458   8.842 129.208  0.00  0.00    +0.000 C 
ATOM      6  OXT ASN A   1     -13.026   9.813 129.696  0.00  0.00    +0.000 OA
BRANCH   5   7
ATOM      7  O   ASN A   1     -11.478   8.960 128.278  0.00  0.00    +0.000 OA
ATOM      8  H   ASN A   1     -11.724   8.424 127.490  0.00  0.00    +0.000 HD
ENDBRANCH   5   7
ENDBRANCH   1   5
BRANCH   1   9
ATOM      9  CB  ASN A   1     -12.446   7.114 131.038  0.00  0.00    +0.000 C 
BRANCH   9  10
ATOM     10  CG  ASN A   1     -11.151   6.359 131.284  0.00  0.00    +0.000 C 
ATOM     11  ND2 ASN A   1     -11.200   4.999 131.395  0.00  0.00    +0.000 N 
ATOM     12  OD1 ASN A   1     -10.066   6.932 131.331  0.00  0.00    +0.000 OA
ATOM     13 HD21 ASN A   1     -12.036   4.482 131.632  0.00  0.00    +0.000 HD
ATOM     14 HD22 ASN A   1     -10.322   4.532 131.589  0.00  0.00    +0.000 HD
ENDBRANCH   9  10
ENDBRANCH   1   9
TORSDOF 5
ENDMDL
MODEL 8
REMARK VINA RESULT:      -4.1      3.279      3.878
REMARK  Name = Asparagine
REMARK  5 active torsions:
REMARK  status: ('A' for Active; 'I' for Inactive)
REMARK    1  A    between atoms: N_1  and  CA_2
REMARK    2  A    between atoms: CA_2  and  CB_3
REMARK    3  A    between atoms: CA_2  and  C_7
REMARK    4  A    between atoms: CB_3  and  CG_4
REMARK    5  A    between atoms: C_7  and  O_8
REMARK                            x       y       z     vdW  Elec       q    Type
REMARK                         _______ _______ _______ _____ _____    ______ ____
ROOT
ATOM      1  CA  ASN A   1     -11.550   6.959 130.203  0.00  0.00    +0.000 C 
ENDROOT
BRANCH   1   2
ATOM      2  N   ASN A   1     -11.894   6.063 129.053  0.00  0.00    +0.000 NA
ATOM      3  H1  ASN A   1     -11.033   5.569 128.781  0.00  0.00    +0.000 HD
ATOM      4  H2  ASN A   1     -12.046   6.646 128.223  0.00  0.00    +0.000 HD
ENDBRANCH   1   2
BRANCH   1   5
ATOM      5  C   ASN A   1     -11.157   6.105 131.417  0.00  0.00    +0.000 C 
ATOM      6  OXT ASN A   1     -10.772   6.565 132.486  0.00  0.00    +0.000 OA
BRANCH   5   7
ATOM      7  O   ASN A   1     -11.271   4.773 131.193  0.00  0.00    +0.000 OA
ATOM      8  H   ASN A   1     -10.963   4.578 130.279  0.00  0.00    +0.000 HD
ENDBRANCH   5   7
ENDBRANCH   1   5
BRANCH   1   9
ATOM      9  CB  ASN A   1     -12.710   7.889 130.555  0.00  0.00    +0.000 C 
BRANCH   9  10
ATOM     10  CG  ASN A   1     -12.763   9.188 129.770  0.00  0.00    +0.000 C 
ATOM     11  ND2 ASN A   1     -12.377   9.174 128.461  0.00  0.00    +0.000 N 
ATOM     12  OD1 ASN A   1     -13.192  10.227 130.264  0.00  0.00    +0.000 OA
ATOM     13 HD21 ASN A   1     -11.778   8.466 128.056  0.00  0.00    +0.000 HD
ATOM     14 HD22 ASN A   1     -12.396  10.065 127.977  0.00  0.00    +0.000 HD
ENDBRANCH   9  10
ENDBRANCH   1   9
TORSDOF 5
ENDMDL
MODEL 9
REMARK VINA RESULT:      -4.1      3.527      4.256
REMARK  Name = Asparagine
REMARK  5 active torsions:
REMARK  status: ('A' for Active; 'I' for Inactive)
REMARK    1  A    between atoms: N_1  and  CA_2
REMARK    2  A    between atoms: CA_2  and  CB_3
REMARK    3  A    between atoms: CA_2  and  C_7
REMARK    4  A    between atoms: CB_3  and  CG_4
REMARK    5  A    between atoms: C_7  and  O_8
REMARK                            x       y       z     vdW  Elec       q    Type
REMARK                         _______ _______ _______ _____ _____    ______ ____
ROOT
ATOM      1  CA  ASN A   1     -12.301   7.677 130.345  0.00  0.00    +0.000 C 
ENDROOT
BRANCH   1   2
ATOM      2  N   ASN A   1     -13.155   7.324 131.525  0.00  0.00    +0.000 NA
ATOM      3  H1  ASN A   1     -13.582   8.197 131.866  0.00  0.00    +0.000 HD
ATOM      4  H2  ASN A   1     -12.539   7.095 132.312  0.00  0.00    +0.000 HD
ENDBRANCH   1   2
BRANCH   1   5
ATOM      5  C   ASN A   1     -12.898   7.053 129.077  0.00  0.00    +0.000 C 
ATOM      6  OXT ASN A   1     -12.740   5.882 128.746  0.00  0.00    +0.000 OA
BRANCH   5   7
ATOM      7  O   ASN A   1     -13.625   7.929 128.339  0.00  0.00    +0.000 OA
ATOM      8  H   ASN A   1     -14.467   7.494 128.072  0.00  0.00    +0.000 HD
ENDBRANCH   5   7
ENDBRANCH   1   5
BRANCH   1   9
ATOM      9  CB  ASN A   1     -10.858   7.217 130.540  0.00  0.00    +0.000 C 
BRANCH   9  10
ATOM     10  CG  ASN A   1     -10.654   6.146 131.598  0.00  0.00    +0.000 C 
ATOM     11  ND2 ASN A   1     -10.953   4.852 131.282  0.00  0.00    +0.000 N 
ATOM     12  OD1 ASN A   1     -10.181   6.406 132.701  0.00  0.00    +0.000 OA
ATOM     13 HD21 ASN A   1     -11.576   4.584 130.531  0.00  0.00    +0.000 HD
ATOM     14 HD22 ASN A   1     -10.835   4.170 132.021  0.00  0.00    +0.000 HD
ENDBRANCH   9  10
ENDBRANCH   1   9
TORSDOF 5
ENDMDL
