MODEL 1
REMARK VINA RESULT:      -4.4      0.000      0.000
REMARK  Name = Aspartic acid
REMARK  6 active torsions:
REMARK  status: ('A' for Active; 'I' for Inactive)
REMARK    1  A    between atoms: N_1  and  CA_2
REMARK    2  A    between atoms: CA_2  and  CB_3
REMARK    3  A    between atoms: CA_2  and  C_7
REMARK    4  A    between atoms: CB_3  and  CG_4
REMARK    5  A    between atoms: CG_4  and  OD1_5
REMARK    6  A    between atoms: C_7  and  O_8
REMARK                            x       y       z     vdW  Elec       q    Type
REMARK                         _______ _______ _______ _____ _____    ______ ____
ROOT
ATOM      1  CA  ASP A   1     -10.461   7.353 128.746  0.00  0.00    +0.000 C 
ENDROOT
BRANCH   1   2
ATOM      2  N   ASP A   1      -9.675   6.241 128.130  0.00  0.00    +0.000 NA
ATOM      3  H1  ASP A   1      -9.183   6.575 127.294  0.00  0.00    +0.000 HD
ATOM      4  H2  ASP A   1     -10.330   5.570 127.712  0.00  0.00    +0.000 HD
ENDBRANCH   1   2
BRANCH   1   5
ATOM      5  C   ASP A   1     -11.521   6.775 129.699  0.00  0.00    +0.000 C 
ATOM      6  OXT ASP A   1     -11.740   7.210 130.824  0.00  0.00    +0.000 OA
BRANCH   5   7
ATOM      7  O   ASP A   1     -12.205   5.727 129.179  0.00  0.00    +0.000 OA
ATOM      8  H   ASP A   1     -11.846   5.510 128.290  0.00  0.00    +0.000 HD
ENDBRANCH   5   7
ENDBRANCH   1   5
BRANCH   1   9
ATOM      9  CB  ASP A   1     -11.127   8.224 127.687  0.00  0.00    +0.000 C 
BRANCH   9  10
ATOM     10  CG  ASP A   1     -11.294   7.608 126.318  0.00  0.00    +0.000 C 
ATOM     11  OD2 ASP A   1     -10.688   8.034 125.341  0.00  0.00    +0.000 OA
BRANCH  10  12
ATOM     12  OD1 ASP A   1     -12.164   6.587 126.192  0.00  0.00    +0.000 OA
ATOM     13  HD1 ASP A   1     -11.912   5.813 125.657  0.00  0.00    +0.000 HD
ENDBRANCH  10  12
ENDBRANCH   9  10
ENDBRANCH   1   9
TORSDOF 6
ENDMDL
MODEL 2
REMARK VINA RESULT:      -4.3      1.805      1.889
REMARK  Name = Aspartic acid
REMARK  6 active torsions:
REMARK  status: ('A' for Active; 'I' for Inactive)
REMARK    1  A    between atoms: N_1  and  CA_2
REMARK    2  A    between atoms: CA_2  and  CB_3
REMARK    3  A    between atoms: CA_2  and  C_7
REMARK    4  A    between atoms: CB_3  and  CG_4
REMARK    5  A    between atoms: CG_4  and  OD1_5
REMARK    6  A    between atoms: C_7  and  O_8
REMARK                            x       y       z     vdW  Elec       q    Type
REMARK                         _______ _______ _______ _____ _____    ______ ____
ROOT
ATOM      1  CA  ASP A   1     -12.846   7.884 128.275  0.00  0.00    +0.000 C 
ENDROOT
BRANCH   1   2
ATOM      2  N   ASP A   1     -11.965   9.068 128.512  0.00  0.00    +0.000 NA
ATOM      3  H1  ASP A   1     -11.068   8.768 128.912  0.00  0.00    +0.000 HD
ATOM      4  H2  ASP A   1     -12.351   9.612 129.291  0.00  0.00    +0.000 HD
ENDBRANCH   1   2
BRANCH   1   5
ATOM      5  C   ASP A   1     -12.761   6.925 129.475  0.00  0.00    +0.000 C 
ATOM      6  OXT ASP A   1     -13.144   7.208 130.605  0.00  0.00    +0.000 OA
BRANCH   5   7
ATOM      7  O   ASP A   1     -12.221   5.720 129.170  0.00  0.00    +0.000 OA
ATOM      8  H   ASP A   1     -11.250   5.819 129.047  0.00  0.00    +0.000 HD
ENDBRANCH   5   7
ENDBRANCH   1   5
BRANCH   1   9
ATOM      9  CB  ASP A   1     -12.470   7.152 126.992  0.00  0.00    +0.000 C 
BRANCH   9  10
ATOM     10  CG  ASP A   1     -11.065   7.369 126.482  0.00  0.00    +0.000 C 
ATOM     11  OD2 ASP A   1     -10.835   8.068 125.502  0.00  0.00    +0.000 OA
BRANCH  10  12
ATOM     12  OD1 ASP A   1     -10.062   6.735 127.120  0.00  0.00    +0.000 OA
ATOM     13  HD1 ASP A   1      -9.174   7.135 127.123  0.00  0.00    +0.000 HD
ENDBRANCH  10  12
ENDBRANCH   9  10
ENDBRANCH   1   9
TORSDOF 6
ENDMDL
MODEL 3
REMARK VINA RESULT:      -4.2      1.754      2.006
REMARK  Name = Aspartic acid
REMARK  6 active torsions:
REMARK  status: ('A' for Active; 'I' for Inactive)
REMARK    1  A    between atoms: N_1  and  CA_2
REMARK    2  A    between atoms: CA_2  and  CB_3
REMARK    3  A    between atoms: CA_2  and  C_7
REMARK    4  A    between atoms: CB_3  and  CG_4
REMARK    5  A    between atoms: CG_4  and  OD1_5
REMARK    6  A    between atoms: C_7  and  O_8
REMARK                            x       y       z     vdW  Elec       q    Type
REMARK                         _______ _______ _______ _____ _____    ______ ____
ROOT
ATOM      1  CA  ASP A   1     -11.044   7.762 129.144  0.00  0.00    +0.000 C 
ENDROOT
BRANCH   1   2
ATOM      2  N   ASP A   1     -11.363   6.303 129.207  0.00  0.00    +0.000 NA
ATOM      3  H1  ASP A   1     -12.355   6.166 129.432  0.00  0.00    +0.000 HD
ATOM      4  H2  ASP A   1     -10.919   5.907 130.044  0.00  0.00    +0.000 HD
ENDBRANCH   1   2
BRANCH   1   5
ATOM      5  C   ASP A   1     -12.265   8.581 129.596  0.00  0.00    +0.000 C 
ATOM      6  OXT ASP A   1     -12.885   8.369 130.633  0.00  0.00    +0.000 OA
BRANCH   5   7
ATOM      7  O   ASP A   1     -12.603   9.573 128.737  0.00  0.00    +0.000 OA
ATOM      8  H   ASP A   1     -13.499   9.399 128.371  0.00  0.00    +0.000 HD
ENDBRANCH   5   7
ENDBRANCH   1   5
BRANCH   1   9
ATOM      9  CB  ASP A   1     -10.621   8.184 127.741  0.00  0.00    +0.000 C 
BRANCH   9  10
ATOM     10  CG  ASP A   1     -10.783   7.151 126.651  0.00  0.00    +0.000 C 
ATOM     11  OD2 ASP A   1     -11.852   6.985 126.074  0.00  0.00    +0.000 OA
BRANCH  10  12
ATOM     12  OD1 ASP A   1      -9.717   6.383 126.352  0.00  0.00    +0.000 OA
ATOM     13  HD1 ASP A   1      -9.855   5.442 126.142  0.00  0.00    +0.000 HD
ENDBRANCH  10  12
ENDBRANCH   9  10
ENDBRANCH   1   9
TORSDOF 6
ENDMDL
MODEL 4
REMARK VINA RESULT:      -4.2      2.004      2.441
REMARK  Name = Aspartic acid
REMARK  6 active torsions:
REMARK  status: ('A' for Active; 'I' for Inactive)
REMARK    1  A    between atoms: N_1  and  CA_2
REMARK    2  A    between atoms: CA_2  and  CB_3
REMARK    3  A    between atoms: CA_2  and  C_7
REMARK    4  A    between atoms: CB_3  and  CG_4
REMARK    5  A    between atoms: CG_4  and  OD1_5
REMARK    6  A    between atoms: C_7  and  O_8
REMARK                            x       y       z     vdW  Elec       q    Type
REMARK                         _______ _______ _______ _____ _____    ______ ____
ROOT
ATOM      1  CA  ASP A   1     -11.380   6.410 129.920  0.00  0.00    +0.000 C 
ENDROOT
BRANCH   1   2
ATOM      2  N   ASP A   1     -12.387   6.017 128.888  0.00  0.00    +0.000 NA
ATOM      3  H1  ASP A   1     -13.338   6.158 129.249  0.00  0.00    +0.000 HD
ATOM      4  H2  ASP A   1     -12.370   4.996 128.786  0.00  0.00    +0.000 HD
ENDBRANCH   1   2
BRANCH   1   5
ATOM      5  C   ASP A   1     -12.081   6.639 131.270  0.00  0.00    +0.000 C 
ATOM      6  OXT ASP A   1     -13.076   7.341 131.414  0.00  0.00    +0.000 OA
BRANCH   5   7
ATOM      7  O   ASP A   1     -11.495   5.988 132.304  0.00  0.00    +0.000 OA
ATOM      8  H   ASP A   1     -11.259   5.075 132.024  0.00  0.00    +0.000 HD
ENDBRANCH   5   7
ENDBRANCH   1   5
BRANCH   1   9
ATOM      9  CB  ASP A   1     -10.613   7.661 129.508  0.00  0.00    +0.000 C 
BRANCH   9  10
ATOM     10  CG  ASP A   1     -11.244   8.513 128.432  0.00  0.00    +0.000 C 
ATOM     11  OD2 ASP A   1     -10.813   8.525 127.284  0.00  0.00    +0.000 OA
BRANCH  10  12
ATOM     12  OD1 ASP A   1     -12.285   9.294 128.781  0.00  0.00    +0.000 OA
ATOM     13  HD1 ASP A   1     -13.124   9.210 128.294  0.00  0.00    +0.000 HD
ENDBRANCH  10  12
ENDBRANCH   9  10
ENDBRANCH   1   9
TORSDOF 6
ENDMDL
MODEL 5
REMARK VINA RESULT:      -4.1      1.605      3.697
REMARK  Name = Aspartic acid
REMARK  6 active torsions:
REMARK  status: ('A' for Active; 'I' for Inactive)
REMARK    1  A    between atoms: N_1  and  CA_2
REMARK    2  A    between atoms: CA_2  and  CB_3
REMARK    3  A    between atoms: CA_2  and  C_7
REMARK    4  A    between atoms: CB_3  and  CG_4
REMARK    5  A    between atoms: CG_4  and  OD1_5
REMARK    6  A    between atoms: C_7  and  O_8
REMARK                            x       y       z     vdW  Elec       q    Type
REMARK                         _______ _______ _______ _____ _____    ______ ____
ROOT
ATOM      1  CA  ASP A   1     -10.798   8.392 128.237  0.00  0.00    +0.000 C 
ENDROOT
BRANCH   1   2
ATOM      2  N   ASP A   1     -12.158   9.012 128.232  0.00  0.00    +0.000 NA
ATOM      3  H1  ASP A   1     -12.777   8.505 127.588  0.00  0.00    +0.000 HD
ATOM      4  H2  ASP A   1     -12.100   9.924 127.765  0.00  0.00    +0.000 HD
ENDBRANCH   1   2
BRANCH   1   5
ATOM      5  C   ASP A   1     -10.576   7.615 126.928  0.00  0.00    +0.000 C 
ATOM      6  OXT ASP A   1     -10.965   7.999 125.830  0.00  0.00    +0.000 OA
BRANCH   5   7
ATOM      7  O   ASP A   1      -9.902   6.451 127.094  0.00  0.00    +0.000 OA
ATOM      8  H   ASP A   1      -9.468   6.201 126.249  0.00  0.00    +0.000 HD
ENDBRANCH   5   7
ENDBRANCH   1   5
BRANCH   1   9
ATOM      9  CB  ASP A   1     -10.607   7.467 129.433  0.00  0.00    +0.000 C 
BRANCH   9  10
ATOM     10  CG  ASP A   1     -11.791   6.610 129.816  0.00  0.00    +0.000 C 
ATOM     11  OD2 ASP A   1     -11.946   5.484 129.357  0.00  0.00    +0.000 OA
BRANCH  10  12
ATOM     12  OD1 ASP A   1     -12.700   7.137 130.659  0.00  0.00    +0.000 OA
ATOM     13  HD1 ASP A   1     -12.394   7.685 131.403  0.00  0.00    +0.000 HD
ENDBRANCH  10  12
ENDBRANCH   9  10
ENDBRANCH   1   9
TORSDOF 6
ENDMDL
MODEL 6
REMARK VINA RESULT:      -4.0      1.645      3.736
REMARK  Name = Aspartic acid
REMARK  6 active torsions:
REMARK  status: ('A' for Active; 'I' for Inactive)
REMARK    1  A    between atoms: N_1  and  CA_2
REMARK    2  A    between atoms: CA_2  and  CB_3
REMARK    3  A    between atoms: CA_2  and  C_7
REMARK    4  A    between atoms: CB_3  and  CG_4
REMARK    5  A    between atoms: CG_4  and  OD1_5
REMARK    6  A    between atoms: C_7  and  O_8
REMARK                            x       y       z     vdW  Elec       q    Type
REMARK                         _______ _______ _______ _____ _____    ______ ____
ROOT
ATOM      1  CA  ASP A   1     -10.734   6.731 128.835  0.00  0.00    +0.000 C 
ENDROOT
BRANCH   1   2
ATOM      2  N   ASP A   1      -9.931   7.552 129.791  0.00  0.00    +0.000 NA
ATOM      3  H1  ASP A   1     -10.540   8.209 130.293  0.00  0.00    +0.000 HD
ATOM      4  H2  ASP A   1      -9.347   8.203 129.254  0.00  0.00    +0.000 HD
ENDBRANCH   1   2
BRANCH   1   5
ATOM      5  C   ASP A   1     -10.704   7.380 127.440  0.00  0.00    +0.000 C 
ATOM      6  OXT ASP A   1     -10.538   6.756 126.398  0.00  0.00    +0.000 OA
BRANCH   5   7
ATOM      7  O   ASP A   1     -10.880   8.724 127.463  0.00  0.00    +0.000 OA
ATOM      8  H   ASP A   1     -11.072   9.044 126.553  0.00  0.00    +0.000 HD
ENDBRANCH   5   7
ENDBRANCH   1   5
BRANCH   1   9
ATOM      9  CB  ASP A   1     -12.174   6.569 129.306  0.00  0.00    +0.000 C 
BRANCH   9  10
ATOM     10  CG  ASP A   1     -12.684   7.605 130.279  0.00  0.00    +0.000 C 
ATOM     11  OD2 ASP A   1     -12.644   8.804 130.024  0.00  0.00    +0.000 OA
BRANCH  10  12
ATOM     12  OD1 ASP A   1     -13.156   7.173 131.464  0.00  0.00    +0.000 OA
ATOM     13  HD1 ASP A   1     -12.812   6.342 131.837  0.00  0.00    +0.000 HD
ENDBRANCH  10  12
ENDBRANCH   9  10
ENDBRANCH   1   9
TORSDOF 6
ENDMDL
MODEL 7
REMARK VINA RESULT:      -3.9      1.923      2.715
REMARK  Name = Aspartic acid
REMARK  6 active torsions:
REMARK  status: ('A' for Active; 'I' for Inactive)
REMARK    1  A    between atoms: N_1  and  CA_2
REMARK    2  A    between atoms: CA_2  and  CB_3
REMARK    3  A    between atoms: CA_2  and  C_7
REMARK    4  A    between atoms: CB_3  and  CG_4
REMARK    5  A    between atoms: CG_4  and  OD1_5
REMARK    6  A    between atoms: C_7  and  O_8
REMARK                            x       y       z     vdW  Elec       q    Type
REMARK                         _______ _______ _______ _____ _____    ______ ____
ROOT
ATOM      1  CA  ASP A   1     -10.482   6.077 130.336  0.00  0.00    +0.000 C 
ENDROOT
BRANCH   1   2
ATOM      2  N   ASP A   1     -10.969   4.751 129.847  0.00  0.00    +0.000 NA
ATOM      3  H1  ASP A   1     -11.866   4.861 129.360  0.00  0.00    +0.000 HD
ATOM      4  H2  ASP A   1     -11.257   4.190 130.656  0.00  0.00    +0.000 HD
ENDBRANCH   1   2
BRANCH   1   5
ATOM      5  C   ASP A   1     -10.896   6.274 131.804  0.00  0.00    +0.000 C 
ATOM      6  OXT ASP A   1     -10.101   6.447 132.722  0.00  0.00    +0.000 OA
BRANCH   5   7
ATOM      7  O   ASP A   1     -12.236   6.241 131.999  0.00  0.00    +0.000 OA
ATOM      8  H   ASP A   1     -12.617   5.464 131.532  0.00  0.00    +0.000 HD
ENDBRANCH   5   7
ENDBRANCH   1   5
BRANCH   1   9
ATOM      9  CB  ASP A   1     -11.017   7.221 129.483  0.00  0.00    +0.000 C 
BRANCH   9  10
ATOM     10  CG  ASP A   1     -12.239   6.922 128.647  0.00  0.00    +0.000 C 
ATOM     11  OD2 ASP A   1     -13.364   6.903 129.133  0.00  0.00    +0.000 OA
BRANCH  10  12
ATOM     12  OD1 ASP A   1     -12.052   6.638 127.343  0.00  0.00    +0.000 OA
ATOM     13  HD1 ASP A   1     -12.566   5.917 126.937  0.00  0.00    +0.000 HD
ENDBRANCH  10  12
ENDBRANCH   9  10
ENDBRANCH   1   9
TORSDOF 6
ENDMDL
MODEL 8
REMARK VINA RESULT:      -3.8      2.973      4.970
REMARK  Name = Aspartic acid
REMARK  6 active torsions:
REMARK  status: ('A' for Active; 'I' for Inactive)
REMARK    1  A    between atoms: N_1  and  CA_2
REMARK    2  A    between atoms: CA_2  and  CB_3
REMARK    3  A    between atoms: CA_2  and  C_7
REMARK    4  A    between atoms: CB_3  and  CG_4
REMARK    5  A    between atoms: CG_4  and  OD1_5
REMARK    6  A    between atoms: C_7  and  O_8
REMARK                            x       y       z     vdW  Elec       q    Type
REMARK                         _______ _______ _______ _____ _____    ______ ____
ROOT
ATOM      1  CA  ASP A   1     -11.382   6.744 130.815  0.00  0.00    +0.000 C 
ENDROOT
BRANCH   1   2
ATOM      2  N   ASP A   1     -12.298   6.447 131.959  0.00  0.00    +0.000 NA
ATOM      3  H1  ASP A   1     -13.040   7.154 132.012  0.00  0.00    +0.000 HD
ATOM      4  H2  ASP A   1     -11.796   6.629 132.835  0.00  0.00    +0.000 HD
ENDBRANCH   1   2
BRANCH   1   5
ATOM      5  C   ASP A   1     -11.715   5.822 129.630  0.00  0.00    +0.000 C 
ATOM      6  OXT ASP A   1     -12.095   6.224 128.535  0.00  0.00    +0.000 OA
BRANCH   5   7
ATOM      7  O   ASP A   1     -11.548   4.505 129.902  0.00  0.00    +0.000 OA
ATOM      8  H   ASP A   1     -11.514   3.998 129.061  0.00  0.00    +0.000 HD
ENDBRANCH   5   7
ENDBRANCH   1   5
BRANCH   1   9
ATOM      9  CB  ASP A   1      -9.919   6.581 131.210  0.00  0.00    +0.000 C 
BRANCH   9  10
ATOM     10  CG  ASP A   1      -9.643   5.738 132.433  0.00  0.00    +0.000 C 
ATOM     11  OD2 ASP A   1      -9.599   4.514 132.375  0.00  0.00    +0.000 OA
BRANCH  10  12
ATOM     12  OD1 ASP A   1      -9.479   6.374 133.609  0.00  0.00    +0.000 OA
ATOM     13  HD1 ASP A   1     -10.143   7.028 133.890  0.00  0.00    +0.000 HD
ENDBRANCH  10  12
ENDBRANCH   9  10
ENDBRANCH   1   9
TORSDOF 6
ENDMDL
MODEL 9
REMARK VINA RESULT:      -3.8      2.920      3.400
REMARK  Name = Aspartic acid
REMARK  6 active torsions:
REMARK  status: ('A' for Active; 'I' for Inactive)
REMARK    1  A    between atoms: N_1  and  CA_2
REMARK    2  A    between atoms: CA_2  and  CB_3
REMARK    3  A    between atoms: CA_2  and  C_7
REMARK    4  A    between atoms: CB_3  and  CG_4
REMARK    5  A    between atoms: CG_4  and  OD1_5
REMARK    6  A    between atoms: C_7  and  O_8
REMARK                            x       y       z     vdW  Elec       q    Type
REMARK                         _______ _______ _______ _____ _____    ______ ____
ROOT
ATOM      1  CA  ASP A   1     -11.740   6.618 130.774  0.00  0.00    +0.000 C 
ENDROOT
BRANCH   1   2
ATOM      2  N   ASP A   1     -12.924   7.031 131.587  0.00  0.00    +0.000 NA
ATOM      3  H1  ASP A   1     -13.161   6.298 132.265  0.00  0.00    +0.000 HD
ATOM      4  H2  ASP A   1     -13.756   7.015 130.986  0.00  0.00    +0.000 HD
ENDBRANCH   1   2
BRANCH   1   5
ATOM      5  C   ASP A   1     -10.531   6.386 131.696  0.00  0.00    +0.000 C 
ATOM      6  OXT ASP A   1      -9.410   6.834 131.480  0.00  0.00    +0.000 OA
BRANCH   5   7
ATOM      7  O   ASP A   1     -10.816   5.633 132.786  0.00  0.00    +0.000 OA
ATOM      8  H   ASP A   1      -9.989   5.223 133.126  0.00  0.00    +0.000 HD
ENDBRANCH   5   7
ENDBRANCH   1   5
BRANCH   1   9
ATOM      9  CB  ASP A   1     -11.398   7.658 129.713  0.00  0.00    +0.000 C 
BRANCH   9  10
ATOM     10  CG  ASP A   1     -12.564   8.295 128.995  0.00  0.00    +0.000 C 
ATOM     11  OD2 ASP A   1     -13.536   7.640 128.637  0.00  0.00    +0.000 OA
BRANCH  10  12
ATOM     12  OD1 ASP A   1     -12.489   9.613 128.725  0.00  0.00    +0.000 OA
ATOM     13  HD1 ASP A   1     -12.201   9.900 127.840  0.00  0.00    +0.000 HD
ENDBRANCH  10  12
ENDBRANCH   9  10
ENDBRANCH   1   9
TORSDOF 6
ENDMDL
