MODEL 1
REMARK VINA RESULT:      -9.7      0.000      0.000
REMARK  Name = Astemizole
REMARK  8 active torsions:
REMARK  status: ('A' for Active; 'I' for Inactive)
REMARK    1  A    between atoms: C_1  and  O_2
REMARK    2  A    between atoms: O_2  and  C_3
REMARK    3  A    between atoms: C_6  and  C_7
REMARK    4  A    between atoms: C_7  and  C_8
REMARK    5  A    between atoms: C_8  and  N_9
REMARK    6  A    between atoms: C_12  and  N_15
REMARK    7  A    between atoms: N_24  and  C_25
REMARK    8  A    between atoms: C_25  and  C_26
REMARK                            x       y       z     vdW  Elec       q    Type
REMARK                         _______ _______ _______ _____ _____    ______ ____
ROOT
ATOM      1  N   UNL     1      -9.938   3.531 130.773  0.00  0.00    +0.000 N 
ATOM      2  C   UNL     1     -10.312   4.745 130.310  0.00  0.00    +0.000 A 
ATOM      3  N   UNL     1     -11.539   4.874 129.837  0.00  0.00    +0.000 NA
ATOM      4  C   UNL     1     -11.699   6.177 129.537  0.00  0.00    +0.000 A 
ATOM      5  C   UNL     1     -12.914   6.769 129.148  0.00  0.00    +0.000 A 
ATOM      6  C   UNL     1     -12.939   8.039 128.602  0.00  0.00    +0.000 A 
ATOM      7  C   UNL     1     -11.731   8.701 128.422  0.00  0.00    +0.000 A 
ATOM      8  C   UNL     1     -10.490   8.166 128.923  0.00  0.00    +0.000 A 
ATOM      9  C   UNL     1     -10.501   6.903 129.605  0.00  0.00    +0.000 A 
ATOM     10  N   UNL     1      -9.671   6.021 130.356  0.00  0.00    +0.000 N 
ATOM     11  H   UNL     1     -10.619   2.802 130.572  0.00  0.00    +0.000 HD
ENDROOT
BRANCH   1  15
ATOM     12  N   UNL     1      -8.098   0.363 131.155  0.00  0.00    +0.000 NA
ATOM     13  C   UNL     1      -7.875   1.401 130.185  0.00  0.00    +0.000 C 
ATOM     14  C   UNL     1      -7.664   2.689 130.857  0.00  0.00    +0.000 C 
ATOM     15  C   UNL     1      -8.859   3.133 131.672  0.00  0.00    +0.000 C 
ATOM     16  C   UNL     1      -9.259   1.977 132.616  0.00  0.00    +0.000 C 
ATOM     17  C   UNL     1      -9.354   0.637 131.877  0.00  0.00    +0.000 C 
BRANCH  12  18
ATOM     18  C   UNL     1      -8.160  -0.896 130.420  0.00  0.00    +0.000 C 
BRANCH  18  19
ATOM     19  C   UNL     1      -7.216  -0.952 129.189  0.00  0.00    +0.000 C 
BRANCH  19  23
ATOM     20  C   UNL     1      -9.179  -2.578 125.785  0.00  0.00    +0.000 A 
ATOM     21  C   UNL     1      -8.848  -1.220 125.820  0.00  0.00    +0.000 A 
ATOM     22  C   UNL     1      -8.147  -0.705 126.900  0.00  0.00    +0.000 A 
ATOM     23  C   UNL     1      -7.822  -1.546 127.969  0.00  0.00    +0.000 A 
ATOM     24  C   UNL     1      -8.157  -2.897 127.927  0.00  0.00    +0.000 A 
ATOM     25  C   UNL     1      -8.825  -3.413 126.838  0.00  0.00    +0.000 A 
BRANCH  20  27
ATOM     26  C   UNL     1      -8.959  -2.932 123.478  0.00  0.00    +0.000 C 
ATOM     27  O   UNL     1      -9.774  -3.021 124.640  0.00  0.00    +0.000 OA
ENDBRANCH  20  27
ENDBRANCH  19  23
ENDBRANCH  18  19
ENDBRANCH  12  18
ENDBRANCH   1  15
BRANCH  10  28
ATOM     28  C   UNL     1      -8.855   6.208 131.570  0.00  0.00    +0.000 C 
BRANCH  28  29
ATOM     29  C   UNL     1      -7.412   6.509 131.740  0.00  0.00    +0.000 A 
ATOM     30  C   UNL     1      -6.622   7.089 130.723  0.00  0.00    +0.000 A 
ATOM     31  C   UNL     1      -5.241   7.166 130.882  0.00  0.00    +0.000 A 
ATOM     32  C   UNL     1      -4.669   6.665 132.047  0.00  0.00    +0.000 A 
ATOM     33  F   UNL     1      -3.374   6.885 132.293  0.00  0.00    +0.000 F 
ATOM     34  C   UNL     1      -5.417   5.943 132.967  0.00  0.00    +0.000 A 
ATOM     35  C   UNL     1      -6.781   5.823 132.782  0.00  0.00    +0.000 A 
ENDBRANCH  28  29
ENDBRANCH  10  28
TORSDOF 7
ENDMDL
MODEL 2
REMARK VINA RESULT:      -9.4      4.929      9.456
REMARK  Name = Astemizole
REMARK  8 active torsions:
REMARK  status: ('A' for Active; 'I' for Inactive)
REMARK    1  A    between atoms: C_1  and  O_2
REMARK    2  A    between atoms: O_2  and  C_3
REMARK    3  A    between atoms: C_6  and  C_7
REMARK    4  A    between atoms: C_7  and  C_8
REMARK    5  A    between atoms: C_8  and  N_9
REMARK    6  A    between atoms: C_12  and  N_15
REMARK    7  A    between atoms: N_24  and  C_25
REMARK    8  A    between atoms: C_25  and  C_26
REMARK                            x       y       z     vdW  Elec       q    Type
REMARK                         _______ _______ _______ _____ _____    ______ ____
ROOT
ATOM      1  N   UNL     1      -6.944   2.083 126.783  0.00  0.00    +0.000 N 
ATOM      2  C   UNL     1      -7.369   1.099 125.958  0.00  0.00    +0.000 A 
ATOM      3  N   UNL     1      -7.804  -0.021 126.506  0.00  0.00    +0.000 NA
ATOM      4  C   UNL     1      -8.257  -0.791 125.498  0.00  0.00    +0.000 A 
ATOM      5  C   UNL     1      -8.945  -2.006 125.662  0.00  0.00    +0.000 A 
ATOM      6  C   UNL     1      -9.137  -2.860 124.591  0.00  0.00    +0.000 A 
ATOM      7  C   UNL     1      -8.605  -2.499 123.360  0.00  0.00    +0.000 A 
ATOM      8  C   UNL     1      -8.004  -1.208 123.141  0.00  0.00    +0.000 A 
ATOM      9  C   UNL     1      -7.931  -0.280 124.233  0.00  0.00    +0.000 A 
ATOM     10  N   UNL     1      -7.588   1.068 124.546  0.00  0.00    +0.000 N 
ATOM     11  H   UNL     1      -6.879   1.787 127.754  0.00  0.00    +0.000 HD
ENDROOT
BRANCH   1  15
ATOM     12  N   UNL     1      -6.901   4.939 129.110  0.00  0.00    +0.000 NA
ATOM     13  C   UNL     1      -5.826   4.033 128.803  0.00  0.00    +0.000 C 
ATOM     14  C   UNL     1      -5.580   4.006 127.357  0.00  0.00    +0.000 C 
ATOM     15  C   UNL     1      -6.771   3.516 126.564  0.00  0.00    +0.000 C 
ATOM     16  C   UNL     1      -8.008   4.341 126.987  0.00  0.00    +0.000 C 
ATOM     17  C   UNL     1      -8.148   4.428 128.511  0.00  0.00    +0.000 C 
BRANCH  12  18
ATOM     18  C   UNL     1      -6.990   5.012 130.564  0.00  0.00    +0.000 C 
BRANCH  18  19
ATOM     19  C   UNL     1      -7.421   6.406 131.097  0.00  0.00    +0.000 C 
BRANCH  19  23
ATOM     20  C   UNL     1     -11.581   7.059 130.508  0.00  0.00    +0.000 A 
ATOM     21  C   UNL     1     -11.142   6.260 131.567  0.00  0.00    +0.000 A 
ATOM     22  C   UNL     1      -9.783   6.104 131.800  0.00  0.00    +0.000 A 
ATOM     23  C   UNL     1      -8.867   6.711 130.936  0.00  0.00    +0.000 A 
ATOM     24  C   UNL     1      -9.313   7.504 129.882  0.00  0.00    +0.000 A 
ATOM     25  C   UNL     1     -10.663   7.684 129.673  0.00  0.00    +0.000 A 
BRANCH  20  27
ATOM     26  C   UNL     1     -13.440   7.222 129.089  0.00  0.00    +0.000 C 
ATOM     27  O   UNL     1     -12.930   7.243 130.416  0.00  0.00    +0.000 OA
ENDBRANCH  20  27
ENDBRANCH  19  23
ENDBRANCH  18  19
ENDBRANCH  12  18
ENDBRANCH   1  15
BRANCH  10  28
ATOM     28  C   UNL     1      -8.039   2.365 124.008  0.00  0.00    +0.000 C 
BRANCH  28  29
ATOM     29  C   UNL     1      -7.707   3.067 122.744  0.00  0.00    +0.000 A 
ATOM     30  C   UNL     1      -8.657   3.313 121.729  0.00  0.00    +0.000 A 
ATOM     31  C   UNL     1      -8.236   3.801 120.494  0.00  0.00    +0.000 A 
ATOM     32  C   UNL     1      -6.881   4.035 120.290  0.00  0.00    +0.000 A 
ATOM     33  F   UNL     1      -6.480   4.662 119.180  0.00  0.00    +0.000 F 
ATOM     34  C   UNL     1      -5.930   3.634 121.219  0.00  0.00    +0.000 A 
ATOM     35  C   UNL     1      -6.347   3.101 122.424  0.00  0.00    +0.000 A 
ENDBRANCH  28  29
ENDBRANCH  10  28
TORSDOF 7
ENDMDL
MODEL 3
REMARK VINA RESULT:      -9.3      6.588     10.829
REMARK  Name = Astemizole
REMARK  8 active torsions:
REMARK  status: ('A' for Active; 'I' for Inactive)
REMARK    1  A    between atoms: C_1  and  O_2
REMARK    2  A    between atoms: O_2  and  C_3
REMARK    3  A    between atoms: C_6  and  C_7
REMARK    4  A    between atoms: C_7  and  C_8
REMARK    5  A    between atoms: C_8  and  N_9
REMARK    6  A    between atoms: C_12  and  N_15
REMARK    7  A    between atoms: N_24  and  C_25
REMARK    8  A    between atoms: C_25  and  C_26
REMARK                            x       y       z     vdW  Elec       q    Type
REMARK                         _______ _______ _______ _____ _____    ______ ____
ROOT
ATOM      1  N   UNL     1      -4.873   3.973 125.024  0.00  0.00    +0.000 N 
ATOM      2  C   UNL     1      -5.685   3.845 123.950  0.00  0.00    +0.000 A 
ATOM      3  N   UNL     1      -5.304   4.409 122.818  0.00  0.00    +0.000 NA
ATOM      4  C   UNL     1      -6.216   4.061 121.891  0.00  0.00    +0.000 A 
ATOM      5  C   UNL     1      -6.103   4.325 120.514  0.00  0.00    +0.000 A 
ATOM      6  C   UNL     1      -7.192   4.178 119.674  0.00  0.00    +0.000 A 
ATOM      7  C   UNL     1      -8.404   3.791 120.231  0.00  0.00    +0.000 A 
ATOM      8  C   UNL     1      -8.513   3.399 121.614  0.00  0.00    +0.000 A 
ATOM      9  C   UNL     1      -7.342   3.433 122.441  0.00  0.00    +0.000 A 
ATOM     10  N   UNL     1      -6.865   3.069 123.735  0.00  0.00    +0.000 N 
ATOM     11  H   UNL     1      -4.106   4.623 124.867  0.00  0.00    +0.000 HD
ENDROOT
BRANCH   1  15
ATOM     12  N   UNL     1      -3.132   4.622 128.205  0.00  0.00    +0.000 NA
ATOM     13  C   UNL     1      -4.404   5.138 127.773  0.00  0.00    +0.000 C 
ATOM     14  C   UNL     1      -5.303   4.037 127.411  0.00  0.00    +0.000 C 
ATOM     15  C   UNL     1      -4.784   3.203 126.261  0.00  0.00    +0.000 C 
ATOM     16  C   UNL     1      -3.339   2.765 126.593  0.00  0.00    +0.000 C 
ATOM     17  C   UNL     1      -2.478   3.939 127.073  0.00  0.00    +0.000 C 
BRANCH  12  18
ATOM     18  C   UNL     1      -2.350   5.762 128.674  0.00  0.00    +0.000 C 
BRANCH  18  19
ATOM     19  C   UNL     1      -3.153   6.750 129.562  0.00  0.00    +0.000 C 
BRANCH  19  23
ATOM     20  C   UNL     1      -1.297   7.722 133.262  0.00  0.00    +0.000 A 
ATOM     21  C   UNL     1      -2.471   8.374 132.877  0.00  0.00    +0.000 A 
ATOM     22  C   UNL     1      -3.114   8.008 131.703  0.00  0.00    +0.000 A 
ATOM     23  C   UNL     1      -2.546   7.021 130.892  0.00  0.00    +0.000 A 
ATOM     24  C   UNL     1      -1.374   6.378 131.283  0.00  0.00    +0.000 A 
ATOM     25  C   UNL     1      -0.756   6.720 132.465  0.00  0.00    +0.000 A 
BRANCH  20  27
ATOM     26  C   UNL     1       0.515   7.569 134.744  0.00  0.00    +0.000 C 
ATOM     27  O   UNL     1      -0.790   8.071 134.480  0.00  0.00    +0.000 OA
ENDBRANCH  20  27
ENDBRANCH  19  23
ENDBRANCH  18  19
ENDBRANCH  12  18
ENDBRANCH   1  15
BRANCH  10  28
ATOM     28  C   UNL     1      -6.853   1.793 124.474  0.00  0.00    +0.000 C 
BRANCH  28  29
ATOM     29  C   UNL     1      -7.472   0.480 124.166  0.00  0.00    +0.000 A 
ATOM     30  C   UNL     1      -8.388  -0.160 125.029  0.00  0.00    +0.000 A 
ATOM     31  C   UNL     1      -8.778  -1.472 124.769  0.00  0.00    +0.000 A 
ATOM     32  C   UNL     1      -8.251  -2.123 123.660  0.00  0.00    +0.000 A 
ATOM     33  F   UNL     1      -8.742  -3.313 123.299  0.00  0.00    +0.000 F 
ATOM     34  C   UNL     1      -7.225  -1.562 122.911  0.00  0.00    +0.000 A 
ATOM     35  C   UNL     1      -6.802  -0.279 123.202  0.00  0.00    +0.000 A 
ENDBRANCH  28  29
ENDBRANCH  10  28
TORSDOF 7
ENDMDL
MODEL 4
REMARK VINA RESULT:      -9.2      5.874     10.477
REMARK  Name = Astemizole
REMARK  8 active torsions:
REMARK  status: ('A' for Active; 'I' for Inactive)
REMARK    1  A    between atoms: C_1  and  O_2
REMARK    2  A    between atoms: O_2  and  C_3
REMARK    3  A    between atoms: C_6  and  C_7
REMARK    4  A    between atoms: C_7  and  C_8
REMARK    5  A    between atoms: C_8  and  N_9
REMARK    6  A    between atoms: C_12  and  N_15
REMARK    7  A    between atoms: N_24  and  C_25
REMARK    8  A    between atoms: C_25  and  C_26
REMARK                            x       y       z     vdW  Elec       q    Type
REMARK                         _______ _______ _______ _____ _____    ______ ____
ROOT
ATOM      1  N   UNL     1      -6.357   2.127 125.968  0.00  0.00    +0.000 N 
ATOM      2  C   UNL     1      -6.946   1.101 125.313  0.00  0.00    +0.000 A 
ATOM      3  N   UNL     1      -7.254   0.021 126.008  0.00  0.00    +0.000 NA
ATOM      4  C   UNL     1      -7.909  -0.801 125.167  0.00  0.00    +0.000 A 
ATOM      5  C   UNL     1      -8.546  -1.997 125.546  0.00  0.00    +0.000 A 
ATOM      6  C   UNL     1      -8.960  -2.910 124.594  0.00  0.00    +0.000 A 
ATOM      7  C   UNL     1      -8.702  -2.629 123.258  0.00  0.00    +0.000 A 
ATOM      8  C   UNL     1      -8.163  -1.360 122.839  0.00  0.00    +0.000 A 
ATOM      9  C   UNL     1      -7.861  -0.370 123.833  0.00  0.00    +0.000 A 
ATOM     10  N   UNL     1      -7.460   0.990 123.985  0.00  0.00    +0.000 N 
ATOM     11  H   UNL     1      -6.086   1.888 126.919  0.00  0.00    +0.000 HD
ENDROOT
BRANCH   1  15
ATOM     12  N   UNL     1      -4.047   4.746 127.144  0.00  0.00    +0.000 NA
ATOM     13  C   UNL     1      -3.810   3.747 126.135  0.00  0.00    +0.000 C 
ATOM     14  C   UNL     1      -4.846   3.815 125.098  0.00  0.00    +0.000 C 
ATOM     15  C   UNL     1      -6.236   3.543 125.631  0.00  0.00    +0.000 C 
ATOM     16  C   UNL     1      -6.481   4.471 126.843  0.00  0.00    +0.000 C 
ATOM     17  C   UNL     1      -5.314   4.442 127.836  0.00  0.00    +0.000 C 
BRANCH  12  18
ATOM     18  C   UNL     1      -2.909   4.704 128.056  0.00  0.00    +0.000 C 
BRANCH  18  19
ATOM     19  C   UNL     1      -2.289   6.097 128.350  0.00  0.00    +0.000 C 
BRANCH  19  23
ATOM     20  C   UNL     1      -2.918   7.246 132.395  0.00  0.00    +0.000 A 
ATOM     21  C   UNL     1      -1.689   6.707 132.005  0.00  0.00    +0.000 A 
ATOM     22  C   UNL     1      -1.461   6.396 130.672  0.00  0.00    +0.000 A 
ATOM     23  C   UNL     1      -2.488   6.582 129.741  0.00  0.00    +0.000 A 
ATOM     24  C   UNL     1      -3.710   7.118 130.139  0.00  0.00    +0.000 A 
ATOM     25  C   UNL     1      -3.922   7.456 131.457  0.00  0.00    +0.000 A 
BRANCH  20  27
ATOM     26  C   UNL     1      -3.362   6.565 134.595  0.00  0.00    +0.000 C 
ATOM     27  O   UNL     1      -3.020   7.620 133.704  0.00  0.00    +0.000 OA
ENDBRANCH  20  27
ENDBRANCH  19  23
ENDBRANCH  18  19
ENDBRANCH  12  18
ENDBRANCH   1  15
BRANCH  10  28
ATOM     28  C   UNL     1      -8.017   2.258 123.478  0.00  0.00    +0.000 C 
BRANCH  28  29
ATOM     29  C   UNL     1      -7.692   3.052 122.267  0.00  0.00    +0.000 A 
ATOM     30  C   UNL     1      -8.664   3.436 121.316  0.00  0.00    +0.000 A 
ATOM     31  C   UNL     1      -8.261   4.011 120.113  0.00  0.00    +0.000 A 
ATOM     32  C   UNL     1      -6.903   4.192 119.876  0.00  0.00    +0.000 A 
ATOM     33  F   UNL     1      -6.509   4.896 118.810  0.00  0.00    +0.000 F 
ATOM     34  C   UNL     1      -5.943   3.662 120.727  0.00  0.00    +0.000 A 
ATOM     35  C   UNL     1      -6.345   3.046 121.897  0.00  0.00    +0.000 A 
ENDBRANCH  28  29
ENDBRANCH  10  28
TORSDOF 7
ENDMDL
MODEL 5
REMARK VINA RESULT:      -9.2      3.968      9.916
REMARK  Name = Astemizole
REMARK  8 active torsions:
REMARK  status: ('A' for Active; 'I' for Inactive)
REMARK    1  A    between atoms: C_1  and  O_2
REMARK    2  A    between atoms: O_2  and  C_3
REMARK    3  A    between atoms: C_6  and  C_7
REMARK    4  A    between atoms: C_7  and  C_8
REMARK    5  A    between atoms: C_8  and  N_9
REMARK    6  A    between atoms: C_12  and  N_15
REMARK    7  A    between atoms: N_24  and  C_25
REMARK    8  A    between atoms: C_25  and  C_26
REMARK                            x       y       z     vdW  Elec       q    Type
REMARK                         _______ _______ _______ _____ _____    ______ ____
ROOT
ATOM      1  N   UNL     1      -7.065   0.256 132.119  0.00  0.00    +0.000 N 
ATOM      2  C   UNL     1      -6.711  -1.049 132.083  0.00  0.00    +0.000 A 
ATOM      3  N   UNL     1      -6.461  -1.652 133.232  0.00  0.00    +0.000 NA
ATOM      4  C   UNL     1      -6.234  -2.947 132.943  0.00  0.00    +0.000 A 
ATOM      5  C   UNL     1      -6.079  -3.968 133.898  0.00  0.00    +0.000 A 
ATOM      6  C   UNL     1      -5.586  -5.208 133.534  0.00  0.00    +0.000 A 
ATOM      7  C   UNL     1      -5.221  -5.406 132.209  0.00  0.00    +0.000 A 
ATOM      8  C   UNL     1      -5.483  -4.419 131.193  0.00  0.00    +0.000 A 
ATOM      9  C   UNL     1      -6.117  -3.187 131.567  0.00  0.00    +0.000 A 
ATOM     10  N   UNL     1      -6.686  -2.001 131.018  0.00  0.00    +0.000 N 
ATOM     11  H   UNL     1      -6.962   0.670 133.042  0.00  0.00    +0.000 HD
ENDROOT
BRANCH   1  15
ATOM     12  N   UNL     1      -8.811   3.483 132.442  0.00  0.00    +0.000 NA
ATOM     13  C   UNL     1      -7.396   3.253 132.320  0.00  0.00    +0.000 C 
ATOM     14  C   UNL     1      -7.111   2.465 131.116  0.00  0.00    +0.000 C 
ATOM     15  C   UNL     1      -7.752   1.094 131.141  0.00  0.00    +0.000 C 
ATOM     16  C   UNL     1      -9.256   1.268 131.450  0.00  0.00    +0.000 C 
ATOM     17  C   UNL     1      -9.494   2.193 132.649  0.00  0.00    +0.000 C 
BRANCH  12  18
ATOM     18  C   UNL     1      -8.997   4.382 133.577  0.00  0.00    +0.000 C 
BRANCH  18  19
ATOM     19  C   UNL     1      -8.841   5.885 133.219  0.00  0.00    +0.000 C 
BRANCH  19  23
ATOM     20  C   UNL     1     -11.041   7.376 129.900  0.00  0.00    +0.000 A 
ATOM     21  C   UNL     1      -9.644   7.378 129.871  0.00  0.00    +0.000 A 
ATOM     22  C   UNL     1      -8.928   6.829 130.924  0.00  0.00    +0.000 A 
ATOM     23  C   UNL     1      -9.618   6.323 132.030  0.00  0.00    +0.000 A 
ATOM     24  C   UNL     1     -11.010   6.326 132.052  0.00  0.00    +0.000 A 
ATOM     25  C   UNL     1     -11.719   6.842 130.990  0.00  0.00    +0.000 A 
BRANCH  20  27
ATOM     26  C   UNL     1     -10.788   8.364 127.788  0.00  0.00    +0.000 C 
ATOM     27  O   UNL     1     -11.665   7.839 128.778  0.00  0.00    +0.000 OA
ENDBRANCH  20  27
ENDBRANCH  19  23
ENDBRANCH  18  19
ENDBRANCH  12  18
ENDBRANCH   1  15
BRANCH  10  28
ATOM     28  C   UNL     1      -7.747  -1.770 130.019  0.00  0.00    +0.000 C 
BRANCH  28  29
ATOM     29  C   UNL     1      -7.928  -2.302 128.646  0.00  0.00    +0.000 A 
ATOM     30  C   UNL     1      -7.808  -1.502 127.489  0.00  0.00    +0.000 A 
ATOM     31  C   UNL     1      -8.179  -2.021 126.251  0.00  0.00    +0.000 A 
ATOM     32  C   UNL     1      -8.663  -3.322 126.185  0.00  0.00    +0.000 A 
ATOM     33  F   UNL     1      -8.859  -3.893 124.992  0.00  0.00    +0.000 F 
ATOM     34  C   UNL     1      -8.944  -4.049 127.334  0.00  0.00    +0.000 A 
ATOM     35  C   UNL     1      -8.622  -3.512 128.566  0.00  0.00    +0.000 A 
ENDBRANCH  28  29
ENDBRANCH  10  28
TORSDOF 7
ENDMDL
MODEL 6
REMARK VINA RESULT:      -9.1      5.439      9.566
REMARK  Name = Astemizole
REMARK  8 active torsions:
REMARK  status: ('A' for Active; 'I' for Inactive)
REMARK    1  A    between atoms: C_1  and  O_2
REMARK    2  A    between atoms: O_2  and  C_3
REMARK    3  A    between atoms: C_6  and  C_7
REMARK    4  A    between atoms: C_7  and  C_8
REMARK    5  A    between atoms: C_8  and  N_9
REMARK    6  A    between atoms: C_12  and  N_15
REMARK    7  A    between atoms: N_24  and  C_25
REMARK    8  A    between atoms: C_25  and  C_26
REMARK                            x       y       z     vdW  Elec       q    Type
REMARK                         _______ _______ _______ _____ _____    ______ ____
ROOT
ATOM      1  N   UNL     1      -5.964   3.710 126.310  0.00  0.00    +0.000 N 
ATOM      2  C   UNL     1      -6.089   3.658 124.964  0.00  0.00    +0.000 A 
ATOM      3  N   UNL     1      -5.317   4.450 124.242  0.00  0.00    +0.000 NA
ATOM      4  C   UNL     1      -5.555   4.145 122.953  0.00  0.00    +0.000 A 
ATOM      5  C   UNL     1      -4.827   4.650 121.860  0.00  0.00    +0.000 A 
ATOM      6  C   UNL     1      -5.299   4.503 120.568  0.00  0.00    +0.000 A 
ATOM      7  C   UNL     1      -6.521   3.871 120.383  0.00  0.00    +0.000 A 
ATOM      8  C   UNL     1      -7.223   3.240 121.472  0.00  0.00    +0.000 A 
ATOM      9  C   UNL     1      -6.654   3.289 122.788  0.00  0.00    +0.000 A 
ATOM     10  N   UNL     1      -6.822   2.780 124.109  0.00  0.00    +0.000 N 
ATOM     11  H   UNL     1      -5.369   4.472 126.625  0.00  0.00    +0.000 HD
ENDROOT
BRANCH   1  15
ATOM     12  N   UNL     1      -7.153   4.195 129.763  0.00  0.00    +0.000 NA
ATOM     13  C   UNL     1      -7.917   4.274 128.546  0.00  0.00    +0.000 C 
ATOM     14  C   UNL     1      -7.776   3.034 127.775  0.00  0.00    +0.000 C 
ATOM     15  C   UNL     1      -6.350   2.761 127.350  0.00  0.00    +0.000 C 
ATOM     16  C   UNL     1      -5.447   2.842 128.602  0.00  0.00    +0.000 C 
ATOM     17  C   UNL     1      -5.720   4.105 129.428  0.00  0.00    +0.000 C 
BRANCH  12  18
ATOM     18  C   UNL     1      -7.454   5.399 130.530  0.00  0.00    +0.000 C 
BRANCH  18  19
ATOM     19  C   UNL     1      -8.765   5.305 131.358  0.00  0.00    +0.000 C 
BRANCH  19  23
ATOM     20  C   UNL     1     -11.910   7.840 130.032  0.00  0.00    +0.000 A 
ATOM     21  C   UNL     1     -12.115   6.980 131.114  0.00  0.00    +0.000 A 
ATOM     22  C   UNL     1     -11.068   6.203 131.590  0.00  0.00    +0.000 A 
ATOM     23  C   UNL     1      -9.829   6.256 130.944  0.00  0.00    +0.000 A 
ATOM     24  C   UNL     1      -9.634   7.115 129.865  0.00  0.00    +0.000 A 
ATOM     25  C   UNL     1     -10.666   7.909 129.416  0.00  0.00    +0.000 A 
BRANCH  20  27
ATOM     26  C   UNL     1     -13.380   8.536 128.343  0.00  0.00    +0.000 C 
ATOM     27  O   UNL     1     -12.962   8.643 129.698  0.00  0.00    +0.000 OA
ENDBRANCH  20  27
ENDBRANCH  19  23
ENDBRANCH  18  19
ENDBRANCH  12  18
ENDBRANCH   1  15
BRANCH  10  28
ATOM     28  C   UNL     1      -6.924   1.410 124.647  0.00  0.00    +0.000 C 
BRANCH  28  29
ATOM     29  C   UNL     1      -7.536   0.182 124.082  0.00  0.00    +0.000 A 
ATOM     30  C   UNL     1      -8.659   0.206 123.226  0.00  0.00    +0.000 A 
ATOM     31  C   UNL     1      -9.296  -0.987 122.891  0.00  0.00    +0.000 A 
ATOM     32  C   UNL     1      -8.807  -2.179 123.411  0.00  0.00    +0.000 A 
ATOM     33  F   UNL     1      -9.294  -3.342 122.966  0.00  0.00    +0.000 F 
ATOM     34  C   UNL     1      -7.816  -2.192 124.384  0.00  0.00    +0.000 A 
ATOM     35  C   UNL     1      -7.220  -1.001 124.755  0.00  0.00    +0.000 A 
ENDBRANCH  28  29
ENDBRANCH  10  28
TORSDOF 7
ENDMDL
MODEL 7
REMARK VINA RESULT:      -9.0      4.074     10.010
REMARK  Name = Astemizole
REMARK  8 active torsions:
REMARK  status: ('A' for Active; 'I' for Inactive)
REMARK    1  A    between atoms: C_1  and  O_2
REMARK    2  A    between atoms: O_2  and  C_3
REMARK    3  A    between atoms: C_6  and  C_7
REMARK    4  A    between atoms: C_7  and  C_8
REMARK    5  A    between atoms: C_8  and  N_9
REMARK    6  A    between atoms: C_12  and  N_15
REMARK    7  A    between atoms: N_24  and  C_25
REMARK    8  A    between atoms: C_25  and  C_26
REMARK                            x       y       z     vdW  Elec       q    Type
REMARK                         _______ _______ _______ _____ _____    ______ ____
ROOT
ATOM      1  N   UNL     1      -7.334   0.745 131.745  0.00  0.00    +0.000 N 
ATOM      2  C   UNL     1      -7.067  -0.529 132.114  0.00  0.00    +0.000 A 
ATOM      3  N   UNL     1      -7.699  -1.011 133.168  0.00  0.00    +0.000 NA
ATOM      4  C   UNL     1      -7.345  -2.306 133.268  0.00  0.00    +0.000 A 
ATOM      5  C   UNL     1      -7.913  -3.228 134.167  0.00  0.00    +0.000 A 
ATOM      6  C   UNL     1      -7.315  -4.454 134.392  0.00  0.00    +0.000 A 
ATOM      7  C   UNL     1      -6.127  -4.738 133.732  0.00  0.00    +0.000 A 
ATOM      8  C   UNL     1      -5.593  -3.863 132.719  0.00  0.00    +0.000 A 
ATOM      9  C   UNL     1      -6.297  -2.654 132.403  0.00  0.00    +0.000 A 
ATOM     10  N   UNL     1      -6.309  -1.563 131.484  0.00  0.00    +0.000 N 
ATOM     11  H   UNL     1      -7.904   1.243 132.424  0.00  0.00    +0.000 HD
ENDROOT
BRANCH   1  15
ATOM     12  N   UNL     1      -8.555   3.992 130.506  0.00  0.00    +0.000 NA
ATOM     13  C   UNL     1      -7.435   3.743 131.375  0.00  0.00    +0.000 C 
ATOM     14  C   UNL     1      -6.506   2.796 130.748  0.00  0.00    +0.000 C 
ATOM     15  C   UNL     1      -7.130   1.444 130.480  0.00  0.00    +0.000 C 
ATOM     16  C   UNL     1      -8.444   1.664 129.697  0.00  0.00    +0.000 C 
ATOM     17  C   UNL     1      -9.323   2.745 130.338  0.00  0.00    +0.000 C 
BRANCH  12  18
ATOM     18  C   UNL     1      -9.354   5.038 131.136  0.00  0.00    +0.000 C 
BRANCH  18  19
ATOM     19  C   UNL     1     -10.838   5.057 130.678  0.00  0.00    +0.000 C 
BRANCH  19  23
ATOM     20  C   UNL     1     -12.488   8.765 129.412  0.00  0.00    +0.000 A 
ATOM     21  C   UNL     1     -12.863   8.216 130.642  0.00  0.00    +0.000 A 
ATOM     22  C   UNL     1     -12.273   7.042 131.085  0.00  0.00    +0.000 A 
ATOM     23  C   UNL     1     -11.342   6.393 130.267  0.00  0.00    +0.000 A 
ATOM     24  C   UNL     1     -10.976   6.946 129.043  0.00  0.00    +0.000 A 
ATOM     25  C   UNL     1     -11.540   8.130 128.620  0.00  0.00    +0.000 A 
BRANCH  20  27
ATOM     26  C   UNL     1     -13.402  10.765 130.229  0.00  0.00    +0.000 C 
ATOM     27  O   UNL     1     -13.040   9.974 129.103  0.00  0.00    +0.000 OA
ENDBRANCH  20  27
ENDBRANCH  19  23
ENDBRANCH  18  19
ENDBRANCH  12  18
ENDBRANCH   1  15
BRANCH  10  28
ATOM     28  C   UNL     1      -6.361  -1.497 130.012  0.00  0.00    +0.000 C 
BRANCH  28  29
ATOM     29  C   UNL     1      -7.353  -2.031 129.045  0.00  0.00    +0.000 A 
ATOM     30  C   UNL     1      -7.956  -3.300 129.184  0.00  0.00    +0.000 A 
ATOM     31  C   UNL     1      -8.726  -3.814 128.144  0.00  0.00    +0.000 A 
ATOM     32  C   UNL     1      -8.882  -3.061 126.986  0.00  0.00    +0.000 A 
ATOM     33  F   UNL     1      -9.754  -3.458 126.054  0.00  0.00    +0.000 F 
ATOM     34  C   UNL     1      -8.155  -1.897 126.777  0.00  0.00    +0.000 A 
ATOM     35  C   UNL     1      -7.350  -1.413 127.791  0.00  0.00    +0.000 A 
ENDBRANCH  28  29
ENDBRANCH  10  28
TORSDOF 7
ENDMDL
MODEL 8
REMARK VINA RESULT:      -8.9      3.788      9.410
REMARK  Name = Astemizole
REMARK  8 active torsions:
REMARK  status: ('A' for Active; 'I' for Inactive)
REMARK    1  A    between atoms: C_1  and  O_2
REMARK    2  A    between atoms: O_2  and  C_3
REMARK    3  A    between atoms: C_6  and  C_7
REMARK    4  A    between atoms: C_7  and  C_8
REMARK    5  A    between atoms: C_8  and  N_9
REMARK    6  A    between atoms: C_12  and  N_15
REMARK    7  A    between atoms: N_24  and  C_25
REMARK    8  A    between atoms: C_25  and  C_26
REMARK                            x       y       z     vdW  Elec       q    Type
REMARK                         _______ _______ _______ _____ _____    ______ ____
ROOT
ATOM      1  N   UNL     1      -7.011   0.579 129.133  0.00  0.00    +0.000 N 
ATOM      2  C   UNL     1      -7.250  -0.440 128.276  0.00  0.00    +0.000 A 
ATOM      3  N   UNL     1      -6.573  -0.462 127.141  0.00  0.00    +0.000 NA
ATOM      4  C   UNL     1      -6.910  -1.607 126.517  0.00  0.00    +0.000 A 
ATOM      5  C   UNL     1      -6.299  -2.095 125.348  0.00  0.00    +0.000 A 
ATOM      6  C   UNL     1      -6.874  -3.126 124.627  0.00  0.00    +0.000 A 
ATOM      7  C   UNL     1      -8.082  -3.645 125.073  0.00  0.00    +0.000 A 
ATOM      8  C   UNL     1      -8.663  -3.246 126.330  0.00  0.00    +0.000 A 
ATOM      9  C   UNL     1      -7.984  -2.268 127.131  0.00  0.00    +0.000 A 
ATOM     10  N   UNL     1      -8.019  -1.636 128.409  0.00  0.00    +0.000 N 
ATOM     11  H   UNL     1      -6.421   1.304 128.733  0.00  0.00    +0.000 HD
ENDROOT
BRANCH   1  15
ATOM     12  N   UNL     1      -7.763   3.513 131.229  0.00  0.00    +0.000 NA
ATOM     13  C   UNL     1      -8.671   2.760 130.406  0.00  0.00    +0.000 C 
ATOM     14  C   UNL     1      -8.630   1.339 130.772  0.00  0.00    +0.000 C 
ATOM     15  C   UNL     1      -7.269   0.714 130.563  0.00  0.00    +0.000 C 
ATOM     16  C   UNL     1      -6.218   1.590 131.282  0.00  0.00    +0.000 C 
ATOM     17  C   UNL     1      -6.382   3.077 130.949  0.00  0.00    +0.000 C 
BRANCH  12  18
ATOM     18  C   UNL     1      -7.963   4.921 130.900  0.00  0.00    +0.000 C 
BRANCH  18  19
ATOM     19  C   UNL     1      -8.923   5.662 131.870  0.00  0.00    +0.000 C 
BRANCH  19  23
ATOM     20  C   UNL     1     -11.988   7.793 129.833  0.00  0.00    +0.000 A 
ATOM     21  C   UNL     1     -12.288   7.074 130.994  0.00  0.00    +0.000 A 
ATOM     22  C   UNL     1     -11.276   6.436 131.696  0.00  0.00    +0.000 A 
ATOM     23  C   UNL     1      -9.968   6.480 131.201  0.00  0.00    +0.000 A 
ATOM     24  C   UNL     1      -9.678   7.196 130.043  0.00  0.00    +0.000 A 
ATOM     25  C   UNL     1     -10.680   7.856 129.366  0.00  0.00    +0.000 A 
BRANCH  20  27
ATOM     26  C   UNL     1     -13.542   7.885 128.080  0.00  0.00    +0.000 C 
ATOM     27  O   UNL     1     -13.024   8.476 129.266  0.00  0.00    +0.000 OA
ENDBRANCH  20  27
ENDBRANCH  19  23
ENDBRANCH  18  19
ENDBRANCH  12  18
ENDBRANCH   1  15
BRANCH  10  28
ATOM     28  C   UNL     1      -8.021  -2.165 129.785  0.00  0.00    +0.000 C 
BRANCH  28  29
ATOM     29  C   UNL     1      -7.032  -2.999 130.513  0.00  0.00    +0.000 A 
ATOM     30  C   UNL     1      -6.350  -4.081 129.914  0.00  0.00    +0.000 A 
ATOM     31  C   UNL     1      -5.585  -4.936 130.704  0.00  0.00    +0.000 A 
ATOM     32  C   UNL     1      -5.512  -4.701 132.072  0.00  0.00    +0.000 A 
ATOM     33  F   UNL     1      -4.650  -5.402 132.816  0.00  0.00    +0.000 F 
ATOM     34  C   UNL     1      -6.314  -3.749 132.687  0.00  0.00    +0.000 A 
ATOM     35  C   UNL     1      -7.113  -2.935 131.906  0.00  0.00    +0.000 A 
ENDBRANCH  28  29
ENDBRANCH  10  28
TORSDOF 7
ENDMDL
MODEL 9
REMARK VINA RESULT:      -8.8      2.775      3.787
REMARK  Name = Astemizole
REMARK  8 active torsions:
REMARK  status: ('A' for Active; 'I' for Inactive)
REMARK    1  A    between atoms: C_1  and  O_2
REMARK    2  A    between atoms: O_2  and  C_3
REMARK    3  A    between atoms: C_6  and  C_7
REMARK    4  A    between atoms: C_7  and  C_8
REMARK    5  A    between atoms: C_8  and  N_9
REMARK    6  A    between atoms: C_12  and  N_15
REMARK    7  A    between atoms: N_24  and  C_25
REMARK    8  A    between atoms: C_25  and  C_26
REMARK                            x       y       z     vdW  Elec       q    Type
REMARK                         _______ _______ _______ _____ _____    ______ ____
ROOT
ATOM      1  N   UNL     1      -9.923   3.497 130.746  0.00  0.00    +0.000 N 
ATOM      2  C   UNL     1     -10.304   4.715 130.299  0.00  0.00    +0.000 A 
ATOM      3  N   UNL     1     -11.531   4.843 129.828  0.00  0.00    +0.000 NA
ATOM      4  C   UNL     1     -11.698   6.149 129.545  0.00  0.00    +0.000 A 
ATOM      5  C   UNL     1     -12.917   6.739 129.163  0.00  0.00    +0.000 A 
ATOM      6  C   UNL     1     -12.949   8.016 128.635  0.00  0.00    +0.000 A 
ATOM      7  C   UNL     1     -11.745   8.687 128.465  0.00  0.00    +0.000 A 
ATOM      8  C   UNL     1     -10.501   8.153 128.959  0.00  0.00    +0.000 A 
ATOM      9  C   UNL     1     -10.505   6.882 129.623  0.00  0.00    +0.000 A 
ATOM     10  N   UNL     1      -9.670   5.994 130.363  0.00  0.00    +0.000 N 
ATOM     11  H   UNL     1     -10.599   2.767 130.535  0.00  0.00    +0.000 HD
ENDROOT
BRANCH   1  15
ATOM     12  N   UNL     1      -8.065   0.334 131.088  0.00  0.00    +0.000 NA
ATOM     13  C   UNL     1      -7.848   1.386 130.131  0.00  0.00    +0.000 C 
ATOM     14  C   UNL     1      -7.644   2.666 130.820  0.00  0.00    +0.000 C 
ATOM     15  C   UNL     1      -8.842   3.094 131.640  0.00  0.00    +0.000 C 
ATOM     16  C   UNL     1      -9.236   1.923 132.569  0.00  0.00    +0.000 C 
ATOM     17  C   UNL     1      -9.323   0.592 131.813  0.00  0.00    +0.000 C 
BRANCH  12  18
ATOM     18  C   UNL     1      -8.121  -0.916 130.336  0.00  0.00    +0.000 C 
BRANCH  18  19
ATOM     19  C   UNL     1      -6.740  -1.603 130.158  0.00  0.00    +0.000 C 
BRANCH  19  23
ATOM     20  C   UNL     1      -5.819  -4.723 132.898  0.00  0.00    +0.000 A 
ATOM     21  C   UNL     1      -6.553  -3.612 133.324  0.00  0.00    +0.000 A 
ATOM     22  C   UNL     1      -6.912  -2.628 132.414  0.00  0.00    +0.000 A 
ATOM     23  C   UNL     1      -6.489  -2.738 131.085  0.00  0.00    +0.000 A 
ATOM     24  C   UNL     1      -5.757  -3.847 130.670  0.00  0.00    +0.000 A 
ATOM     25  C   UNL     1      -5.430  -4.839 131.568  0.00  0.00    +0.000 A 
BRANCH  20  27
ATOM     26  C   UNL     1      -4.229  -5.955 134.102  0.00  0.00    +0.000 C 
ATOM     27  O   UNL     1      -5.601  -5.691 133.833  0.00  0.00    +0.000 OA
ENDBRANCH  20  27
ENDBRANCH  19  23
ENDBRANCH  18  19
ENDBRANCH  12  18
ENDBRANCH   1  15
BRANCH  10  28
ATOM     28  C   UNL     1      -8.855   6.169 131.580  0.00  0.00    +0.000 C 
BRANCH  28  29
ATOM     29  C   UNL     1      -7.414   6.477 131.756  0.00  0.00    +0.000 A 
ATOM     30  C   UNL     1      -6.620   7.045 130.736  0.00  0.00    +0.000 A 
ATOM     31  C   UNL     1      -5.239   7.127 130.902  0.00  0.00    +0.000 A 
ATOM     32  C   UNL     1      -4.674   6.644 132.077  0.00  0.00    +0.000 A 
ATOM     33  F   UNL     1      -3.381   6.871 132.328  0.00  0.00    +0.000 F 
ATOM     34  C   UNL     1      -5.426   5.932 133.002  0.00  0.00    +0.000 A 
ATOM     35  C   UNL     1      -6.789   5.806 132.810  0.00  0.00    +0.000 A 
ENDBRANCH  28  29
ENDBRANCH  10  28
TORSDOF 7
ENDMDL
