MODEL 1
REMARK VINA RESULT:      -8.1      0.000      0.000
REMARK  Name = Ataluren
REMARK  4 active torsions:
REMARK  status: ('A' for Active; 'I' for Inactive)
REMARK    1  A    between atoms: O_1  and  C_2
REMARK    2  A    between atoms: C_2  and  C_4
REMARK    3  A    between atoms: C_8  and  C_10
REMARK    4  A    between atoms: C_13  and  C_15
REMARK                            x       y       z     vdW  Elec       q    Type
REMARK                         _______ _______ _______ _____ _____    ______ ____
ROOT
ATOM      1  C   UNL     1      -8.493   6.682 131.454  0.00  0.00    +0.000 A 
ATOM      2  N   UNL     1      -9.424   6.353 132.360  0.00  0.00    +0.000 NA
ATOM      3  O   UNL     1     -10.623   6.660 131.706  0.00  0.00    +0.000 OA
ATOM      4  C   UNL     1     -10.282   7.126 130.466  0.00  0.00    +0.000 A 
ATOM      5  N   UNL     1      -8.987   7.179 130.273  0.00  0.00    +0.000 NA
ENDROOT
BRANCH   4   6
ATOM      6  C   UNL     1     -11.381   7.382 129.562  0.00  0.00    +0.000 A 
ATOM      7  C   UNL     1     -11.638   8.670 129.071  0.00  0.00    +0.000 A 
ATOM      8  C   UNL     1     -12.805   8.924 128.344  0.00  0.00    +0.000 A 
ATOM      9  C   UNL     1     -13.681   7.883 128.035  0.00  0.00    +0.000 A 
ATOM     10  C   UNL     1     -13.399   6.588 128.465  0.00  0.00    +0.000 A 
ATOM     11  C   UNL     1     -12.254   6.347 129.222  0.00  0.00    +0.000 A 
ATOM     12  F   UNL     1     -12.027   5.096 129.648  0.00  0.00    +0.000 F 
ENDBRANCH   4   6
BRANCH   1  17
ATOM     13  C   UNL     1      -4.821   7.052 130.891  0.00  0.00    +0.000 A 
ATOM     14  C   UNL     1      -4.304   6.267 131.932  0.00  0.00    +0.000 A 
ATOM     15  C   UNL     1      -5.169   5.600 132.806  0.00  0.00    +0.000 A 
ATOM     16  C   UNL     1      -6.549   5.776 132.692  0.00  0.00    +0.000 A 
ATOM     17  C   UNL     1      -7.066   6.586 131.674  0.00  0.00    +0.000 A 
ATOM     18  C   UNL     1      -6.201   7.221 130.772  0.00  0.00    +0.000 A 
BRANCH  13  19
ATOM     19  C   UNL     1      -3.913   7.515 129.816  0.00  0.00    +0.000 C 
ATOM     20  O   UNL     1      -2.917   6.876 129.495  0.00  0.00    +0.000 OA
BRANCH  19  21
ATOM     21  O   UNL     1      -4.276   8.660 129.207  0.00  0.00    +0.000 OA
ATOM     22  H   UNL     1      -5.223   8.762 129.002  0.00  0.00    +0.000 HD
ENDBRANCH  19  21
ENDBRANCH  13  19
ENDBRANCH   1  17
TORSDOF 4
ENDMDL
MODEL 2
REMARK VINA RESULT:      -8.0      9.664     10.878
REMARK  Name = Ataluren
REMARK  4 active torsions:
REMARK  status: ('A' for Active; 'I' for Inactive)
REMARK    1  A    between atoms: O_1  and  C_2
REMARK    2  A    between atoms: C_2  and  C_4
REMARK    3  A    between atoms: C_8  and  C_10
REMARK    4  A    between atoms: C_13  and  C_15
REMARK                            x       y       z     vdW  Elec       q    Type
REMARK                         _______ _______ _______ _____ _____    ______ ____
ROOT
ATOM      1  C   UNL     1      -8.664   0.872 123.535  0.00  0.00    +0.000 A 
ATOM      2  N   UNL     1      -9.489   1.902 123.766  0.00  0.00    +0.000 NA
ATOM      3  O   UNL     1      -8.794   2.992 123.228  0.00  0.00    +0.000 OA
ATOM      4  C   UNL     1      -7.628   2.494 122.714  0.00  0.00    +0.000 A 
ATOM      5  N   UNL     1      -7.493   1.204 122.898  0.00  0.00    +0.000 NA
ENDROOT
BRANCH   4   6
ATOM      6  C   UNL     1      -6.806   3.433 121.985  0.00  0.00    +0.000 A 
ATOM      7  C   UNL     1      -7.091   3.776 120.655  0.00  0.00    +0.000 A 
ATOM      8  C   UNL     1      -6.186   4.545 119.919  0.00  0.00    +0.000 A 
ATOM      9  C   UNL     1      -5.031   5.043 120.525  0.00  0.00    +0.000 A 
ATOM     10  C   UNL     1      -4.773   4.759 121.864  0.00  0.00    +0.000 A 
ATOM     11  C   UNL     1      -5.659   3.960 122.583  0.00  0.00    +0.000 A 
ATOM     12  F   UNL     1      -5.367   3.678 123.861  0.00  0.00    +0.000 F 
ENDBRANCH   4   6
BRANCH   1  17
ATOM     13  C   UNL     1      -8.885  -2.152 125.712  0.00  0.00    +0.000 A 
ATOM     14  C   UNL     1      -9.197  -3.144 124.771  0.00  0.00    +0.000 A 
ATOM     15  C   UNL     1      -9.315  -2.817 123.416  0.00  0.00    +0.000 A 
ATOM     16  C   UNL     1      -9.197  -1.487 123.006  0.00  0.00    +0.000 A 
ATOM     17  C   UNL     1      -8.918  -0.490 123.949  0.00  0.00    +0.000 A 
ATOM     18  C   UNL     1      -8.759  -0.824 125.301  0.00  0.00    +0.000 A 
BRANCH  13  19
ATOM     19  C   UNL     1      -8.488  -2.554 127.081  0.00  0.00    +0.000 C 
ATOM     20  O   UNL     1      -7.939  -1.772 127.848  0.00  0.00    +0.000 OA
BRANCH  19  21
ATOM     21  O   UNL     1      -8.795  -3.820 127.423  0.00  0.00    +0.000 OA
ATOM     22  H   UNL     1      -8.069  -4.361 127.784  0.00  0.00    +0.000 HD
ENDBRANCH  19  21
ENDBRANCH  13  19
ENDBRANCH   1  17
TORSDOF 4
ENDMDL
MODEL 3
REMARK VINA RESULT:      -7.9      9.968     10.807
REMARK  Name = Ataluren
REMARK  4 active torsions:
REMARK  status: ('A' for Active; 'I' for Inactive)
REMARK    1  A    between atoms: O_1  and  C_2
REMARK    2  A    between atoms: C_2  and  C_4
REMARK    3  A    between atoms: C_8  and  C_10
REMARK    4  A    between atoms: C_13  and  C_15
REMARK                            x       y       z     vdW  Elec       q    Type
REMARK                         _______ _______ _______ _____ _____    ______ ____
ROOT
ATOM      1  C   UNL     1      -7.937   2.252 122.737  0.00  0.00    +0.000 A 
ATOM      2  N   UNL     1      -9.257   2.440 122.871  0.00  0.00    +0.000 NA
ATOM      3  O   UNL     1      -9.688   1.248 123.467  0.00  0.00    +0.000 OA
ATOM      4  C   UNL     1      -8.572   0.476 123.643  0.00  0.00    +0.000 A 
ATOM      5  N   UNL     1      -7.478   1.039 123.190  0.00  0.00    +0.000 NA
ENDROOT
BRANCH   4   6
ATOM      6  C   UNL     1      -8.765  -0.759 124.369  0.00  0.00    +0.000 A 
ATOM      7  C   UNL     1      -8.755  -0.792 125.770  0.00  0.00    +0.000 A 
ATOM      8  C   UNL     1      -8.766  -2.017 126.444  0.00  0.00    +0.000 A 
ATOM      9  C   UNL     1      -8.867  -3.211 125.729  0.00  0.00    +0.000 A 
ATOM     10  C   UNL     1      -8.941  -3.183 124.338  0.00  0.00    +0.000 A 
ATOM     11  C   UNL     1      -8.891  -1.962 123.670  0.00  0.00    +0.000 A 
ATOM     12  F   UNL     1      -8.933  -1.968 122.329  0.00  0.00    +0.000 F 
ENDBRANCH   4   6
BRANCH   1  17
ATOM     13  C   UNL     1      -6.424   4.512 120.179  0.00  0.00    +0.000 A 
ATOM     14  C   UNL     1      -5.224   4.873 120.810  0.00  0.00    +0.000 A 
ATOM     15  C   UNL     1      -4.908   4.355 122.070  0.00  0.00    +0.000 A 
ATOM     16  C   UNL     1      -5.820   3.536 122.738  0.00  0.00    +0.000 A 
ATOM     17  C   UNL     1      -7.032   3.200 122.124  0.00  0.00    +0.000 A 
ATOM     18  C   UNL     1      -7.332   3.685 120.843  0.00  0.00    +0.000 A 
BRANCH  13  19
ATOM     19  C   UNL     1      -6.613   4.835 118.746  0.00  0.00    +0.000 C 
ATOM     20  O   UNL     1      -7.515   4.330 118.087  0.00  0.00    +0.000 OA
BRANCH  19  21
ATOM     21  O   UNL     1      -5.748   5.732 118.238  0.00  0.00    +0.000 OA
ATOM     22  H   UNL     1      -5.394   6.395 118.858  0.00  0.00    +0.000 HD
ENDBRANCH  19  21
ENDBRANCH  13  19
ENDBRANCH   1  17
TORSDOF 4
ENDMDL
MODEL 4
REMARK VINA RESULT:      -7.8      9.460     10.636
REMARK  Name = Ataluren
REMARK  4 active torsions:
REMARK  status: ('A' for Active; 'I' for Inactive)
REMARK    1  A    between atoms: O_1  and  C_2
REMARK    2  A    between atoms: C_2  and  C_4
REMARK    3  A    between atoms: C_8  and  C_10
REMARK    4  A    between atoms: C_13  and  C_15
REMARK                            x       y       z     vdW  Elec       q    Type
REMARK                         _______ _______ _______ _____ _____    ______ ____
ROOT
ATOM      1  C   UNL     1      -7.106   2.557 123.088  0.00  0.00    +0.000 A 
ATOM      2  N   UNL     1      -6.529   3.196 124.115  0.00  0.00    +0.000 NA
ATOM      3  O   UNL     1      -6.516   2.226 125.124  0.00  0.00    +0.000 OA
ATOM      4  C   UNL     1      -7.075   1.098 124.586  0.00  0.00    +0.000 A 
ATOM      5  N   UNL     1      -7.473   1.260 123.348  0.00  0.00    +0.000 NA
ENDROOT
BRANCH   4   6
ATOM      6  C   UNL     1      -7.045  -0.082 125.421  0.00  0.00    +0.000 A 
ATOM      7  C   UNL     1      -5.855  -0.789 125.644  0.00  0.00    +0.000 A 
ATOM      8  C   UNL     1      -5.883  -2.020 126.305  0.00  0.00    +0.000 A 
ATOM      9  C   UNL     1      -7.083  -2.516 126.816  0.00  0.00    +0.000 A 
ATOM     10  C   UNL     1      -8.260  -1.788 126.653  0.00  0.00    +0.000 A 
ATOM     11  C   UNL     1      -8.233  -0.580 125.961  0.00  0.00    +0.000 A 
ATOM     12  F   UNL     1      -9.387   0.083 125.793  0.00  0.00    +0.000 F 
ENDBRANCH   4   6
BRANCH   1  17
ATOM     13  C   UNL     1      -6.631   4.533 119.955  0.00  0.00    +0.000 A 
ATOM     14  C   UNL     1      -7.928   4.513 119.421  0.00  0.00    +0.000 A 
ATOM     15  C   UNL     1      -8.961   3.865 120.105  0.00  0.00    +0.000 A 
ATOM     16  C   UNL     1      -8.689   3.169 121.284  0.00  0.00    +0.000 A 
ATOM     17  C   UNL     1      -7.389   3.160 121.803  0.00  0.00    +0.000 A 
ATOM     18  C   UNL     1      -6.361   3.845 121.140  0.00  0.00    +0.000 A 
BRANCH  13  19
ATOM     19  C   UNL     1      -5.624   5.451 119.376  0.00  0.00    +0.000 C 
ATOM     20  O   UNL     1      -4.789   6.014 120.074  0.00  0.00    +0.000 OA
BRANCH  19  21
ATOM     21  O   UNL     1      -5.678   5.597 118.038  0.00  0.00    +0.000 OA
ATOM     22  H   UNL     1      -6.424   5.164 117.584  0.00  0.00    +0.000 HD
ENDBRANCH  19  21
ENDBRANCH  13  19
ENDBRANCH   1  17
TORSDOF 4
ENDMDL
MODEL 5
REMARK VINA RESULT:      -7.6      2.630      6.990
REMARK  Name = Ataluren
REMARK  4 active torsions:
REMARK  status: ('A' for Active; 'I' for Inactive)
REMARK    1  A    between atoms: O_1  and  C_2
REMARK    2  A    between atoms: C_2  and  C_4
REMARK    3  A    between atoms: C_8  and  C_10
REMARK    4  A    between atoms: C_13  and  C_15
REMARK                            x       y       z     vdW  Elec       q    Type
REMARK                         _______ _______ _______ _____ _____    ______ ____
ROOT
ATOM      1  C   UNL     1      -8.469   6.426 131.440  0.00  0.00    +0.000 A 
ATOM      2  N   UNL     1      -8.108   6.015 132.663  0.00  0.00    +0.000 NA
ATOM      3  O   UNL     1      -6.721   5.870 132.552  0.00  0.00    +0.000 OA
ATOM      4  C   UNL     1      -6.394   6.227 131.272  0.00  0.00    +0.000 A 
ATOM      5  N   UNL     1      -7.434   6.554 130.546  0.00  0.00    +0.000 NA
ENDROOT
BRANCH   4   6
ATOM      6  C   UNL     1      -4.980   6.279 130.970  0.00  0.00    +0.000 A 
ATOM      7  C   UNL     1      -4.119   7.149 131.652  0.00  0.00    +0.000 A 
ATOM      8  C   UNL     1      -2.798   7.307 131.224  0.00  0.00    +0.000 A 
ATOM      9  C   UNL     1      -2.306   6.542 130.166  0.00  0.00    +0.000 A 
ATOM     10  C   UNL     1      -3.139   5.629 129.524  0.00  0.00    +0.000 A 
ATOM     11  C   UNL     1      -4.465   5.502 129.930  0.00  0.00    +0.000 A 
ATOM     12  F   UNL     1      -5.252   4.637 129.272  0.00  0.00    +0.000 F 
ENDBRANCH   4   6
BRANCH   1  17
ATOM     13  C   UNL     1     -11.357   7.700 129.446  0.00  0.00    +0.000 A 
ATOM     14  C   UNL     1     -12.433   7.376 130.286  0.00  0.00    +0.000 A 
ATOM     15  C   UNL     1     -12.202   6.754 131.517  0.00  0.00    +0.000 A 
ATOM     16  C   UNL     1     -10.905   6.386 131.881  0.00  0.00    +0.000 A 
ATOM     17  C   UNL     1      -9.833   6.680 131.030  0.00  0.00    +0.000 A 
ATOM     18  C   UNL     1     -10.060   7.340 129.814  0.00  0.00    +0.000 A 
BRANCH  13  19
ATOM     19  C   UNL     1     -11.586   8.601 128.293  0.00  0.00    +0.000 C 
ATOM     20  O   UNL     1     -10.897   8.540 127.282  0.00  0.00    +0.000 OA
BRANCH  19  21
ATOM     21  O   UNL     1     -12.613   9.462 128.429  0.00  0.00    +0.000 OA
ATOM     22  H   UNL     1     -12.934   9.888 127.613  0.00  0.00    +0.000 HD
ENDBRANCH  19  21
ENDBRANCH  13  19
ENDBRANCH   1  17
TORSDOF 4
ENDMDL
MODEL 6
REMARK VINA RESULT:      -7.6      2.202      2.942
REMARK  Name = Ataluren
REMARK  4 active torsions:
REMARK  status: ('A' for Active; 'I' for Inactive)
REMARK    1  A    between atoms: O_1  and  C_2
REMARK    2  A    between atoms: C_2  and  C_4
REMARK    3  A    between atoms: C_8  and  C_10
REMARK    4  A    between atoms: C_13  and  C_15
REMARK                            x       y       z     vdW  Elec       q    Type
REMARK                         _______ _______ _______ _____ _____    ______ ____
ROOT
ATOM      1  C   UNL     1      -7.990   6.613 131.509  0.00  0.00    +0.000 A 
ATOM      2  N   UNL     1      -8.899   6.345 132.457  0.00  0.00    +0.000 NA
ATOM      3  O   UNL     1     -10.113   6.619 131.817  0.00  0.00    +0.000 OA
ATOM      4  C   UNL     1      -9.803   7.008 130.542  0.00  0.00    +0.000 A 
ATOM      5  N   UNL     1      -8.513   7.042 130.314  0.00  0.00    +0.000 NA
ENDROOT
BRANCH   4   6
ATOM      6  C   UNL     1     -10.924   7.216 129.653  0.00  0.00    +0.000 A 
ATOM      7  C   UNL     1     -12.086   6.438 129.748  0.00  0.00    +0.000 A 
ATOM      8  C   UNL     1     -13.079   6.539 128.770  0.00  0.00    +0.000 A 
ATOM      9  C   UNL     1     -12.957   7.469 127.737  0.00  0.00    +0.000 A 
ATOM     10  C   UNL     1     -11.833   8.290 127.672  0.00  0.00    +0.000 A 
ATOM     11  C   UNL     1     -10.829   8.160 128.628  0.00  0.00    +0.000 A 
ATOM     12  F   UNL     1      -9.744   8.942 128.521  0.00  0.00    +0.000 F 
ENDBRANCH   4   6
BRANCH   1  17
ATOM     13  C   UNL     1      -4.700   5.885 133.116  0.00  0.00    +0.000 A 
ATOM     14  C   UNL     1      -3.815   6.496 132.215  0.00  0.00    +0.000 A 
ATOM     15  C   UNL     1      -4.307   7.164 131.089  0.00  0.00    +0.000 A 
ATOM     16  C   UNL     1      -5.676   7.159 130.817  0.00  0.00    +0.000 A 
ATOM     17  C   UNL     1      -6.558   6.522 131.698  0.00  0.00    +0.000 A 
ATOM     18  C   UNL     1      -6.070   5.888 132.849  0.00  0.00    +0.000 A 
BRANCH  13  19
ATOM     19  C   UNL     1      -4.194   5.435 134.433  0.00  0.00    +0.000 C 
ATOM     20  O   UNL     1      -4.915   5.405 135.424  0.00  0.00    +0.000 OA
BRANCH  19  21
ATOM     21  O   UNL     1      -2.906   5.042 134.453  0.00  0.00    +0.000 OA
ATOM     22  H   UNL     1      -2.437   5.045 133.599  0.00  0.00    +0.000 HD
ENDBRANCH  19  21
ENDBRANCH  13  19
ENDBRANCH   1  17
TORSDOF 4
ENDMDL
MODEL 7
REMARK VINA RESULT:      -7.4      7.041      7.632
REMARK  Name = Ataluren
REMARK  4 active torsions:
REMARK  status: ('A' for Active; 'I' for Inactive)
REMARK    1  A    between atoms: O_1  and  C_2
REMARK    2  A    between atoms: C_2  and  C_4
REMARK    3  A    between atoms: C_8  and  C_10
REMARK    4  A    between atoms: C_13  and  C_15
REMARK                            x       y       z     vdW  Elec       q    Type
REMARK                         _______ _______ _______ _____ _____    ______ ____
ROOT
ATOM      1  C   UNL     1      -5.529   2.879 125.599  0.00  0.00    +0.000 A 
ATOM      2  N   UNL     1      -5.980   1.636 125.378  0.00  0.00    +0.000 NA
ATOM      3  O   UNL     1      -6.577   1.736 124.115  0.00  0.00    +0.000 OA
ATOM      4  C   UNL     1      -6.404   3.030 123.705  0.00  0.00    +0.000 A 
ATOM      5  N   UNL     1      -5.787   3.774 124.590  0.00  0.00    +0.000 NA
ENDROOT
BRANCH   4   6
ATOM      6  C   UNL     1      -6.832   3.329 122.356  0.00  0.00    +0.000 A 
ATOM      7  C   UNL     1      -5.919   3.736 121.373  0.00  0.00    +0.000 A 
ATOM      8  C   UNL     1      -6.378   4.187 120.132  0.00  0.00    +0.000 A 
ATOM      9  C   UNL     1      -7.741   4.162 119.836  0.00  0.00    +0.000 A 
ATOM     10  C   UNL     1      -8.649   3.699 120.786  0.00  0.00    +0.000 A 
ATOM     11  C   UNL     1      -8.190   3.286 122.035  0.00  0.00    +0.000 A 
ATOM     12  F   UNL     1      -9.091   2.876 122.940  0.00  0.00    +0.000 F 
ENDBRANCH   4   6
BRANCH   1  17
ATOM     13  C   UNL     1      -3.816   5.089 128.072  0.00  0.00    +0.000 A 
ATOM     14  C   UNL     1      -3.397   4.154 129.030  0.00  0.00    +0.000 A 
ATOM     15  C   UNL     1      -3.664   2.793 128.848  0.00  0.00    +0.000 A 
ATOM     16  C   UNL     1      -4.415   2.369 127.751  0.00  0.00    +0.000 A 
ATOM     17  C   UNL     1      -4.862   3.305 126.810  0.00  0.00    +0.000 A 
ATOM     18  C   UNL     1      -4.559   4.664 126.970  0.00  0.00    +0.000 A 
BRANCH  13  19
ATOM     19  C   UNL     1      -3.287   6.471 128.132  0.00  0.00    +0.000 C 
ATOM     20  O   UNL     1      -4.008   7.426 128.399  0.00  0.00    +0.000 OA
BRANCH  19  21
ATOM     21  O   UNL     1      -1.966   6.594 127.899  0.00  0.00    +0.000 OA
ATOM     22  H   UNL     1      -1.429   6.957 128.627  0.00  0.00    +0.000 HD
ENDBRANCH  19  21
ENDBRANCH  13  19
ENDBRANCH   1  17
TORSDOF 4
ENDMDL
MODEL 8
REMARK VINA RESULT:      -7.4      9.588     11.492
REMARK  Name = Ataluren
REMARK  4 active torsions:
REMARK  status: ('A' for Active; 'I' for Inactive)
REMARK    1  A    between atoms: O_1  and  C_2
REMARK    2  A    between atoms: C_2  and  C_4
REMARK    3  A    between atoms: C_8  and  C_10
REMARK    4  A    between atoms: C_13  and  C_15
REMARK                            x       y       z     vdW  Elec       q    Type
REMARK                         _______ _______ _______ _____ _____    ______ ____
ROOT
ATOM      1  C   UNL     1      -8.467  -2.662 126.842  0.00  0.00    +0.000 A 
ATOM      2  N   UNL     1      -9.272  -3.665 127.220  0.00  0.00    +0.000 NA
ATOM      3  O   UNL     1      -8.726  -4.063 128.446  0.00  0.00    +0.000 OA
ATOM      4  C   UNL     1      -7.657  -3.241 128.681  0.00  0.00    +0.000 A 
ATOM      5  N   UNL     1      -7.446  -2.381 127.715  0.00  0.00    +0.000 NA
ENDROOT
BRANCH   4   6
ATOM      6  C   UNL     1      -7.016  -3.389 129.969  0.00  0.00    +0.000 A 
ATOM      7  C   UNL     1      -6.051  -4.380 130.195  0.00  0.00    +0.000 A 
ATOM      8  C   UNL     1      -5.578  -4.617 131.489  0.00  0.00    +0.000 A 
ATOM      9  C   UNL     1      -6.003  -3.817 132.550  0.00  0.00    +0.000 A 
ATOM     10  C   UNL     1      -6.914  -2.788 132.321  0.00  0.00    +0.000 A 
ATOM     11  C   UNL     1      -7.412  -2.581 131.037  0.00  0.00    +0.000 A 
ATOM     12  F   UNL     1      -8.312  -1.603 130.854  0.00  0.00    +0.000 F 
ENDBRANCH   4   6
BRANCH   1  17
ATOM     13  C   UNL     1      -9.273   0.086 124.446  0.00  0.00    +0.000 A 
ATOM     14  C   UNL     1      -9.051  -0.550 123.217  0.00  0.00    +0.000 A 
ATOM     15  C   UNL     1      -8.654  -1.891 123.179  0.00  0.00    +0.000 A 
ATOM     16  C   UNL     1      -8.404  -2.578 124.368  0.00  0.00    +0.000 A 
ATOM     17  C   UNL     1      -8.594  -1.936 125.597  0.00  0.00    +0.000 A 
ATOM     18  C   UNL     1      -9.032  -0.604 125.636  0.00  0.00    +0.000 A 
BRANCH  13  19
ATOM     19  C   UNL     1      -9.958   1.399 124.468  0.00  0.00    +0.000 C 
ATOM     20  O   UNL     1      -9.385   2.419 124.832  0.00  0.00    +0.000 OA
BRANCH  19  21
ATOM     21  O   UNL     1     -11.234   1.391 124.037  0.00  0.00    +0.000 OA
ATOM     22  H   UNL     1     -11.375   1.172 123.098  0.00  0.00    +0.000 HD
ENDBRANCH  19  21
ENDBRANCH  13  19
ENDBRANCH   1  17
TORSDOF 4
ENDMDL
MODEL 9
REMARK VINA RESULT:      -7.2      2.277      2.933
REMARK  Name = Ataluren
REMARK  4 active torsions:
REMARK  status: ('A' for Active; 'I' for Inactive)
REMARK    1  A    between atoms: O_1  and  C_2
REMARK    2  A    between atoms: C_2  and  C_4
REMARK    3  A    between atoms: C_8  and  C_10
REMARK    4  A    between atoms: C_13  and  C_15
REMARK                            x       y       z     vdW  Elec       q    Type
REMARK                         _______ _______ _______ _____ _____    ______ ____
ROOT
ATOM      1  C   UNL     1      -7.076   6.345 130.892  0.00  0.00    +0.000 A 
ATOM      2  N   UNL     1      -7.578   5.124 130.666  0.00  0.00    +0.000 NA
ATOM      3  O   UNL     1      -8.912   5.387 130.332  0.00  0.00    +0.000 OA
ATOM      4  C   UNL     1      -9.063   6.747 130.378  0.00  0.00    +0.000 A 
ATOM      5  N   UNL     1      -7.971   7.375 130.739  0.00  0.00    +0.000 NA
ENDROOT
BRANCH   4   6
ATOM      6  C   UNL     1     -10.342   7.257 129.936  0.00  0.00    +0.000 A 
ATOM      7  C   UNL     1     -10.464   7.996 128.751  0.00  0.00    +0.000 A 
ATOM      8  C   UNL     1     -11.672   8.625 128.438  0.00  0.00    +0.000 A 
ATOM      9  C   UNL     1     -12.785   8.459 129.262  0.00  0.00    +0.000 A 
ATOM     10  C   UNL     1     -12.688   7.674 130.409  0.00  0.00    +0.000 A 
ATOM     11  C   UNL     1     -11.472   7.080 130.736  0.00  0.00    +0.000 A 
ATOM     12  F   UNL     1     -11.401   6.356 131.864  0.00  0.00    +0.000 F 
ENDBRANCH   4   6
BRANCH   1  17
ATOM     13  C   UNL     1      -4.041   6.486 133.063  0.00  0.00    +0.000 A 
ATOM     14  C   UNL     1      -3.175   7.255 132.272  0.00  0.00    +0.000 A 
ATOM     15  C   UNL     1      -3.600   7.741 131.031  0.00  0.00    +0.000 A 
ATOM     16  C   UNL     1      -4.862   7.400 130.543  0.00  0.00    +0.000 A 
ATOM     17  C   UNL     1      -5.717   6.606 131.317  0.00  0.00    +0.000 A 
ATOM     18  C   UNL     1      -5.307   6.152 132.578  0.00  0.00    +0.000 A 
BRANCH  13  19
ATOM     19  C   UNL     1      -3.686   6.222 134.476  0.00  0.00    +0.000 C 
ATOM     20  O   UNL     1      -4.490   6.393 135.385  0.00  0.00    +0.000 OA
BRANCH  19  21
ATOM     21  O   UNL     1      -2.438   5.761 134.681  0.00  0.00    +0.000 OA
ATOM     22  H   UNL     1      -1.781   5.960 133.989  0.00  0.00    +0.000 HD
ENDBRANCH  19  21
ENDBRANCH  13  19
ENDBRANCH   1  17
TORSDOF 4
ENDMDL
