MODEL 1
REMARK VINA RESULT:      -6.6      0.000      0.000
REMARK  Name = Atenolol
REMARK  11 active torsions:
REMARK  status: ('A' for Active; 'I' for Inactive)
REMARK    1  A    between atoms: C_1  and  C_2
REMARK    2  A    between atoms: C_2  and  C_3
REMARK    3  A    between atoms: C_2  and  N_4
REMARK    4  A    between atoms: N_4  and  C_5
REMARK    5  A    between atoms: C_5  and  C_6
REMARK    6  A    between atoms: C_6  and  O_7
REMARK    7  A    between atoms: C_6  and  C_8
REMARK    8  A    between atoms: C_8  and  O_9
REMARK    9  A    between atoms: O_9  and  C_10
REMARK   10  A    between atoms: C_13  and  C_14
REMARK   11  A    between atoms: C_14  and  C_15
REMARK                            x       y       z     vdW  Elec       q    Type
REMARK                         _______ _______ _______ _____ _____    ______ ____
ROOT
ATOM      1  C   UNL     1      -8.212   2.964 123.670  0.00  0.00    +0.000 A 
ATOM      2  C   UNL     1      -6.933   3.418 123.992  0.00  0.00    +0.000 A 
ATOM      3  C   UNL     1      -6.036   3.797 122.977  0.00  0.00    +0.000 A 
ATOM      4  C   UNL     1      -6.424   3.737 121.632  0.00  0.00    +0.000 A 
ATOM      5  C   UNL     1      -7.769   3.473 121.395  0.00  0.00    +0.000 A 
ATOM      6  C   UNL     1      -8.618   2.966 122.355  0.00  0.00    +0.000 A 
ENDROOT
BRANCH   1   7
ATOM      7  O   UNL     1      -9.075   2.713 124.691  0.00  0.00    +0.000 OA
BRANCH   7   8
ATOM      8  C   UNL     1      -9.873   1.541 124.522  0.00  0.00    +0.000 C 
BRANCH   8   9
ATOM      9  C   UNL     1      -9.667   0.652 125.747  0.00  0.00    +0.000 C 
BRANCH   9  10
ATOM     10  O   UNL     1      -8.794   1.278 126.694  0.00  0.00    +0.000 OA
ATOM     11  H   UNL     1      -8.790   0.726 127.492  0.00  0.00    +0.000 HD
ENDBRANCH   9  10
BRANCH   9  12
ATOM     12  C   UNL     1      -9.053  -0.670 125.290  0.00  0.00    +0.000 C 
BRANCH  12  13
ATOM     13  N   UNL     1      -7.922  -0.431 124.394  0.00  0.00    +0.000 NA
ATOM     14  H   UNL     1      -7.891   0.569 124.171  0.00  0.00    +0.000 HD
BRANCH  13  16
ATOM     15  C   UNL     1      -6.569  -1.612 122.755  0.00  0.00    +0.000 C 
ATOM     16  C   UNL     1      -7.989  -1.245 123.182  0.00  0.00    +0.000 C 
ATOM     17  C   UNL     1      -8.790  -2.525 123.429  0.00  0.00    +0.000 C 
ENDBRANCH  13  16
ENDBRANCH  12  13
ENDBRANCH   9  12
ENDBRANCH   8   9
ENDBRANCH   7   8
ENDBRANCH   1   7
BRANCH   4  18
ATOM     18  C   UNL     1      -5.434   3.971 120.505  0.00  0.00    +0.000 C 
BRANCH  18  19
ATOM     19  C   UNL     1      -5.215   5.379 119.908  0.00  0.00    +0.000 C 
ATOM     20  N   UNL     1      -5.692   5.721 118.673  0.00  0.00    +0.000 N 
ATOM     21  O   UNL     1      -4.609   6.240 120.530  0.00  0.00    +0.000 OA
ATOM     22  H   UNL     1      -5.709   5.055 117.916  0.00  0.00    +0.000 HD
ATOM     23  H   UNL     1      -5.547   6.675 118.376  0.00  0.00    +0.000 HD
ENDBRANCH  18  19
ENDBRANCH   4  18
TORSDOF 9
ENDMDL
MODEL 2
REMARK VINA RESULT:      -6.1      4.783      8.280
REMARK  Name = Atenolol
REMARK  11 active torsions:
REMARK  status: ('A' for Active; 'I' for Inactive)
REMARK    1  A    between atoms: C_1  and  C_2
REMARK    2  A    between atoms: C_2  and  C_3
REMARK    3  A    between atoms: C_2  and  N_4
REMARK    4  A    between atoms: N_4  and  C_5
REMARK    5  A    between atoms: C_5  and  C_6
REMARK    6  A    between atoms: C_6  and  O_7
REMARK    7  A    between atoms: C_6  and  C_8
REMARK    8  A    between atoms: C_8  and  O_9
REMARK    9  A    between atoms: O_9  and  C_10
REMARK   10  A    between atoms: C_13  and  C_14
REMARK   11  A    between atoms: C_14  and  C_15
REMARK                            x       y       z     vdW  Elec       q    Type
REMARK                         _______ _______ _______ _____ _____    ______ ____
ROOT
ATOM      1  C   UNL     1      -8.789  -2.237 126.375  0.00  0.00    +0.000 A 
ATOM      2  C   UNL     1      -9.123  -3.482 126.908  0.00  0.00    +0.000 A 
ATOM      3  C   UNL     1      -8.649  -3.864 128.176  0.00  0.00    +0.000 A 
ATOM      4  C   UNL     1      -7.847  -2.990 128.924  0.00  0.00    +0.000 A 
ATOM      5  C   UNL     1      -7.723  -1.698 128.426  0.00  0.00    +0.000 A 
ATOM      6  C   UNL     1      -8.056  -1.352 127.134  0.00  0.00    +0.000 A 
ENDROOT
BRANCH   1   7
ATOM      7  O   UNL     1      -9.360  -1.874 125.196  0.00  0.00    +0.000 OA
BRANCH   7   8
ATOM      8  C   UNL     1      -8.943  -0.603 124.697  0.00  0.00    +0.000 C 
BRANCH   8   9
ATOM      9  C   UNL     1      -8.805  -0.716 123.180  0.00  0.00    +0.000 C 
BRANCH   9  10
ATOM     10  O   UNL     1     -10.090  -0.754 122.549  0.00  0.00    +0.000 OA
ATOM     11  H   UNL     1     -10.756  -0.617 123.242  0.00  0.00    +0.000 HD
ENDBRANCH   9  10
BRANCH   9  12
ATOM     12  C   UNL     1      -8.044  -2.001 122.856  0.00  0.00    +0.000 C 
BRANCH  12  13
ATOM     13  N   UNL     1      -6.601  -1.759 122.858  0.00  0.00    +0.000 NA
ATOM     14  H   UNL     1      -6.226  -2.026 121.943  0.00  0.00    +0.000 HD
BRANCH  13  16
ATOM     15  C   UNL     1      -4.797  -3.316 123.342  0.00  0.00    +0.000 C 
ATOM     16  C   UNL     1      -5.919  -2.469 123.939  0.00  0.00    +0.000 C 
ATOM     17  C   UNL     1      -5.328  -1.484 124.950  0.00  0.00    +0.000 C 
ENDBRANCH  13  16
ENDBRANCH  12  13
ENDBRANCH   9  12
ENDBRANCH   8   9
ENDBRANCH   7   8
ENDBRANCH   1   7
BRANCH   4  18
ATOM     18  C   UNL     1      -7.176  -3.431 130.212  0.00  0.00    +0.000 C 
BRANCH  18  19
ATOM     19  C   UNL     1      -5.812  -4.156 130.199  0.00  0.00    +0.000 C 
ATOM     20  N   UNL     1      -4.696  -3.585 129.653  0.00  0.00    +0.000 N 
ATOM     21  O   UNL     1      -5.685  -5.270 130.687  0.00  0.00    +0.000 OA
ATOM     22  H   UNL     1      -4.755  -3.006 128.828  0.00  0.00    +0.000 HD
ATOM     23  H   UNL     1      -3.834  -4.105 129.727  0.00  0.00    +0.000 HD
ENDBRANCH  18  19
ENDBRANCH   4  18
TORSDOF 9
ENDMDL
MODEL 3
REMARK VINA RESULT:      -5.9      8.691     10.178
REMARK  Name = Atenolol
REMARK  11 active torsions:
REMARK  status: ('A' for Active; 'I' for Inactive)
REMARK    1  A    between atoms: C_1  and  C_2
REMARK    2  A    between atoms: C_2  and  C_3
REMARK    3  A    between atoms: C_2  and  N_4
REMARK    4  A    between atoms: N_4  and  C_5
REMARK    5  A    between atoms: C_5  and  C_6
REMARK    6  A    between atoms: C_6  and  O_7
REMARK    7  A    between atoms: C_6  and  C_8
REMARK    8  A    between atoms: C_8  and  O_9
REMARK    9  A    between atoms: O_9  and  C_10
REMARK   10  A    between atoms: C_13  and  C_14
REMARK   11  A    between atoms: C_14  and  C_15
REMARK                            x       y       z     vdW  Elec       q    Type
REMARK                         _______ _______ _______ _____ _____    ______ ____
ROOT
ATOM      1  C   UNL     1     -10.983   6.335 129.186  0.00  0.00    +0.000 A 
ATOM      2  C   UNL     1     -12.332   6.267 129.534  0.00  0.00    +0.000 A 
ATOM      3  C   UNL     1     -13.175   7.376 129.337  0.00  0.00    +0.000 A 
ATOM      4  C   UNL     1     -12.670   8.556 128.774  0.00  0.00    +0.000 A 
ATOM      5  C   UNL     1     -11.378   8.487 128.267  0.00  0.00    +0.000 A 
ATOM      6  C   UNL     1     -10.500   7.469 128.573  0.00  0.00    +0.000 A 
ENDROOT
BRANCH   1   7
ATOM      7  O   UNL     1     -10.239   5.202 129.296  0.00  0.00    +0.000 OA
BRANCH   7   8
ATOM      8  C   UNL     1      -9.074   5.332 130.112  0.00  0.00    +0.000 C 
BRANCH   8   9
ATOM      9  C   UNL     1      -9.475   6.060 131.393  0.00  0.00    +0.000 C 
BRANCH   9  10
ATOM     10  O   UNL     1      -8.434   6.940 131.830  0.00  0.00    +0.000 OA
ATOM     11  H   UNL     1      -7.588   6.498 131.653  0.00  0.00    +0.000 HD
ENDBRANCH   9  10
BRANCH   9  12
ATOM     12  C   UNL     1      -9.748   5.020 132.478  0.00  0.00    +0.000 C 
BRANCH  12  13
ATOM     13  N   UNL     1      -9.955   3.698 131.886  0.00  0.00    +0.000 NA
ATOM     14  H   UNL     1     -10.954   3.584 131.690  0.00  0.00    +0.000 HD
BRANCH  13  16
ATOM     15  C   UNL     1      -9.666   1.288 132.023  0.00  0.00    +0.000 C 
ATOM     16  C   UNL     1      -9.453   2.621 132.737  0.00  0.00    +0.000 C 
ATOM     17  C   UNL     1      -7.962   2.807 133.028  0.00  0.00    +0.000 C 
ENDBRANCH  13  16
ENDBRANCH  12  13
ENDBRANCH   9  12
ENDBRANCH   8   9
ENDBRANCH   7   8
ENDBRANCH   1   7
BRANCH   4  18
ATOM     18  C   UNL     1     -13.501   9.825 128.707  0.00  0.00    +0.000 C 
BRANCH  18  19
ATOM     19  C   UNL     1     -13.508  10.842 129.870  0.00  0.00    +0.000 C 
ATOM     20  N   UNL     1     -13.886  12.143 129.689  0.00  0.00    +0.000 N 
ATOM     21  O   UNL     1     -13.179  10.510 131.000  0.00  0.00    +0.000 OA
ATOM     22  H   UNL     1     -13.667  12.638 128.837  0.00  0.00    +0.000 HD
ATOM     23  H   UNL     1     -13.908  12.731 130.510  0.00  0.00    +0.000 HD
ENDBRANCH  18  19
ENDBRANCH   4  18
TORSDOF 9
ENDMDL
MODEL 4
REMARK VINA RESULT:      -5.8      5.787      8.583
REMARK  Name = Atenolol
REMARK  11 active torsions:
REMARK  status: ('A' for Active; 'I' for Inactive)
REMARK    1  A    between atoms: C_1  and  C_2
REMARK    2  A    between atoms: C_2  and  C_3
REMARK    3  A    between atoms: C_2  and  N_4
REMARK    4  A    between atoms: N_4  and  C_5
REMARK    5  A    between atoms: C_5  and  C_6
REMARK    6  A    between atoms: C_6  and  O_7
REMARK    7  A    between atoms: C_6  and  C_8
REMARK    8  A    between atoms: C_8  and  O_9
REMARK    9  A    between atoms: O_9  and  C_10
REMARK   10  A    between atoms: C_13  and  C_14
REMARK   11  A    between atoms: C_14  and  C_15
REMARK                            x       y       z     vdW  Elec       q    Type
REMARK                         _______ _______ _______ _____ _____    ______ ____
ROOT
ATOM      1  C   UNL     1      -7.700  -2.493 127.399  0.00  0.00    +0.000 A 
ATOM      2  C   UNL     1      -8.225  -3.203 128.478  0.00  0.00    +0.000 A 
ATOM      3  C   UNL     1      -7.397  -3.592 129.546  0.00  0.00    +0.000 A 
ATOM      4  C   UNL     1      -6.036  -3.255 129.544  0.00  0.00    +0.000 A 
ATOM      5  C   UNL     1      -5.626  -2.379 128.546  0.00  0.00    +0.000 A 
ATOM      6  C   UNL     1      -6.379  -2.105 127.425  0.00  0.00    +0.000 A 
ENDROOT
BRANCH   1   7
ATOM      7  O   UNL     1      -8.563  -2.049 126.447  0.00  0.00    +0.000 OA
BRANCH   7   8
ATOM      8  C   UNL     1      -9.226  -3.081 125.715  0.00  0.00    +0.000 C 
BRANCH   8   9
ATOM      9  C   UNL     1      -9.401  -2.599 124.277  0.00  0.00    +0.000 C 
BRANCH   9  10
ATOM     10  O   UNL     1     -10.105  -3.569 123.492  0.00  0.00    +0.000 OA
ATOM     11  H   UNL     1      -9.476  -4.276 123.275  0.00  0.00    +0.000 HD
ENDBRANCH   9  10
BRANCH   9  12
ATOM     12  C   UNL     1      -8.017  -2.366 123.671  0.00  0.00    +0.000 C 
BRANCH  12  13
ATOM     13  N   UNL     1      -7.089  -3.417 124.086  0.00  0.00    +0.000 NA
ATOM     14  H   UNL     1      -7.274  -3.644 125.067  0.00  0.00    +0.000 HD
BRANCH  13  16
ATOM     15  C   UNL     1      -4.841  -4.307 123.829  0.00  0.00    +0.000 C 
ATOM     16  C   UNL     1      -5.692  -3.039 123.881  0.00  0.00    +0.000 C 
ATOM     17  C   UNL     1      -5.524  -2.262 122.573  0.00  0.00    +0.000 C 
ENDBRANCH  13  16
ENDBRANCH  12  13
ENDBRANCH   9  12
ENDBRANCH   8   9
ENDBRANCH   7   8
ENDBRANCH   1   7
BRANCH   4  18
ATOM     18  C   UNL     1      -5.078  -3.803 130.586  0.00  0.00    +0.000 C 
BRANCH  18  19
ATOM     19  C   UNL     1      -3.620  -3.300 130.679  0.00  0.00    +0.000 C 
ATOM     20  N   UNL     1      -3.193  -2.514 131.713  0.00  0.00    +0.000 N 
ATOM     21  O   UNL     1      -2.795  -3.599 129.828  0.00  0.00    +0.000 OA
ATOM     22  H   UNL     1      -3.795  -1.815 132.123  0.00  0.00    +0.000 HD
ATOM     23  H   UNL     1      -2.213  -2.267 131.724  0.00  0.00    +0.000 HD
ENDBRANCH  18  19
ENDBRANCH   4  18
TORSDOF 9
ENDMDL
MODEL 5
REMARK VINA RESULT:      -5.8      8.510      9.652
REMARK  Name = Atenolol
REMARK  11 active torsions:
REMARK  status: ('A' for Active; 'I' for Inactive)
REMARK    1  A    between atoms: C_1  and  C_2
REMARK    2  A    between atoms: C_2  and  C_3
REMARK    3  A    between atoms: C_2  and  N_4
REMARK    4  A    between atoms: N_4  and  C_5
REMARK    5  A    between atoms: C_5  and  C_6
REMARK    6  A    between atoms: C_6  and  O_7
REMARK    7  A    between atoms: C_6  and  C_8
REMARK    8  A    between atoms: C_8  and  O_9
REMARK    9  A    between atoms: O_9  and  C_10
REMARK   10  A    between atoms: C_13  and  C_14
REMARK   11  A    between atoms: C_14  and  C_15
REMARK                            x       y       z     vdW  Elec       q    Type
REMARK                         _______ _______ _______ _____ _____    ______ ____
ROOT
ATOM      1  C   UNL     1      -8.425   5.990 132.119  0.00  0.00    +0.000 A 
ATOM      2  C   UNL     1      -8.265   6.807 131.000  0.00  0.00    +0.000 A 
ATOM      3  C   UNL     1      -6.984   7.227 130.600  0.00  0.00    +0.000 A 
ATOM      4  C   UNL     1      -5.851   6.814 131.315  0.00  0.00    +0.000 A 
ATOM      5  C   UNL     1      -6.062   5.844 132.288  0.00  0.00    +0.000 A 
ATOM      6  C   UNL     1      -7.310   5.531 132.784  0.00  0.00    +0.000 A 
ENDROOT
BRANCH   1   7
ATOM      7  O   UNL     1      -9.672   5.527 132.398  0.00  0.00    +0.000 OA
BRANCH   7   8
ATOM      8  C   UNL     1     -10.728   6.443 132.105  0.00  0.00    +0.000 C 
BRANCH   8   9
ATOM      9  C   UNL     1     -11.711   5.743 131.169  0.00  0.00    +0.000 C 
BRANCH   9  10
ATOM     10  O   UNL     1     -11.214   4.461 130.770  0.00  0.00    +0.000 OA
ATOM     11  H   UNL     1     -10.246   4.496 130.825  0.00  0.00    +0.000 HD
ENDBRANCH   9  10
BRANCH   9  12
ATOM     12  C   UNL     1     -11.909   6.617 129.931  0.00  0.00    +0.000 C 
BRANCH  12  13
ATOM     13  N   UNL     1     -10.980   6.227 128.871  0.00  0.00    +0.000 NA
ATOM     14  H   UNL     1     -10.042   6.148 129.275  0.00  0.00    +0.000 HD
BRANCH  13  16
ATOM     15  C   UNL     1     -12.420   7.244 127.197  0.00  0.00    +0.000 C 
ATOM     16  C   UNL     1     -10.997   7.159 127.745  0.00  0.00    +0.000 C 
ATOM     17  C   UNL     1     -10.539   8.552 128.184  0.00  0.00    +0.000 C 
ENDBRANCH  13  16
ENDBRANCH  12  13
ENDBRANCH   9  12
ENDBRANCH   8   9
ENDBRANCH   7   8
ENDBRANCH   1   7
BRANCH   4  18
ATOM     18  C   UNL     1      -4.474   7.382 131.022  0.00  0.00    +0.000 C 
BRANCH  18  19
ATOM     19  C   UNL     1      -4.154   8.051 129.666  0.00  0.00    +0.000 C 
ATOM     20  N   UNL     1      -4.052   9.408 129.537  0.00  0.00    +0.000 N 
ATOM     21  O   UNL     1      -3.972   7.381 128.660  0.00  0.00    +0.000 OA
ATOM     22  H   UNL     1      -4.648  10.030 130.064  0.00  0.00    +0.000 HD
ATOM     23  H   UNL     1      -3.794   9.763 128.627  0.00  0.00    +0.000 HD
ENDBRANCH  18  19
ENDBRANCH   4  18
TORSDOF 9
ENDMDL
MODEL 6
REMARK VINA RESULT:      -5.8      3.180      6.501
REMARK  Name = Atenolol
REMARK  11 active torsions:
REMARK  status: ('A' for Active; 'I' for Inactive)
REMARK    1  A    between atoms: C_1  and  C_2
REMARK    2  A    between atoms: C_2  and  C_3
REMARK    3  A    between atoms: C_2  and  N_4
REMARK    4  A    between atoms: N_4  and  C_5
REMARK    5  A    between atoms: C_5  and  C_6
REMARK    6  A    between atoms: C_6  and  O_7
REMARK    7  A    between atoms: C_6  and  C_8
REMARK    8  A    between atoms: C_8  and  O_9
REMARK    9  A    between atoms: O_9  and  C_10
REMARK   10  A    between atoms: C_13  and  C_14
REMARK   11  A    between atoms: C_14  and  C_15
REMARK                            x       y       z     vdW  Elec       q    Type
REMARK                         _______ _______ _______ _____ _____    ______ ____
ROOT
ATOM      1  C   UNL     1      -6.368   0.303 125.301  0.00  0.00    +0.000 A 
ATOM      2  C   UNL     1      -7.067  -0.242 124.224  0.00  0.00    +0.000 A 
ATOM      3  C   UNL     1      -6.922  -1.602 123.895  0.00  0.00    +0.000 A 
ATOM      4  C   UNL     1      -6.084  -2.428 124.658  0.00  0.00    +0.000 A 
ATOM      5  C   UNL     1      -5.581  -1.873 125.829  0.00  0.00    +0.000 A 
ATOM      6  C   UNL     1      -5.596  -0.519 126.090  0.00  0.00    +0.000 A 
ENDROOT
BRANCH   1   7
ATOM      7  O   UNL     1      -6.627   1.594 125.641  0.00  0.00    +0.000 OA
BRANCH   7   8
ATOM      8  C   UNL     1      -7.978   2.006 125.434  0.00  0.00    +0.000 C 
BRANCH   8   9
ATOM      9  C   UNL     1      -7.953   3.374 124.755  0.00  0.00    +0.000 C 
BRANCH   9  10
ATOM     10  O   UNL     1      -9.015   4.205 125.237  0.00  0.00    +0.000 OA
ATOM     11  H   UNL     1      -8.868   4.340 126.187  0.00  0.00    +0.000 HD
ENDBRANCH   9  10
BRANCH   9  12
ATOM     12  C   UNL     1      -8.112   3.173 123.249  0.00  0.00    +0.000 C 
BRANCH  12  13
ATOM     13  N   UNL     1      -6.819   2.886 122.628  0.00  0.00    +0.000 NA
ATOM     14  H   UNL     1      -6.098   2.904 123.357  0.00  0.00    +0.000 HD
BRANCH  13  16
ATOM     15  C   UNL     1      -5.224   3.347 120.852  0.00  0.00    +0.000 C 
ATOM     16  C   UNL     1      -6.502   3.814 121.545  0.00  0.00    +0.000 C 
ATOM     17  C   UNL     1      -7.641   3.868 120.523  0.00  0.00    +0.000 C 
ENDBRANCH  13  16
ENDBRANCH  12  13
ENDBRANCH   9  12
ENDBRANCH   8   9
ENDBRANCH   7   8
ENDBRANCH   1   7
BRANCH   4  18
ATOM     18  C   UNL     1      -5.767  -3.850 124.233  0.00  0.00    +0.000 C 
BRANCH  18  19
ATOM     19  C   UNL     1      -4.436  -4.200 123.530  0.00  0.00    +0.000 C 
ATOM     20  N   UNL     1      -4.123  -5.483 123.176  0.00  0.00    +0.000 N 
ATOM     21  O   UNL     1      -3.618  -3.332 123.261  0.00  0.00    +0.000 OA
ATOM     22  H   UNL     1      -4.392  -6.266 123.753  0.00  0.00    +0.000 HD
ATOM     23  H   UNL     1      -3.255  -5.620 122.678  0.00  0.00    +0.000 HD
ENDBRANCH  18  19
ENDBRANCH   4  18
TORSDOF 9
ENDMDL
MODEL 7
REMARK VINA RESULT:      -5.8      8.129      9.987
REMARK  Name = Atenolol
REMARK  11 active torsions:
REMARK  status: ('A' for Active; 'I' for Inactive)
REMARK    1  A    between atoms: C_1  and  C_2
REMARK    2  A    between atoms: C_2  and  C_3
REMARK    3  A    between atoms: C_2  and  N_4
REMARK    4  A    between atoms: N_4  and  C_5
REMARK    5  A    between atoms: C_5  and  C_6
REMARK    6  A    between atoms: C_6  and  O_7
REMARK    7  A    between atoms: C_6  and  C_8
REMARK    8  A    between atoms: C_8  and  O_9
REMARK    9  A    between atoms: O_9  and  C_10
REMARK   10  A    between atoms: C_13  and  C_14
REMARK   11  A    between atoms: C_14  and  C_15
REMARK                            x       y       z     vdW  Elec       q    Type
REMARK                         _______ _______ _______ _____ _____    ______ ____
ROOT
ATOM      1  C   UNL     1      -8.797   6.532 131.402  0.00  0.00    +0.000 A 
ATOM      2  C   UNL     1      -9.880   6.068 132.149  0.00  0.00    +0.000 A 
ATOM      3  C   UNL     1     -11.196   6.372 131.760  0.00  0.00    +0.000 A 
ATOM      4  C   UNL     1     -11.434   7.134 130.607  0.00  0.00    +0.000 A 
ATOM      5  C   UNL     1     -10.328   7.389 129.805  0.00  0.00    +0.000 A 
ATOM      6  C   UNL     1      -9.029   7.224 130.235  0.00  0.00    +0.000 A 
ENDROOT
BRANCH   1   7
ATOM      7  O   UNL     1      -7.552   6.119 131.761  0.00  0.00    +0.000 OA
BRANCH   7   8
ATOM      8  C   UNL     1      -6.903   5.280 130.805  0.00  0.00    +0.000 C 
BRANCH   8   9
ATOM      9  C   UNL     1      -5.505   5.843 130.558  0.00  0.00    +0.000 C 
BRANCH   9  10
ATOM     10  O   UNL     1      -5.558   7.248 130.287  0.00  0.00    +0.000 OA
ATOM     11  H   UNL     1      -4.897   7.435 129.601  0.00  0.00    +0.000 HD
ENDBRANCH   9  10
BRANCH   9  12
ATOM     12  C   UNL     1      -4.894   5.119 129.358  0.00  0.00    +0.000 C 
BRANCH  12  13
ATOM     13  N   UNL     1      -4.409   6.080 128.369  0.00  0.00    +0.000 NA
ATOM     14  H   UNL     1      -5.041   6.063 127.563  0.00  0.00    +0.000 HD
BRANCH  13  16
ATOM     15  C   UNL     1      -2.087   6.497 128.961  0.00  0.00    +0.000 C 
ATOM     16  C   UNL     1      -3.028   5.817 127.968  0.00  0.00    +0.000 C 
ATOM     17  C   UNL     1      -2.743   4.313 127.950  0.00  0.00    +0.000 C 
ENDBRANCH  13  16
ENDBRANCH  12  13
ENDBRANCH   9  12
ENDBRANCH   8   9
ENDBRANCH   7   8
ENDBRANCH   1   7
BRANCH   4  18
ATOM     18  C   UNL     1     -12.825   7.628 130.252  0.00  0.00    +0.000 C 
BRANCH  18  19
ATOM     19  C   UNL     1     -13.091   8.400 128.940  0.00  0.00    +0.000 C 
ATOM     20  N   UNL     1     -12.908   9.751 128.849  0.00  0.00    +0.000 N 
ATOM     21  O   UNL     1     -13.470   7.819 127.933  0.00  0.00    +0.000 OA
ATOM     22  H   UNL     1     -13.119  10.362 129.623  0.00  0.00    +0.000 HD
ATOM     23  H   UNL     1     -13.059  10.173 127.943  0.00  0.00    +0.000 HD
ENDBRANCH  18  19
ENDBRANCH   4  18
TORSDOF 9
ENDMDL
MODEL 8
REMARK VINA RESULT:      -5.8      9.848     11.116
REMARK  Name = Atenolol
REMARK  11 active torsions:
REMARK  status: ('A' for Active; 'I' for Inactive)
REMARK    1  A    between atoms: C_1  and  C_2
REMARK    2  A    between atoms: C_2  and  C_3
REMARK    3  A    between atoms: C_2  and  N_4
REMARK    4  A    between atoms: N_4  and  C_5
REMARK    5  A    between atoms: C_5  and  C_6
REMARK    6  A    between atoms: C_6  and  O_7
REMARK    7  A    between atoms: C_6  and  C_8
REMARK    8  A    between atoms: C_8  and  O_9
REMARK    9  A    between atoms: O_9  and  C_10
REMARK   10  A    between atoms: C_13  and  C_14
REMARK   11  A    between atoms: C_14  and  C_15
REMARK                            x       y       z     vdW  Elec       q    Type
REMARK                         _______ _______ _______ _____ _____    ______ ____
ROOT
ATOM      1  C   UNL     1     -10.459   6.792 130.553  0.00  0.00    +0.000 A 
ATOM      2  C   UNL     1     -11.789   6.775 130.975  0.00  0.00    +0.000 A 
ATOM      3  C   UNL     1     -12.739   7.615 130.368  0.00  0.00    +0.000 A 
ATOM      4  C   UNL     1     -12.362   8.467 129.321  0.00  0.00    +0.000 A 
ATOM      5  C   UNL     1     -11.079   8.287 128.818  0.00  0.00    +0.000 A 
ATOM      6  C   UNL     1     -10.100   7.580 129.483  0.00  0.00    +0.000 A 
ENDROOT
BRANCH   1   7
ATOM      7  O   UNL     1      -9.605   5.885 131.099  0.00  0.00    +0.000 OA
BRANCH   7   8
ATOM      8  C   UNL     1      -9.684   5.772 132.521  0.00  0.00    +0.000 C 
BRANCH   8   9
ATOM      9  C   UNL     1      -9.286   4.348 132.902  0.00  0.00    +0.000 C 
BRANCH   9  10
ATOM     10  O   UNL     1      -9.988   3.915 134.072  0.00  0.00    +0.000 OA
ATOM     11  H   UNL     1      -9.710   3.003 134.255  0.00  0.00    +0.000 HD
ENDBRANCH   9  10
BRANCH   9  12
ATOM     12  C   UNL     1      -7.782   4.320 133.174  0.00  0.00    +0.000 C 
BRANCH  12  13
ATOM     13  N   UNL     1      -7.510   3.784 134.508  0.00  0.00    +0.000 NA
ATOM     14  H   UNL     1      -8.392   3.749 135.029  0.00  0.00    +0.000 HD
BRANCH  13  16
ATOM     15  C   UNL     1      -5.354   3.632 135.620  0.00  0.00    +0.000 C 
ATOM     16  C   UNL     1      -6.500   4.561 135.225  0.00  0.00    +0.000 C 
ATOM     17  C   UNL     1      -5.957   5.690 134.347  0.00  0.00    +0.000 C 
ENDBRANCH  13  16
ENDBRANCH  12  13
ENDBRANCH   9  12
ENDBRANCH   8   9
ENDBRANCH   7   8
ENDBRANCH   1   7
BRANCH   4  18
ATOM     18  C   UNL     1     -13.314   9.508 128.760  0.00  0.00    +0.000 C 
BRANCH  18  19
ATOM     19  C   UNL     1     -13.527  10.865 129.468  0.00  0.00    +0.000 C 
ATOM     20  N   UNL     1     -13.887  11.990 128.779  0.00  0.00    +0.000 N 
ATOM     21  O   UNL     1     -13.385  10.974 130.678  0.00  0.00    +0.000 OA
ATOM     22  H   UNL     1     -13.537  12.169 127.850  0.00  0.00    +0.000 HD
ATOM     23  H   UNL     1     -14.052  12.825 129.322  0.00  0.00    +0.000 HD
ENDBRANCH  18  19
ENDBRANCH   4  18
TORSDOF 9
ENDMDL
MODEL 9
REMARK VINA RESULT:      -5.5      8.319      9.714
REMARK  Name = Atenolol
REMARK  11 active torsions:
REMARK  status: ('A' for Active; 'I' for Inactive)
REMARK    1  A    between atoms: C_1  and  C_2
REMARK    2  A    between atoms: C_2  and  C_3
REMARK    3  A    between atoms: C_2  and  N_4
REMARK    4  A    between atoms: N_4  and  C_5
REMARK    5  A    between atoms: C_5  and  C_6
REMARK    6  A    between atoms: C_6  and  O_7
REMARK    7  A    between atoms: C_6  and  C_8
REMARK    8  A    between atoms: C_8  and  O_9
REMARK    9  A    between atoms: O_9  and  C_10
REMARK   10  A    between atoms: C_13  and  C_14
REMARK   11  A    between atoms: C_14  and  C_15
REMARK                            x       y       z     vdW  Elec       q    Type
REMARK                         _______ _______ _______ _____ _____    ______ ____
ROOT
ATOM      1  C   UNL     1      -8.245   6.372 132.155  0.00  0.00    +0.000 A 
ATOM      2  C   UNL     1      -7.497   6.914 131.109  0.00  0.00    +0.000 A 
ATOM      3  C   UNL     1      -6.098   6.772 131.086  0.00  0.00    +0.000 A 
ATOM      4  C   UNL     1      -5.442   6.070 132.108  0.00  0.00    +0.000 A 
ATOM      5  C   UNL     1      -6.259   5.388 133.002  0.00  0.00    +0.000 A 
ATOM      6  C   UNL     1      -7.611   5.628 133.124  0.00  0.00    +0.000 A 
ENDROOT
BRANCH   1   7
ATOM      7  O   UNL     1      -9.600   6.445 132.073  0.00  0.00    +0.000 OA
BRANCH   7   8
ATOM      8  C   UNL     1     -10.106   6.706 130.763  0.00  0.00    +0.000 C 
BRANCH   8   9
ATOM      9  C   UNL     1     -11.455   6.003 130.631  0.00  0.00    +0.000 C 
BRANCH   9  10
ATOM     10  O   UNL     1     -12.228   6.148 131.828  0.00  0.00    +0.000 OA
ATOM     11  H   UNL     1     -11.604   6.277 132.561  0.00  0.00    +0.000 HD
ENDBRANCH   9  10
BRANCH   9  12
ATOM     12  C   UNL     1     -11.206   4.519 130.367  0.00  0.00    +0.000 C 
BRANCH  12  13
ATOM     13  N   UNL     1      -9.893   4.318 129.755  0.00  0.00    +0.000 NA
ATOM     14  H   UNL     1     -10.005   4.324 128.737  0.00  0.00    +0.000 HD
BRANCH  13  16
ATOM     15  C   UNL     1      -7.733   3.274 130.153  0.00  0.00    +0.000 C 
ATOM     16  C   UNL     1      -9.248   3.088 130.211  0.00  0.00    +0.000 C 
ATOM     17  C   UNL     1      -9.663   2.756 131.647  0.00  0.00    +0.000 C 
ENDBRANCH  13  16
ENDBRANCH  12  13
ENDBRANCH   9  12
ENDBRANCH   8   9
ENDBRANCH   7   8
ENDBRANCH   1   7
BRANCH   4  18
ATOM     18  C   UNL     1      -3.928   6.045 132.211  0.00  0.00    +0.000 C 
BRANCH  18  19
ATOM     19  C   UNL     1      -3.056   7.095 131.486  0.00  0.00    +0.000 C 
ATOM     20  N   UNL     1      -2.866   8.350 131.995  0.00  0.00    +0.000 N 
ATOM     21  O   UNL     1      -2.500   6.832 130.429  0.00  0.00    +0.000 OA
ATOM     22  H   UNL     1      -3.604   8.834 132.484  0.00  0.00    +0.000 HD
ATOM     23  H   UNL     1      -2.244   8.961 131.484  0.00  0.00    +0.000 HD
ENDBRANCH  18  19
ENDBRANCH   4  18
TORSDOF 9
ENDMDL
