MODEL 1
REMARK VINA RESULT:     -10.7      0.000      0.000
REMARK  Name = Atogepant
REMARK  6 active torsions:
REMARK  status: ('A' for Active; 'I' for Inactive)
REMARK    1  A    between atoms: C_1  and  C_2
REMARK    2  A    between atoms: C_3  and  C_35
REMARK    3  A    between atoms: C_5  and  N_6
REMARK    4  A    between atoms: C_7  and  C_9
REMARK    5  A    between atoms: N_29  and  C_30
REMARK    6  A    between atoms: C_30  and  C_31
REMARK                            x       y       z     vdW  Elec       q    Type
REMARK                         _______ _______ _______ _____ _____    ______ ____
ROOT
ATOM      1  N   UNL     1      -6.965   3.081 127.105  0.00  0.00    +0.000 N 
ATOM      2  C   UNL     1      -5.706   3.486 127.491  0.00  0.00    +0.000 C 
ATOM      3  O   UNL     1      -4.710   3.339 126.791  0.00  0.00    +0.000 OA
ATOM      4  H   UNL     1      -7.780   3.464 127.569  0.00  0.00    +0.000 HD
ENDROOT
BRANCH   2   5
ATOM      5  C   UNL     1      -5.576   4.141 128.803  0.00  0.00    +0.000 A 
ATOM      6  C   UNL     1      -6.681   4.589 129.526  0.00  0.00    +0.000 A 
ATOM      7  N   UNL     1      -6.608   5.137 130.771  0.00  0.00    +0.000 NA
ATOM      8  C   UNL     1      -5.371   5.206 131.296  0.00  0.00    +0.000 A 
ATOM      9  C   UNL     1      -5.071   5.763 132.659  0.00  0.00    +0.000 C 
ATOM     10  C   UNL     1      -3.533   5.674 132.727  0.00  0.00    +0.000 C 
ATOM     11  C   UNL     1      -2.992   4.984 131.459  0.00  0.00    +0.000 C 
ATOM     12  C   UNL     1      -4.222   4.781 130.649  0.00  0.00    +0.000 A 
ATOM     13  C   UNL     1      -4.313   4.232 129.384  0.00  0.00    +0.000 A 
ATOM     14  C   UNL     1      -3.087   4.897 133.974  0.00  0.00    +0.000 C 
ATOM     15  O   UNL     1      -3.361   3.731 134.248  0.00  0.00    +0.000 OA
ATOM     16  N   UNL     1      -2.303   5.740 134.738  0.00  0.00    +0.000 N 
ATOM     17  C   UNL     1      -2.181   6.986 134.153  0.00  0.00    +0.000 A 
ATOM     18  C   UNL     1      -2.885   7.010 132.960  0.00  0.00    +0.000 A 
ATOM     19  C   UNL     1      -2.901   8.158 132.191  0.00  0.00    +0.000 A 
ATOM     20  C   UNL     1      -2.199   9.255 132.675  0.00  0.00    +0.000 A 
ATOM     21  C   UNL     1      -1.521   9.135 133.891  0.00  0.00    +0.000 A 
ATOM     22  N   UNL     1      -1.491   8.011 134.652  0.00  0.00    +0.000 NA
ATOM     23  H   UNL     1      -1.873   5.483 135.611  0.00  0.00    +0.000 HD
ENDBRANCH   2   5
BRANCH   1  28
ATOM     24  C   UNL     1     -10.141   1.186 124.221  0.00  0.00    +0.000 C 
ATOM     25  C   UNL     1      -8.704   1.263 123.669  0.00  0.00    +0.000 C 
ATOM     26  C   UNL     1      -7.692   0.408 124.485  0.00  0.00    +0.000 C 
ATOM     27  C   UNL     1      -7.528   1.054 125.874  0.00  0.00    +0.000 C 
ATOM     28  C   UNL     1      -7.124   2.513 125.776  0.00  0.00    +0.000 C 
ATOM     29  C   UNL     1      -8.116   3.288 124.881  0.00  0.00    +0.000 C 
ATOM     30  O   UNL     1      -8.677   4.335 125.179  0.00  0.00    +0.000 OA
ATOM     31  N   UNL     1      -8.265   2.661 123.648  0.00  0.00    +0.000 N 
BRANCH  26  32
ATOM     32  C   UNL     1      -8.129  -1.043 124.524  0.00  0.00    +0.000 A 
ATOM     33  C   UNL     1      -8.730  -1.551 125.684  0.00  0.00    +0.000 A 
ATOM     34  F   UNL     1      -9.171  -0.712 126.633  0.00  0.00    +0.000 F 
ATOM     35  C   UNL     1      -8.799  -2.922 125.902  0.00  0.00    +0.000 A 
ATOM     36  F   UNL     1      -9.271  -3.399 127.061  0.00  0.00    +0.000 F 
ATOM     37  C   UNL     1      -8.368  -3.810 124.927  0.00  0.00    +0.000 A 
ATOM     38  C   UNL     1      -8.016  -3.321 123.677  0.00  0.00    +0.000 A 
ATOM     39  C   UNL     1      -7.844  -1.956 123.503  0.00  0.00    +0.000 A 
ATOM     40  F   UNL     1      -7.314  -1.566 122.337  0.00  0.00    +0.000 F 
ENDBRANCH  26  32
BRANCH  31  41
ATOM     41  C   UNL     1      -8.036   3.412 122.395  0.00  0.00    +0.000 C 
BRANCH  41  42
ATOM     42  C   UNL     1      -6.591   3.528 121.910  0.00  0.00    +0.000 C 
ATOM     43  F   UNL     1      -6.027   2.303 121.781  0.00  0.00    +0.000 F 
ATOM     44  F   UNL     1      -6.535   4.141 120.705  0.00  0.00    +0.000 F 
ATOM     45  F   UNL     1      -5.823   4.234 122.764  0.00  0.00    +0.000 F 
ENDBRANCH  41  42
ENDBRANCH  31  41
ENDBRANCH   1  28
TORSDOF 5
ENDMDL
MODEL 2
REMARK VINA RESULT:     -10.5      1.717      2.537
REMARK  Name = Atogepant
REMARK  6 active torsions:
REMARK  status: ('A' for Active; 'I' for Inactive)
REMARK    1  A    between atoms: C_1  and  C_2
REMARK    2  A    between atoms: C_3  and  C_35
REMARK    3  A    between atoms: C_5  and  N_6
REMARK    4  A    between atoms: C_7  and  C_9
REMARK    5  A    between atoms: N_29  and  C_30
REMARK    6  A    between atoms: C_30  and  C_31
REMARK                            x       y       z     vdW  Elec       q    Type
REMARK                         _______ _______ _______ _____ _____    ______ ____
ROOT
ATOM      1  N   UNL     1      -5.372   4.066 127.229  0.00  0.00    +0.000 N 
ATOM      2  C   UNL     1      -4.174   4.621 127.622  0.00  0.00    +0.000 C 
ATOM      3  O   UNL     1      -3.161   4.587 126.934  0.00  0.00    +0.000 OA
ATOM      4  H   UNL     1      -6.231   4.354 127.681  0.00  0.00    +0.000 HD
ENDROOT
BRANCH   2   5
ATOM      5  C   UNL     1      -4.137   5.300 128.929  0.00  0.00    +0.000 A 
ATOM      6  C   UNL     1      -5.266   5.421 129.739  0.00  0.00    +0.000 A 
ATOM      7  N   UNL     1      -5.257   5.980 130.981  0.00  0.00    +0.000 NA
ATOM      8  C   UNL     1      -4.055   6.404 131.412  0.00  0.00    +0.000 A 
ATOM      9  C   UNL     1      -3.824   7.038 132.754  0.00  0.00    +0.000 C 
ATOM     10  C   UNL     1      -2.323   7.392 132.704  0.00  0.00    +0.000 C 
ATOM     11  C   UNL     1      -1.706   6.872 131.391  0.00  0.00    +0.000 C 
ATOM     12  C   UNL     1      -2.886   6.318 130.674  0.00  0.00    +0.000 A 
ATOM     13  C   UNL     1      -2.912   5.753 129.413  0.00  0.00    +0.000 A 
ATOM     14  C   UNL     1      -1.580   6.787 133.905  0.00  0.00    +0.000 C 
ATOM     15  O   UNL     1      -1.489   5.594 134.184  0.00  0.00    +0.000 OA
ATOM     16  N   UNL     1      -1.014   7.827 134.617  0.00  0.00    +0.000 N 
ATOM     17  C   UNL     1      -1.297   9.050 134.039  0.00  0.00    +0.000 A 
ATOM     18  C   UNL     1      -2.067   8.860 132.903  0.00  0.00    +0.000 A 
ATOM     19  C   UNL     1      -2.469   9.947 132.152  0.00  0.00    +0.000 A 
ATOM     20  C   UNL     1      -2.074  11.204 132.594  0.00  0.00    +0.000 A 
ATOM     21  C   UNL     1      -1.300  11.295 133.753  0.00  0.00    +0.000 A 
ATOM     22  N   UNL     1      -0.893  10.233 134.497  0.00  0.00    +0.000 NA
ATOM     23  H   UNL     1      -0.463   7.712 135.452  0.00  0.00    +0.000 HD
ENDBRANCH   2   5
BRANCH   1  28
ATOM     24  C   UNL     1      -8.395   2.910 123.834  0.00  0.00    +0.000 C 
ATOM     25  C   UNL     1      -6.921   2.554 123.561  0.00  0.00    +0.000 C 
ATOM     26  C   UNL     1      -6.349   1.515 124.569  0.00  0.00    +0.000 C 
ATOM     27  C   UNL     1      -6.257   2.188 125.951  0.00  0.00    +0.000 C 
ATOM     28  C   UNL     1      -5.448   3.471 125.904  0.00  0.00    +0.000 C 
ATOM     29  C   UNL     1      -6.009   4.422 124.825  0.00  0.00    +0.000 C 
ATOM     30  O   UNL     1      -6.297   5.600 124.992  0.00  0.00    +0.000 OA
ATOM     31  N   UNL     1      -6.110   3.774 123.597  0.00  0.00    +0.000 N 
BRANCH  26  32
ATOM     32  C   UNL     1      -7.175   0.244 124.552  0.00  0.00    +0.000 A 
ATOM     33  C   UNL     1      -7.154  -0.577 123.416  0.00  0.00    +0.000 A 
ATOM     34  F   UNL     1      -6.211  -0.400 122.479  0.00  0.00    +0.000 F 
ATOM     35  C   UNL     1      -8.152  -1.521 123.208  0.00  0.00    +0.000 A 
ATOM     36  F   UNL     1      -8.191  -2.223 122.069  0.00  0.00    +0.000 F 
ATOM     37  C   UNL     1      -9.127  -1.736 124.172  0.00  0.00    +0.000 A 
ATOM     38  C   UNL     1      -9.003  -1.115 125.406  0.00  0.00    +0.000 A 
ATOM     39  C   UNL     1      -8.075  -0.098 125.568  0.00  0.00    +0.000 A 
ATOM     40  F   UNL     1      -8.140   0.593 126.712  0.00  0.00    +0.000 F 
ENDBRANCH  26  32
BRANCH  31  41
ATOM     41  C   UNL     1      -5.463   4.344 122.396  0.00  0.00    +0.000 C 
BRANCH  41  42
ATOM     42  C   UNL     1      -5.882   3.769 121.043  0.00  0.00    +0.000 C 
ATOM     43  F   UNL     1      -5.287   4.443 120.030  0.00  0.00    +0.000 F 
ATOM     44  F   UNL     1      -5.525   2.467 120.942  0.00  0.00    +0.000 F 
ATOM     45  F   UNL     1      -7.213   3.846 120.848  0.00  0.00    +0.000 F 
ENDBRANCH  41  42
ENDBRANCH  31  41
ENDBRANCH   1  28
TORSDOF 5
ENDMDL
MODEL 3
REMARK VINA RESULT:     -10.1      7.800     13.342
REMARK  Name = Atogepant
REMARK  6 active torsions:
REMARK  status: ('A' for Active; 'I' for Inactive)
REMARK    1  A    between atoms: C_1  and  C_2
REMARK    2  A    between atoms: C_3  and  C_35
REMARK    3  A    between atoms: C_5  and  N_6
REMARK    4  A    between atoms: C_7  and  C_9
REMARK    5  A    between atoms: N_29  and  C_30
REMARK    6  A    between atoms: C_30  and  C_31
REMARK                            x       y       z     vdW  Elec       q    Type
REMARK                         _______ _______ _______ _____ _____    ______ ____
ROOT
ATOM      1  N   UNL     1      -3.334   8.007 132.212  0.00  0.00    +0.000 N 
ATOM      2  C   UNL     1      -3.301   7.033 131.238  0.00  0.00    +0.000 C 
ATOM      3  O   UNL     1      -2.260   6.557 130.799  0.00  0.00    +0.000 OA
ATOM      4  H   UNL     1      -4.186   8.165 132.736  0.00  0.00    +0.000 HD
ENDROOT
BRANCH   2   5
ATOM      5  C   UNL     1      -4.592   6.542 130.726  0.00  0.00    +0.000 A 
ATOM      6  C   UNL     1      -4.681   5.673 129.639  0.00  0.00    +0.000 A 
ATOM      7  N   UNL     1      -5.848   5.143 129.179  0.00  0.00    +0.000 NA
ATOM      8  C   UNL     1      -6.949   5.494 129.868  0.00  0.00    +0.000 A 
ATOM      9  C   UNL     1      -8.333   5.012 129.536  0.00  0.00    +0.000 C 
ATOM     10  C   UNL     1      -9.205   5.759 130.567  0.00  0.00    +0.000 C 
ATOM     11  C   UNL     1      -8.308   6.568 131.523  0.00  0.00    +0.000 C 
ATOM     12  C   UNL     1      -6.949   6.347 130.960  0.00  0.00    +0.000 A 
ATOM     13  C   UNL     1      -5.757   6.881 131.411  0.00  0.00    +0.000 A 
ATOM     14  C   UNL     1     -10.066   4.772 131.369  0.00  0.00    +0.000 C 
ATOM     15  O   UNL     1      -9.659   3.859 132.083  0.00  0.00    +0.000 OA
ATOM     16  N   UNL     1     -11.391   5.100 131.157  0.00  0.00    +0.000 N 
ATOM     17  C   UNL     1     -11.515   6.181 130.305  0.00  0.00    +0.000 A 
ATOM     18  C   UNL     1     -10.257   6.617 129.921  0.00  0.00    +0.000 A 
ATOM     19  C   UNL     1     -10.132   7.698 129.070  0.00  0.00    +0.000 A 
ATOM     20  C   UNL     1     -11.305   8.297 128.628  0.00  0.00    +0.000 A 
ATOM     21  C   UNL     1     -12.527   7.783 129.068  0.00  0.00    +0.000 A 
ATOM     22  N   UNL     1     -12.665   6.726 129.910  0.00  0.00    +0.000 NA
ATOM     23  H   UNL     1     -12.171   4.615 131.570  0.00  0.00    +0.000 HD
ENDBRANCH   2   5
BRANCH   1  28
ATOM     24  C   UNL     1      -1.461   9.904 136.071  0.00  0.00    +0.000 C 
ATOM     25  C   UNL     1      -0.471   9.612 134.926  0.00  0.00    +0.000 C 
ATOM     26  C   UNL     1      -0.767  10.438 133.641  0.00  0.00    +0.000 C 
ATOM     27  C   UNL     1      -2.094   9.935 133.042  0.00  0.00    +0.000 C 
ATOM     28  C   UNL     1      -2.071   8.439 132.790  0.00  0.00    +0.000 C 
ATOM     29  C   UNL     1      -1.684   7.682 134.079  0.00  0.00    +0.000 C 
ATOM     30  O   UNL     1      -2.299   6.740 134.565  0.00  0.00    +0.000 OA
ATOM     31  N   UNL     1      -0.500   8.181 134.611  0.00  0.00    +0.000 N 
BRANCH  26  32
ATOM     32  C   UNL     1      -0.747  11.923 133.944  0.00  0.00    +0.000 A 
ATOM     33  C   UNL     1       0.471  12.551 134.236  0.00  0.00    +0.000 A 
ATOM     34  F   UNL     1       1.628  11.923 133.977  0.00  0.00    +0.000 F 
ATOM     35  C   UNL     1       0.495  13.787 134.871  0.00  0.00    +0.000 A 
ATOM     36  F   UNL     1       1.659  14.329 135.251  0.00  0.00    +0.000 F 
ATOM     37  C   UNL     1      -0.687  14.464 135.132  0.00  0.00    +0.000 A 
ATOM     38  C   UNL     1      -1.876  13.972 134.613  0.00  0.00    +0.000 A 
ATOM     39  C   UNL     1      -1.908  12.692 134.080  0.00  0.00    +0.000 A 
ATOM     40  F   UNL     1      -3.117  12.202 133.780  0.00  0.00    +0.000 F 
ENDBRANCH  26  32
BRANCH  31  41
ATOM     41  C   UNL     1       0.638   7.277 134.882  0.00  0.00    +0.000 C 
BRANCH  41  42
ATOM     42  C   UNL     1       1.204   7.281 136.302  0.00  0.00    +0.000 C 
ATOM     43  F   UNL     1       0.207   7.209 137.218  0.00  0.00    +0.000 F 
ATOM     44  F   UNL     1       2.024   6.222 136.497  0.00  0.00    +0.000 F 
ATOM     45  F   UNL     1       1.909   8.399 136.566  0.00  0.00    +0.000 F 
ENDBRANCH  41  42
ENDBRANCH  31  41
ENDBRANCH   1  28
TORSDOF 5
ENDMDL
MODEL 4
REMARK VINA RESULT:     -10.0      2.170      2.730
REMARK  Name = Atogepant
REMARK  6 active torsions:
REMARK  status: ('A' for Active; 'I' for Inactive)
REMARK    1  A    between atoms: C_1  and  C_2
REMARK    2  A    between atoms: C_3  and  C_35
REMARK    3  A    between atoms: C_5  and  N_6
REMARK    4  A    between atoms: C_7  and  C_9
REMARK    5  A    between atoms: N_29  and  C_30
REMARK    6  A    between atoms: C_30  and  C_31
REMARK                            x       y       z     vdW  Elec       q    Type
REMARK                         _______ _______ _______ _____ _____    ______ ____
ROOT
ATOM      1  N   UNL     1      -7.042   3.116 127.028  0.00  0.00    +0.000 N 
ATOM      2  C   UNL     1      -5.809   3.610 127.393  0.00  0.00    +0.000 C 
ATOM      3  O   UNL     1      -4.816   3.532 126.678  0.00  0.00    +0.000 OA
ATOM      4  H   UNL     1      -7.874   3.442 127.504  0.00  0.00    +0.000 HD
ENDROOT
BRANCH   2   5
ATOM      5  C   UNL     1      -5.705   4.276 128.702  0.00  0.00    +0.000 A 
ATOM      6  C   UNL     1      -5.083   5.514 128.862  0.00  0.00    +0.000 A 
ATOM      7  N   UNL     1      -5.026   6.194 130.040  0.00  0.00    +0.000 NA
ATOM      8  C   UNL     1      -5.644   5.599 131.077  0.00  0.00    +0.000 A 
ATOM      9  C   UNL     1      -5.710   6.184 132.459  0.00  0.00    +0.000 C 
ATOM     10  C   UNL     1      -6.449   5.087 133.253  0.00  0.00    +0.000 C 
ATOM     11  C   UNL     1      -6.876   3.951 132.303  0.00  0.00    +0.000 C 
ATOM     12  C   UNL     1      -6.288   4.374 131.004  0.00  0.00    +0.000 A 
ATOM     13  C   UNL     1      -6.332   3.694 129.802  0.00  0.00    +0.000 A 
ATOM     14  C   UNL     1      -7.682   5.665 133.963  0.00  0.00    +0.000 C 
ATOM     15  O   UNL     1      -8.649   6.202 133.428  0.00  0.00    +0.000 OA
ATOM     16  N   UNL     1      -7.522   5.461 135.319  0.00  0.00    +0.000 N 
ATOM     17  C   UNL     1      -6.327   4.824 135.598  0.00  0.00    +0.000 A 
ATOM     18  C   UNL     1      -5.647   4.575 134.417  0.00  0.00    +0.000 A 
ATOM     19  C   UNL     1      -4.422   3.937 134.447  0.00  0.00    +0.000 A 
ATOM     20  C   UNL     1      -3.924   3.579 135.695  0.00  0.00    +0.000 A 
ATOM     21  C   UNL     1      -4.682   3.876 136.830  0.00  0.00    +0.000 A 
ATOM     22  N   UNL     1      -5.890   4.496 136.813  0.00  0.00    +0.000 NA
ATOM     23  H   UNL     1      -8.188   5.739 136.020  0.00  0.00    +0.000 HD
ENDBRANCH   2   5
BRANCH   1  28
ATOM     24  C   UNL     1     -10.161   1.129 124.142  0.00  0.00    +0.000 C 
ATOM     25  C   UNL     1      -8.723   1.234 123.597  0.00  0.00    +0.000 C 
ATOM     26  C   UNL     1      -7.697   0.407 124.425  0.00  0.00    +0.000 C 
ATOM     27  C   UNL     1      -7.554   1.068 125.810  0.00  0.00    +0.000 C 
ATOM     28  C   UNL     1      -7.181   2.535 125.703  0.00  0.00    +0.000 C 
ATOM     29  C   UNL     1      -8.185   3.281 124.797  0.00  0.00    +0.000 C 
ATOM     30  O   UNL     1      -8.771   4.317 125.084  0.00  0.00    +0.000 OA
ATOM     31  N   UNL     1      -8.314   2.641 123.568  0.00  0.00    +0.000 N 
BRANCH  26  32
ATOM     32  C   UNL     1      -8.101  -1.053 124.473  0.00  0.00    +0.000 A 
ATOM     33  C   UNL     1      -8.758  -1.549 125.608  0.00  0.00    +0.000 A 
ATOM     34  F   UNL     1      -9.273  -0.699 126.509  0.00  0.00    +0.000 F 
ATOM     35  C   UNL     1      -8.809  -2.915 125.854  0.00  0.00    +0.000 A 
ATOM     36  F   UNL     1      -9.337  -3.377 126.994  0.00  0.00    +0.000 F 
ATOM     37  C   UNL     1      -8.300  -3.815 124.927  0.00  0.00    +0.000 A 
ATOM     38  C   UNL     1      -7.887  -3.345 123.689  0.00  0.00    +0.000 A 
ATOM     39  C   UNL     1      -7.736  -1.981 123.492  0.00  0.00    +0.000 A 
ATOM     40  F   UNL     1      -7.148  -1.604 122.351  0.00  0.00    +0.000 F 
ENDBRANCH  26  32
BRANCH  31  41
ATOM     41  C   UNL     1      -8.095   3.387 122.310  0.00  0.00    +0.000 C 
BRANCH  41  42
ATOM     42  C   UNL     1      -6.656   3.487 121.805  0.00  0.00    +0.000 C 
ATOM     43  F   UNL     1      -6.082   2.261 121.741  0.00  0.00    +0.000 F 
ATOM     44  F   UNL     1      -6.616   4.030 120.565  0.00  0.00    +0.000 F 
ATOM     45  F   UNL     1      -5.885   4.247 122.609  0.00  0.00    +0.000 F 
ENDBRANCH  41  42
ENDBRANCH  31  41
ENDBRANCH   1  28
TORSDOF 5
ENDMDL
MODEL 5
REMARK VINA RESULT:      -9.9      7.417     13.012
REMARK  Name = Atogepant
REMARK  6 active torsions:
REMARK  status: ('A' for Active; 'I' for Inactive)
REMARK    1  A    between atoms: C_1  and  C_2
REMARK    2  A    between atoms: C_3  and  C_35
REMARK    3  A    between atoms: C_5  and  N_6
REMARK    4  A    between atoms: C_7  and  C_9
REMARK    5  A    between atoms: N_29  and  C_30
REMARK    6  A    between atoms: C_30  and  C_31
REMARK                            x       y       z     vdW  Elec       q    Type
REMARK                         _______ _______ _______ _____ _____    ______ ____
ROOT
ATOM      1  N   UNL     1      -3.631   7.491 132.818  0.00  0.00    +0.000 N 
ATOM      2  C   UNL     1      -3.522   6.656 131.728  0.00  0.00    +0.000 C 
ATOM      3  O   UNL     1      -2.451   6.227 131.315  0.00  0.00    +0.000 OA
ATOM      4  H   UNL     1      -4.522   7.590 133.288  0.00  0.00    +0.000 HD
ENDROOT
BRANCH   2   5
ATOM      5  C   UNL     1      -4.768   6.257 131.051  0.00  0.00    +0.000 A 
ATOM      6  C   UNL     1      -4.772   5.515 129.871  0.00  0.00    +0.000 A 
ATOM      7  N   UNL     1      -5.901   5.069 129.253  0.00  0.00    +0.000 NA
ATOM      8  C   UNL     1      -7.054   5.373 129.875  0.00  0.00    +0.000 A 
ATOM      9  C   UNL     1      -8.409   4.967 129.369  0.00  0.00    +0.000 C 
ATOM     10  C   UNL     1      -9.360   5.622 130.394  0.00  0.00    +0.000 C 
ATOM     11  C   UNL     1      -8.541   6.299 131.510  0.00  0.00    +0.000 C 
ATOM     12  C   UNL     1      -7.140   6.103 131.050  0.00  0.00    +0.000 A 
ATOM     13  C   UNL     1      -5.985   6.552 131.662  0.00  0.00    +0.000 A 
ATOM     14  C   UNL     1     -10.308   4.578 131.002  0.00  0.00    +0.000 C 
ATOM     15  O   UNL     1      -9.984   3.582 131.645  0.00  0.00    +0.000 OA
ATOM     16  N   UNL     1     -11.602   4.963 130.709  0.00  0.00    +0.000 N 
ATOM     17  C   UNL     1     -11.629   6.132 129.973  0.00  0.00    +0.000 A 
ATOM     18  C   UNL     1     -10.333   6.573 129.754  0.00  0.00    +0.000 A 
ATOM     19  C   UNL     1     -10.111   7.735 129.042  0.00  0.00    +0.000 A 
ATOM     20  C   UNL     1     -11.229   8.410 128.565  0.00  0.00    +0.000 A 
ATOM     21  C   UNL     1     -12.495   7.885 128.834  0.00  0.00    +0.000 A 
ATOM     22  N   UNL     1     -12.727   6.748 129.540  0.00  0.00    +0.000 NA
ATOM     23  H   UNL     1     -12.425   4.458 130.995  0.00  0.00    +0.000 HD
ENDBRANCH   2   5
BRANCH   1  28
ATOM     24  C   UNL     1      -1.851  10.564 135.882  0.00  0.00    +0.000 C 
ATOM     25  C   UNL     1      -0.875   9.480 135.386  0.00  0.00    +0.000 C 
ATOM     26  C   UNL     1      -0.602   9.562 133.856  0.00  0.00    +0.000 C 
ATOM     27  C   UNL     1      -1.897   9.178 133.116  0.00  0.00    +0.000 C 
ATOM     28  C   UNL     1      -2.418   7.821 133.550  0.00  0.00    +0.000 C 
ATOM     29  C   UNL     1      -2.583   7.774 135.084  0.00  0.00    +0.000 C 
ATOM     30  O   UNL     1      -3.590   7.415 135.683  0.00  0.00    +0.000 OA
ATOM     31  N   UNL     1      -1.407   8.156 135.722  0.00  0.00    +0.000 N 
BRANCH  26  32
ATOM     32  C   UNL     1      -0.055  10.926 133.484  0.00  0.00    +0.000 A 
ATOM     33  C   UNL     1      -0.737  11.708 132.542  0.00  0.00    +0.000 A 
ATOM     34  F   UNL     1      -1.992  11.389 132.189  0.00  0.00    +0.000 F 
ATOM     35  C   UNL     1      -0.098  12.765 131.905  0.00  0.00    +0.000 A 
ATOM     36  F   UNL     1      -0.717  13.436 130.925  0.00  0.00    +0.000 F 
ATOM     37  C   UNL     1       1.192  13.125 132.267  0.00  0.00    +0.000 A 
ATOM     38  C   UNL     1       1.774  12.526 133.374  0.00  0.00    +0.000 A 
ATOM     39  C   UNL     1       1.181  11.404 133.932  0.00  0.00    +0.000 A 
ATOM     40  F   UNL     1       1.889  10.757 134.865  0.00  0.00    +0.000 F 
ENDBRANCH  26  32
BRANCH  31  41
ATOM     41  C   UNL     1      -0.777   7.269 136.723  0.00  0.00    +0.000 C 
BRANCH  41  42
ATOM     42  C   UNL     1       0.744   7.129 136.668  0.00  0.00    +0.000 C 
ATOM     43  F   UNL     1       1.150   6.025 137.341  0.00  0.00    +0.000 F 
ATOM     44  F   UNL     1       1.172   7.016 135.389  0.00  0.00    +0.000 F 
ATOM     45  F   UNL     1       1.373   8.186 137.219  0.00  0.00    +0.000 F 
ENDBRANCH  41  42
ENDBRANCH  31  41
ENDBRANCH   1  28
TORSDOF 5
ENDMDL
MODEL 6
REMARK VINA RESULT:      -9.6      3.398      5.555
REMARK  Name = Atogepant
REMARK  6 active torsions:
REMARK  status: ('A' for Active; 'I' for Inactive)
REMARK    1  A    between atoms: C_1  and  C_2
REMARK    2  A    between atoms: C_3  and  C_35
REMARK    3  A    between atoms: C_5  and  N_6
REMARK    4  A    between atoms: C_7  and  C_9
REMARK    5  A    between atoms: N_29  and  C_30
REMARK    6  A    between atoms: C_30  and  C_31
REMARK                            x       y       z     vdW  Elec       q    Type
REMARK                         _______ _______ _______ _____ _____    ______ ____
ROOT
ATOM      1  N   UNL     1      -7.037   0.932 130.573  0.00  0.00    +0.000 N 
ATOM      2  C   UNL     1      -7.491   1.183 131.849  0.00  0.00    +0.000 C 
ATOM      3  O   UNL     1      -8.203   0.404 132.473  0.00  0.00    +0.000 OA
ATOM      4  H   UNL     1      -6.243   1.448 130.212  0.00  0.00    +0.000 HD
ENDROOT
BRANCH   2   5
ATOM      5  C   UNL     1      -7.073   2.445 132.482  0.00  0.00    +0.000 A 
ATOM      6  C   UNL     1      -7.991   3.382 132.956  0.00  0.00    +0.000 A 
ATOM      7  N   UNL     1      -7.646   4.526 133.608  0.00  0.00    +0.000 NA
ATOM      8  C   UNL     1      -6.326   4.703 133.799  0.00  0.00    +0.000 A 
ATOM      9  C   UNL     1      -5.734   5.890 134.506  0.00  0.00    +0.000 C 
ATOM     10  C   UNL     1      -4.218   5.632 134.382  0.00  0.00    +0.000 C 
ATOM     11  C   UNL     1      -3.972   4.270 133.704  0.00  0.00    +0.000 C 
ATOM     12  C   UNL     1      -5.349   3.821 133.365  0.00  0.00    +0.000 A 
ATOM     13  C   UNL     1      -5.715   2.667 132.701  0.00  0.00    +0.000 A 
ATOM     14  C   UNL     1      -3.548   5.656 135.764  0.00  0.00    +0.000 C 
ATOM     15  O   UNL     1      -3.795   4.913 136.710  0.00  0.00    +0.000 OA
ATOM     16  N   UNL     1      -2.598   6.659 135.754  0.00  0.00    +0.000 N 
ATOM     17  C   UNL     1      -2.562   7.311 134.536  0.00  0.00    +0.000 A 
ATOM     18  C   UNL     1      -3.497   6.749 133.681  0.00  0.00    +0.000 A 
ATOM     19  C   UNL     1      -3.637   7.236 132.396  0.00  0.00    +0.000 A 
ATOM     20  C   UNL     1      -2.817   8.296 132.026  0.00  0.00    +0.000 A 
ATOM     21  C   UNL     1      -1.907   8.797 132.960  0.00  0.00    +0.000 A 
ATOM     22  N   UNL     1      -1.754   8.323 134.223  0.00  0.00    +0.000 NA
ATOM     23  H   UNL     1      -2.005   6.890 136.534  0.00  0.00    +0.000 HD
ENDBRANCH   2   5
BRANCH   1  28
ATOM     24  C   UNL     1      -5.528  -2.199 127.423  0.00  0.00    +0.000 C 
ATOM     25  C   UNL     1      -6.863  -2.540 128.112  0.00  0.00    +0.000 C 
ATOM     26  C   UNL     1      -7.988  -1.510 127.803  0.00  0.00    +0.000 C 
ATOM     27  C   UNL     1      -7.618  -0.178 128.482  0.00  0.00    +0.000 C 
ATOM     28  C   UNL     1      -7.367  -0.349 129.968  0.00  0.00    +0.000 C 
ATOM     29  C   UNL     1      -6.308  -1.445 130.213  0.00  0.00    +0.000 C 
ATOM     30  O   UNL     1      -5.310  -1.330 130.912  0.00  0.00    +0.000 OA
ATOM     31  N   UNL     1      -6.656  -2.625 129.561  0.00  0.00    +0.000 N 
BRANCH  26  32
ATOM     32  C   UNL     1      -8.218  -1.402 126.309  0.00  0.00    +0.000 A 
ATOM     33  C   UNL     1      -9.002  -2.366 125.660  0.00  0.00    +0.000 A 
ATOM     34  F   UNL     1      -9.768  -3.201 126.379  0.00  0.00    +0.000 F 
ATOM     35  C   UNL     1      -8.933  -2.523 124.282  0.00  0.00    +0.000 A 
ATOM     36  F   UNL     1      -9.597  -3.518 123.681  0.00  0.00    +0.000 F 
ATOM     37  C   UNL     1      -8.163  -1.659 123.515  0.00  0.00    +0.000 A 
ATOM     38  C   UNL     1      -7.595  -0.547 124.118  0.00  0.00    +0.000 A 
ATOM     39  C   UNL     1      -7.575  -0.457 125.502  0.00  0.00    +0.000 A 
ATOM     40  F   UNL     1      -6.842   0.533 126.025  0.00  0.00    +0.000 F 
ENDBRANCH  26  32
BRANCH  31  41
ATOM     41  C   UNL     1      -6.751  -3.894 130.313  0.00  0.00    +0.000 C 
BRANCH  41  42
ATOM     42  C   UNL     1      -5.442  -4.623 130.613  0.00  0.00    +0.000 C 
ATOM     43  F   UNL     1      -4.955  -4.260 131.824  0.00  0.00    +0.000 F 
ATOM     44  F   UNL     1      -5.628  -5.964 130.625  0.00  0.00    +0.000 F 
ATOM     45  F   UNL     1      -4.487  -4.351 129.701  0.00  0.00    +0.000 F 
ENDBRANCH  41  42
ENDBRANCH  31  41
ENDBRANCH   1  28
TORSDOF 5
ENDMDL
MODEL 7
REMARK VINA RESULT:      -9.5      1.417      2.088
REMARK  Name = Atogepant
REMARK  6 active torsions:
REMARK  status: ('A' for Active; 'I' for Inactive)
REMARK    1  A    between atoms: C_1  and  C_2
REMARK    2  A    between atoms: C_3  and  C_35
REMARK    3  A    between atoms: C_5  and  N_6
REMARK    4  A    between atoms: C_7  and  C_9
REMARK    5  A    between atoms: N_29  and  C_30
REMARK    6  A    between atoms: C_30  and  C_31
REMARK                            x       y       z     vdW  Elec       q    Type
REMARK                         _______ _______ _______ _____ _____    ______ ____
ROOT
ATOM      1  N   UNL     1      -6.263   3.547 127.988  0.00  0.00    +0.000 N 
ATOM      2  C   UNL     1      -4.952   3.824 128.308  0.00  0.00    +0.000 C 
ATOM      3  O   UNL     1      -4.001   3.422 127.647  0.00  0.00    +0.000 OA
ATOM      4  H   UNL     1      -7.006   4.115 128.378  0.00  0.00    +0.000 HD
ENDROOT
BRANCH   2   5
ATOM      5  C   UNL     1      -4.705   4.661 129.493  0.00  0.00    +0.000 A 
ATOM      6  C   UNL     1      -5.489   5.774 129.798  0.00  0.00    +0.000 A 
ATOM      7  N   UNL     1      -5.335   6.532 130.919  0.00  0.00    +0.000 NA
ATOM      8  C   UNL     1      -4.368   6.124 131.760  0.00  0.00    +0.000 A 
ATOM      9  C   UNL     1      -4.042   6.811 133.056  0.00  0.00    +0.000 C 
ATOM     10  C   UNL     1      -2.837   5.999 133.573  0.00  0.00    +0.000 C 
ATOM     11  C   UNL     1      -2.559   4.815 132.626  0.00  0.00    +0.000 C 
ATOM     12  C   UNL     1      -3.547   5.031 131.536  0.00  0.00    +0.000 A 
ATOM     13  C   UNL     1      -3.712   4.274 130.392  0.00  0.00    +0.000 A 
ATOM     14  C   UNL     1      -3.099   5.480 134.994  0.00  0.00    +0.000 C 
ATOM     15  O   UNL     1      -4.005   4.727 135.343  0.00  0.00    +0.000 OA
ATOM     16  N   UNL     1      -2.121   6.001 135.820  0.00  0.00    +0.000 N 
ATOM     17  C   UNL     1      -1.246   6.810 135.120  0.00  0.00    +0.000 A 
ATOM     18  C   UNL     1      -1.615   6.848 133.786  0.00  0.00    +0.000 A 
ATOM     19  C   UNL     1      -0.876   7.594 132.887  0.00  0.00    +0.000 A 
ATOM     20  C   UNL     1       0.219   8.288 133.387  0.00  0.00    +0.000 A 
ATOM     21  C   UNL     1       0.510   8.189 134.750  0.00  0.00    +0.000 A 
ATOM     22  N   UNL     1      -0.203   7.454 135.642  0.00  0.00    +0.000 NA
ATOM     23  H   UNL     1      -2.051   5.817 136.807  0.00  0.00    +0.000 HD
ENDBRANCH   2   5
BRANCH   1  28
ATOM     24  C   UNL     1      -9.554   1.002 125.822  0.00  0.00    +0.000 C 
ATOM     25  C   UNL     1      -8.216   1.138 125.069  0.00  0.00    +0.000 C 
ATOM     26  C   UNL     1      -7.022   0.495 125.831  0.00  0.00    +0.000 C 
ATOM     27  C   UNL     1      -6.754   1.332 127.097  0.00  0.00    +0.000 C 
ATOM     28  C   UNL     1      -6.527   2.796 126.771  0.00  0.00    +0.000 C 
ATOM     29  C   UNL     1      -7.703   3.351 125.939  0.00  0.00    +0.000 C 
ATOM     30  O   UNL     1      -8.333   4.372 126.186  0.00  0.00    +0.000 OA
ATOM     31  N   UNL     1      -7.939   2.556 124.822  0.00  0.00    +0.000 N 
BRANCH  26  32
ATOM     32  C   UNL     1      -7.288  -0.972 126.103  0.00  0.00    +0.000 A 
ATOM     33  C   UNL     1      -7.139  -1.904 125.066  0.00  0.00    +0.000 A 
ATOM     34  F   UNL     1      -6.502  -1.554 123.939  0.00  0.00    +0.000 F 
ATOM     35  C   UNL     1      -7.718  -3.163 125.159  0.00  0.00    +0.000 A 
ATOM     36  F   UNL     1      -7.669  -4.007 124.120  0.00  0.00    +0.000 F 
ATOM     37  C   UNL     1      -8.366  -3.554 126.322  0.00  0.00    +0.000 A 
ATOM     38  C   UNL     1      -8.291  -2.739 127.442  0.00  0.00    +0.000 A 
ATOM     39  C   UNL     1      -7.811  -1.444 127.312  0.00  0.00    +0.000 A 
ATOM     40  F   UNL     1      -7.949  -0.647 128.378  0.00  0.00    +0.000 F 
ENDBRANCH  26  32
BRANCH  31  41
ATOM     41  C   UNL     1      -7.954   3.152 123.469  0.00  0.00    +0.000 C 
BRANCH  41  42
ATOM     42  C   UNL     1      -6.650   3.100 122.673  0.00  0.00    +0.000 C 
ATOM     43  F   UNL     1      -5.608   3.525 123.428  0.00  0.00    +0.000 F 
ATOM     44  F   UNL     1      -6.382   1.836 122.268  0.00  0.00    +0.000 F 
ATOM     45  F   UNL     1      -6.692   3.881 121.575  0.00  0.00    +0.000 F 
ENDBRANCH  41  42
ENDBRANCH  31  41
ENDBRANCH   1  28
TORSDOF 5
ENDMDL
MODEL 8
REMARK VINA RESULT:      -9.4      7.028      8.816
REMARK  Name = Atogepant
REMARK  6 active torsions:
REMARK  status: ('A' for Active; 'I' for Inactive)
REMARK    1  A    between atoms: C_1  and  C_2
REMARK    2  A    between atoms: C_3  and  C_35
REMARK    3  A    between atoms: C_5  and  N_6
REMARK    4  A    between atoms: C_7  and  C_9
REMARK    5  A    between atoms: N_29  and  C_30
REMARK    6  A    between atoms: C_30  and  C_31
REMARK                            x       y       z     vdW  Elec       q    Type
REMARK                         _______ _______ _______ _____ _____    ______ ____
ROOT
ATOM      1  N   UNL     1      -6.238  -2.353 130.085  0.00  0.00    +0.000 N 
ATOM      2  C   UNL     1      -5.521  -3.458 130.488  0.00  0.00    +0.000 C 
ATOM      3  O   UNL     1      -4.708  -4.030 129.771  0.00  0.00    +0.000 OA
ATOM      4  H   UNL     1      -6.672  -1.756 130.778  0.00  0.00    +0.000 HD
ENDROOT
BRANCH   2   5
ATOM      5  C   UNL     1      -5.744  -3.949 131.859  0.00  0.00    +0.000 A 
ATOM      6  C   UNL     1      -4.980  -4.972 132.419  0.00  0.00    +0.000 A 
ATOM      7  N   UNL     1      -5.110  -5.406 133.703  0.00  0.00    +0.000 NA
ATOM      8  C   UNL     1      -6.032  -4.759 134.438  0.00  0.00    +0.000 A 
ATOM      9  C   UNL     1      -6.325  -5.072 135.878  0.00  0.00    +0.000 C 
ATOM     10  C   UNL     1      -7.487  -4.110 136.201  0.00  0.00    +0.000 C 
ATOM     11  C   UNL     1      -7.770  -3.204 134.987  0.00  0.00    +0.000 C 
ATOM     12  C   UNL     1      -6.831  -3.732 133.961  0.00  0.00    +0.000 A 
ATOM     13  C   UNL     1      -6.690  -3.306 132.654  0.00  0.00    +0.000 A 
ATOM     14  C   UNL     1      -7.156  -3.249 137.429  0.00  0.00    +0.000 C 
ATOM     15  O   UNL     1      -6.217  -2.465 137.541  0.00  0.00    +0.000 OA
ATOM     16  N   UNL     1      -8.114  -3.501 138.391  0.00  0.00    +0.000 N 
ATOM     17  C   UNL     1      -9.038  -4.432 137.955  0.00  0.00    +0.000 A 
ATOM     18  C   UNL     1      -8.722  -4.830 136.666  0.00  0.00    +0.000 A 
ATOM     19  C   UNL     1      -9.515  -5.756 136.016  0.00  0.00    +0.000 A 
ATOM     20  C   UNL     1     -10.608  -6.256 136.714  0.00  0.00    +0.000 A 
ATOM     21  C   UNL     1     -10.843  -5.795 138.012  0.00  0.00    +0.000 A 
ATOM     22  N   UNL     1     -10.076  -4.880 138.659  0.00  0.00    +0.000 NA
ATOM     23  H   UNL     1      -8.140  -3.064 139.298  0.00  0.00    +0.000 HD
ENDBRANCH   2   5
BRANCH   1  28
ATOM     24  C   UNL     1      -8.197   0.068 126.578  0.00  0.00    +0.000 C 
ATOM     25  C   UNL     1      -6.740  -0.378 126.345  0.00  0.00    +0.000 C 
ATOM     26  C   UNL     1      -6.576  -1.925 126.311  0.00  0.00    +0.000 C 
ATOM     27  C   UNL     1      -6.846  -2.468 127.727  0.00  0.00    +0.000 C 
ATOM     28  C   UNL     1      -5.963  -1.804 128.767  0.00  0.00    +0.000 C 
ATOM     29  C   UNL     1      -6.103  -0.268 128.690  0.00  0.00    +0.000 C 
ATOM     30  O   UNL     1      -6.335   0.476 129.635  0.00  0.00    +0.000 OA
ATOM     31  N   UNL     1      -5.884   0.186 127.393  0.00  0.00    +0.000 N 
BRANCH  26  32
ATOM     32  C   UNL     1      -7.456  -2.532 125.236  0.00  0.00    +0.000 A 
ATOM     33  C   UNL     1      -7.175  -2.274 123.888  0.00  0.00    +0.000 A 
ATOM     34  F   UNL     1      -5.994  -1.740 123.540  0.00  0.00    +0.000 F 
ATOM     35  C   UNL     1      -8.140  -2.486 122.911  0.00  0.00    +0.000 A 
ATOM     36  F   UNL     1      -7.907  -2.130 121.642  0.00  0.00    +0.000 F 
ATOM     37  C   UNL     1      -9.362  -3.055 123.244  0.00  0.00    +0.000 A 
ATOM     38  C   UNL     1      -9.547  -3.552 124.526  0.00  0.00    +0.000 A 
ATOM     39  C   UNL     1      -8.630  -3.240 125.517  0.00  0.00    +0.000 A 
ATOM     40  F   UNL     1      -8.964  -3.579 126.768  0.00  0.00    +0.000 F 
ENDBRANCH  26  32
BRANCH  31  41
ATOM     41  C   UNL     1      -4.868   1.226 127.126  0.00  0.00    +0.000 C 
BRANCH  41  42
ATOM     42  C   UNL     1      -5.356   2.527 126.489  0.00  0.00    +0.000 C 
ATOM     43  F   UNL     1      -6.524   2.927 127.048  0.00  0.00    +0.000 F 
ATOM     44  F   UNL     1      -4.451   3.518 126.663  0.00  0.00    +0.000 F 
ATOM     45  F   UNL     1      -5.571   2.396 125.165  0.00  0.00    +0.000 F 
ENDBRANCH  41  42
ENDBRANCH  31  41
ENDBRANCH   1  28
TORSDOF 5
ENDMDL
MODEL 9
REMARK VINA RESULT:      -9.2      2.038      2.978
REMARK  Name = Atogepant
REMARK  6 active torsions:
REMARK  status: ('A' for Active; 'I' for Inactive)
REMARK    1  A    between atoms: C_1  and  C_2
REMARK    2  A    between atoms: C_3  and  C_35
REMARK    3  A    between atoms: C_5  and  N_6
REMARK    4  A    between atoms: C_7  and  C_9
REMARK    5  A    between atoms: N_29  and  C_30
REMARK    6  A    between atoms: C_30  and  C_31
REMARK                            x       y       z     vdW  Elec       q    Type
REMARK                         _______ _______ _______ _____ _____    ______ ____
ROOT
ATOM      1  N   UNL     1      -6.124   2.126 128.422  0.00  0.00    +0.000 N 
ATOM      2  C   UNL     1      -5.081   2.994 128.661  0.00  0.00    +0.000 C 
ATOM      3  O   UNL     1      -4.432   3.525 127.767  0.00  0.00    +0.000 OA
ATOM      4  H   UNL     1      -6.798   1.938 129.154  0.00  0.00    +0.000 HD
ENDROOT
BRANCH   2   5
ATOM      5  C   UNL     1      -4.760   3.299 130.065  0.00  0.00    +0.000 A 
ATOM      6  C   UNL     1      -4.139   2.377 130.907  0.00  0.00    +0.000 A 
ATOM      7  N   UNL     1      -3.765   2.644 132.188  0.00  0.00    +0.000 NA
ATOM      8  C   UNL     1      -4.014   3.897 132.610  0.00  0.00    +0.000 A 
ATOM      9  C   UNL     1      -3.670   4.401 133.983  0.00  0.00    +0.000 C 
ATOM     10  C   UNL     1      -4.225   5.840 133.961  0.00  0.00    +0.000 C 
ATOM     11  C   UNL     1      -4.781   6.165 132.561  0.00  0.00    +0.000 C 
ATOM     12  C   UNL     1      -4.622   4.874 131.840  0.00  0.00    +0.000 A 
ATOM     13  C   UNL     1      -5.001   4.586 130.542  0.00  0.00    +0.000 A 
ATOM     14  C   UNL     1      -3.131   6.852 134.336  0.00  0.00    +0.000 C 
ATOM     15  O   UNL     1      -2.075   7.042 133.739  0.00  0.00    +0.000 OA
ATOM     16  N   UNL     1      -3.552   7.528 135.464  0.00  0.00    +0.000 N 
ATOM     17  C   UNL     1      -4.790   7.083 135.890  0.00  0.00    +0.000 A 
ATOM     18  C   UNL     1      -5.241   6.085 135.041  0.00  0.00    +0.000 A 
ATOM     19  C   UNL     1      -6.468   5.491 135.267  0.00  0.00    +0.000 A 
ATOM     20  C   UNL     1      -7.194   5.933 136.366  0.00  0.00    +0.000 A 
ATOM     21  C   UNL     1      -6.654   6.942 137.165  0.00  0.00    +0.000 A 
ATOM     22  N   UNL     1      -5.453   7.540 136.950  0.00  0.00    +0.000 NA
ATOM     23  H   UNL     1      -3.027   8.255 135.922  0.00  0.00    +0.000 HD
ENDBRANCH   2   5
BRANCH   1  28
ATOM     24  C   UNL     1      -9.759   0.871 125.736  0.00  0.00    +0.000 C 
ATOM     25  C   UNL     1      -8.435   1.120 124.988  0.00  0.00    +0.000 C 
ATOM     26  C   UNL     1      -7.309   0.127 125.398  0.00  0.00    +0.000 C 
ATOM     27  C   UNL     1      -6.907   0.432 126.854  0.00  0.00    +0.000 C 
ATOM     28  C   UNL     1      -6.509   1.884 127.041  0.00  0.00    +0.000 C 
ATOM     29  C   UNL     1      -7.630   2.818 126.533  0.00  0.00    +0.000 C 
ATOM     30  O   UNL     1      -8.122   3.747 127.161  0.00  0.00    +0.000 OA
ATOM     31  N   UNL     1      -7.991   2.496 125.229  0.00  0.00    +0.000 N 
BRANCH  26  32
ATOM     32  C   UNL     1      -7.747  -1.305 125.162  0.00  0.00    +0.000 A 
ATOM     33  C   UNL     1      -7.927  -1.763 123.850  0.00  0.00    +0.000 A 
ATOM     34  F   UNL     1      -7.451  -1.049 122.820  0.00  0.00    +0.000 F 
ATOM     35  C   UNL     1      -8.668  -2.911 123.598  0.00  0.00    +0.000 A 
ATOM     36  F   UNL     1      -8.933  -3.281 122.339  0.00  0.00    +0.000 F 
ATOM     37  C   UNL     1      -9.155  -3.677 124.648  0.00  0.00    +0.000 A 
ATOM     38  C   UNL     1      -8.760  -3.374 125.943  0.00  0.00    +0.000 A 
ATOM     39  C   UNL     1      -8.116  -2.172 126.196  0.00  0.00    +0.000 A 
ATOM     40  F   UNL     1      -7.940  -1.849 127.483  0.00  0.00    +0.000 F 
ENDBRANCH  26  32
BRANCH  31  41
ATOM     41  C   UNL     1      -7.968   3.529 124.171  0.00  0.00    +0.000 C 
BRANCH  41  42
ATOM     42  C   UNL     1      -6.777   3.514 123.212  0.00  0.00    +0.000 C 
ATOM     43  F   UNL     1      -5.822   4.385 123.618  0.00  0.00    +0.000 F 
ATOM     44  F   UNL     1      -6.218   2.282 123.156  0.00  0.00    +0.000 F 
ATOM     45  F   UNL     1      -7.128   3.862 121.958  0.00  0.00    +0.000 F 
ENDBRANCH  41  42
ENDBRANCH  31  41
ENDBRANCH   1  28
TORSDOF 5
ENDMDL
