MODEL 1
REMARK VINA RESULT:      -6.3      0.000      0.000
REMARK  Name = Atomoxetine
REMARK  8 active torsions:
REMARK  status: ('A' for Active; 'I' for Inactive)
REMARK    1  A    between atoms: C_1  and  N_2
REMARK    2  A    between atoms: N_2  and  C_3
REMARK    3  A    between atoms: C_3  and  C_4
REMARK    4  A    between atoms: C_4  and  C_5
REMARK    5  A    between atoms: C_5  and  O_6
REMARK    6  A    between atoms: C_5  and  C_14
REMARK    7  A    between atoms: O_6  and  C_7
REMARK    8  A    between atoms: C_12  and  C_13
REMARK                            x       y       z     vdW  Elec       q    Type
REMARK                         _______ _______ _______ _____ _____    ______ ____
ROOT
ATOM      1  C   UNL     1      -7.039   0.109 125.540  0.00  0.00    +0.000 C 
ENDROOT
BRANCH   1   2
ATOM      2  C   UNL     1      -6.368  -0.870 124.572  0.00  0.00    +0.000 A 
ATOM      3  C   UNL     1      -5.442  -1.809 125.039  0.00  0.00    +0.000 A 
ATOM      4  C   UNL     1      -4.944  -2.789 124.173  0.00  0.00    +0.000 A 
ATOM      5  C   UNL     1      -5.416  -2.870 122.863  0.00  0.00    +0.000 A 
ATOM      6  C   UNL     1      -6.316  -1.935 122.386  0.00  0.00    +0.000 A 
ATOM      7  C   UNL     1      -6.719  -0.892 123.211  0.00  0.00    +0.000 A 
ENDBRANCH   1   2
BRANCH   1   8
ATOM      8  C   UNL     1      -7.291   1.425 124.764  0.00  0.00    +0.000 C 
BRANCH   8   9
ATOM      9  C   UNL     1      -8.337   2.322 125.414  0.00  0.00    +0.000 C 
BRANCH   9  11
ATOM     10  C   UNL     1      -9.370   1.988 123.285  0.00  0.00    +0.000 C 
ATOM     11  N   UNL     1      -9.615   2.217 124.703  0.00  0.00    +0.000 NA
ATOM     12  H   UNL     1     -10.168   1.453 125.086  0.00  0.00    +0.000 HD
ENDBRANCH   9  11
ENDBRANCH   8   9
ENDBRANCH   1   8
BRANCH   1  13
ATOM     13  O   UNL     1      -8.275  -0.347 126.134  0.00  0.00    +0.000 OA
BRANCH  13  14
ATOM     14  C   UNL     1      -8.302  -1.305 127.118  0.00  0.00    +0.000 A 
ATOM     15  C   UNL     1      -7.751  -1.153 128.397  0.00  0.00    +0.000 A 
ATOM     16  C   UNL     1      -7.565  -2.260 129.226  0.00  0.00    +0.000 A 
ATOM     17  C   UNL     1      -8.041  -3.504 128.839  0.00  0.00    +0.000 A 
ATOM     18  C   UNL     1      -8.665  -3.655 127.602  0.00  0.00    +0.000 A 
ATOM     19  C   UNL     1      -8.783  -2.565 126.722  0.00  0.00    +0.000 A 
ATOM     20  C   UNL     1      -9.347  -2.783 125.344  0.00  0.00    +0.000 C 
ENDBRANCH  13  14
ENDBRANCH   1  13
TORSDOF 6
ENDMDL
MODEL 2
REMARK VINA RESULT:      -6.2      2.486      3.593
REMARK  Name = Atomoxetine
REMARK  8 active torsions:
REMARK  status: ('A' for Active; 'I' for Inactive)
REMARK    1  A    between atoms: C_1  and  N_2
REMARK    2  A    between atoms: N_2  and  C_3
REMARK    3  A    between atoms: C_3  and  C_4
REMARK    4  A    between atoms: C_4  and  C_5
REMARK    5  A    between atoms: C_5  and  O_6
REMARK    6  A    between atoms: C_5  and  C_14
REMARK    7  A    between atoms: O_6  and  C_7
REMARK    8  A    between atoms: C_12  and  C_13
REMARK                            x       y       z     vdW  Elec       q    Type
REMARK                         _______ _______ _______ _____ _____    ______ ____
ROOT
ATOM      1  C   UNL     1      -6.084  -2.216 126.000  0.00  0.00    +0.000 C 
ENDROOT
BRANCH   1   2
ATOM      2  C   UNL     1      -7.186  -2.594 125.007  0.00  0.00    +0.000 A 
ATOM      3  C   UNL     1      -8.322  -3.287 125.437  0.00  0.00    +0.000 A 
ATOM      4  C   UNL     1      -9.386  -3.502 124.554  0.00  0.00    +0.000 A 
ATOM      5  C   UNL     1      -9.341  -2.974 123.263  0.00  0.00    +0.000 A 
ATOM      6  C   UNL     1      -8.214  -2.304 122.823  0.00  0.00    +0.000 A 
ATOM      7  C   UNL     1      -7.112  -2.196 123.662  0.00  0.00    +0.000 A 
ENDBRANCH   1   2
BRANCH   1   8
ATOM      8  C   UNL     1      -5.374  -0.955 125.445  0.00  0.00    +0.000 C 
BRANCH   8   9
ATOM      9  C   UNL     1      -5.837   0.340 126.099  0.00  0.00    +0.000 C 
BRANCH   9  11
ATOM     10  C   UNL     1      -4.470   2.148 126.855  0.00  0.00    +0.000 C 
ATOM     11  N   UNL     1      -4.874   0.773 127.116  0.00  0.00    +0.000 NA
ATOM     12  H   UNL     1      -5.289   0.706 128.044  0.00  0.00    +0.000 HD
ENDBRANCH   9  11
ENDBRANCH   8   9
ENDBRANCH   1   8
BRANCH   1  13
ATOM     13  O   UNL     1      -6.521  -1.966 127.355  0.00  0.00    +0.000 OA
BRANCH  13  14
ATOM     14  C   UNL     1      -5.947  -2.595 128.434  0.00  0.00    +0.000 A 
ATOM     15  C   UNL     1      -4.569  -2.746 128.632  0.00  0.00    +0.000 A 
ATOM     16  C   UNL     1      -4.082  -3.637 129.589  0.00  0.00    +0.000 A 
ATOM     17  C   UNL     1      -4.962  -4.291 130.439  0.00  0.00    +0.000 A 
ATOM     18  C   UNL     1      -6.335  -4.088 130.307  0.00  0.00    +0.000 A 
ATOM     19  C   UNL     1      -6.842  -3.258 129.293  0.00  0.00    +0.000 A 
ATOM     20  C   UNL     1      -8.330  -3.156 129.092  0.00  0.00    +0.000 C 
ENDBRANCH  13  14
ENDBRANCH   1  13
TORSDOF 6
ENDMDL
MODEL 3
REMARK VINA RESULT:      -6.1      2.712      4.752
REMARK  Name = Atomoxetine
REMARK  8 active torsions:
REMARK  status: ('A' for Active; 'I' for Inactive)
REMARK    1  A    between atoms: C_1  and  N_2
REMARK    2  A    between atoms: N_2  and  C_3
REMARK    3  A    between atoms: C_3  and  C_4
REMARK    4  A    between atoms: C_4  and  C_5
REMARK    5  A    between atoms: C_5  and  O_6
REMARK    6  A    between atoms: C_5  and  C_14
REMARK    7  A    between atoms: O_6  and  C_7
REMARK    8  A    between atoms: C_12  and  C_13
REMARK                            x       y       z     vdW  Elec       q    Type
REMARK                         _______ _______ _______ _____ _____    ______ ____
ROOT
ATOM      1  C   UNL     1      -7.353   2.034 123.595  0.00  0.00    +0.000 C 
ENDROOT
BRANCH   1   2
ATOM      2  C   UNL     1      -7.441   2.893 122.331  0.00  0.00    +0.000 A 
ATOM      3  C   UNL     1      -6.280   3.314 121.676  0.00  0.00    +0.000 A 
ATOM      4  C   UNL     1      -6.371   3.976 120.446  0.00  0.00    +0.000 A 
ATOM      5  C   UNL     1      -7.616   4.162 119.844  0.00  0.00    +0.000 A 
ATOM      6  C   UNL     1      -8.771   3.768 120.493  0.00  0.00    +0.000 A 
ATOM      7  C   UNL     1      -8.686   3.219 121.767  0.00  0.00    +0.000 A 
ENDBRANCH   1   2
BRANCH   1   8
ATOM      8  C   UNL     1      -6.933   2.965 124.759  0.00  0.00    +0.000 C 
BRANCH   8   9
ATOM      9  C   UNL     1      -8.060   3.862 125.256  0.00  0.00    +0.000 C 
BRANCH   9  11
ATOM     10  C   UNL     1      -6.162   5.307 125.109  0.00  0.00    +0.000 C 
ATOM     11  N   UNL     1      -7.583   5.238 125.424  0.00  0.00    +0.000 NA
ATOM     12  H   UNL     1      -8.103   5.867 124.814  0.00  0.00    +0.000 HD
ENDBRANCH   9  11
ENDBRANCH   8   9
ENDBRANCH   1   8
BRANCH   1  13
ATOM     13  O   UNL     1      -8.560   1.324 123.955  0.00  0.00    +0.000 OA
BRANCH  13  14
ATOM     14  C   UNL     1      -8.583  -0.040 124.118  0.00  0.00    +0.000 A 
ATOM     15  C   UNL     1      -8.548  -0.970 123.071  0.00  0.00    +0.000 A 
ATOM     16  C   UNL     1      -8.865  -2.310 123.301  0.00  0.00    +0.000 A 
ATOM     17  C   UNL     1      -9.097  -2.756 124.595  0.00  0.00    +0.000 A 
ATOM     18  C   UNL     1      -9.055  -1.855 125.658  0.00  0.00    +0.000 A 
ATOM     19  C   UNL     1      -8.820  -0.488 125.429  0.00  0.00    +0.000 A 
ATOM     20  C   UNL     1      -8.906   0.481 126.577  0.00  0.00    +0.000 C 
ENDBRANCH  13  14
ENDBRANCH   1  13
TORSDOF 6
ENDMDL
MODEL 4
REMARK VINA RESULT:      -6.1      3.087      5.221
REMARK  Name = Atomoxetine
REMARK  8 active torsions:
REMARK  status: ('A' for Active; 'I' for Inactive)
REMARK    1  A    between atoms: C_1  and  N_2
REMARK    2  A    between atoms: N_2  and  C_3
REMARK    3  A    between atoms: C_3  and  C_4
REMARK    4  A    between atoms: C_4  and  C_5
REMARK    5  A    between atoms: C_5  and  O_6
REMARK    6  A    between atoms: C_5  and  C_14
REMARK    7  A    between atoms: O_6  and  C_7
REMARK    8  A    between atoms: C_12  and  C_13
REMARK                            x       y       z     vdW  Elec       q    Type
REMARK                         _______ _______ _______ _____ _____    ______ ____
ROOT
ATOM      1  C   UNL     1      -6.814   2.716 123.240  0.00  0.00    +0.000 C 
ENDROOT
BRANCH   1   2
ATOM      2  C   UNL     1      -6.637   3.338 121.852  0.00  0.00    +0.000 A 
ATOM      3  C   UNL     1      -7.737   3.515 121.007  0.00  0.00    +0.000 A 
ATOM      4  C   UNL     1      -7.589   4.212 119.803  0.00  0.00    +0.000 A 
ATOM      5  C   UNL     1      -6.360   4.783 119.472  0.00  0.00    +0.000 A 
ATOM      6  C   UNL     1      -5.261   4.596 120.291  0.00  0.00    +0.000 A 
ATOM      7  C   UNL     1      -5.382   3.804 121.426  0.00  0.00    +0.000 A 
ENDBRANCH   1   2
BRANCH   1   8
ATOM      8  C   UNL     1      -6.854   3.877 124.265  0.00  0.00    +0.000 C 
BRANCH   8   9
ATOM      9  C   UNL     1      -6.890   3.407 125.713  0.00  0.00    +0.000 C 
BRANCH   9  11
ATOM     10  C   UNL     1      -8.222   1.980 127.092  0.00  0.00    +0.000 C 
ATOM     11  N   UNL     1      -8.257   3.050 126.103  0.00  0.00    +0.000 NA
ATOM     12  H   UNL     1      -8.736   3.862 126.489  0.00  0.00    +0.000 HD
ENDBRANCH   9  11
ENDBRANCH   8   9
ENDBRANCH   1   8
BRANCH   1  13
ATOM     13  O   UNL     1      -7.984   1.883 123.407  0.00  0.00    +0.000 OA
BRANCH  13  14
ATOM     14  C   UNL     1      -7.895   0.517 123.526  0.00  0.00    +0.000 A 
ATOM     15  C   UNL     1      -6.762  -0.175 123.971  0.00  0.00    +0.000 A 
ATOM     16  C   UNL     1      -6.655  -1.555 123.788  0.00  0.00    +0.000 A 
ATOM     17  C   UNL     1      -7.727  -2.271 123.274  0.00  0.00    +0.000 A 
ATOM     18  C   UNL     1      -8.893  -1.605 122.902  0.00  0.00    +0.000 A 
ATOM     19  C   UNL     1      -8.982  -0.206 123.003  0.00  0.00    +0.000 A 
ATOM     20  C   UNL     1     -10.203   0.499 122.477  0.00  0.00    +0.000 C 
ENDBRANCH  13  14
ENDBRANCH   1  13
TORSDOF 6
ENDMDL
MODEL 5
REMARK VINA RESULT:      -6.0      7.674     10.319
REMARK  Name = Atomoxetine
REMARK  8 active torsions:
REMARK  status: ('A' for Active; 'I' for Inactive)
REMARK    1  A    between atoms: C_1  and  N_2
REMARK    2  A    between atoms: N_2  and  C_3
REMARK    3  A    between atoms: C_3  and  C_4
REMARK    4  A    between atoms: C_4  and  C_5
REMARK    5  A    between atoms: C_5  and  O_6
REMARK    6  A    between atoms: C_5  and  C_14
REMARK    7  A    between atoms: O_6  and  C_7
REMARK    8  A    between atoms: C_12  and  C_13
REMARK                            x       y       z     vdW  Elec       q    Type
REMARK                         _______ _______ _______ _____ _____    ______ ____
ROOT
ATOM      1  C   UNL     1     -10.320   6.132 131.253  0.00  0.00    +0.000 C 
ENDROOT
BRANCH   1   2
ATOM      2  C   UNL     1     -10.955   7.111 130.262  0.00  0.00    +0.000 A 
ATOM      3  C   UNL     1     -10.180   7.718 129.268  0.00  0.00    +0.000 A 
ATOM      4  C   UNL     1     -10.794   8.498 128.282  0.00  0.00    +0.000 A 
ATOM      5  C   UNL     1     -12.184   8.622 128.253  0.00  0.00    +0.000 A 
ATOM      6  C   UNL     1     -12.957   8.042 129.243  0.00  0.00    +0.000 A 
ATOM      7  C   UNL     1     -12.336   7.368 130.287  0.00  0.00    +0.000 A 
ENDBRANCH   1   2
BRANCH   1   8
ATOM      8  C   UNL     1      -9.855   4.894 130.446  0.00  0.00    +0.000 C 
BRANCH   8   9
ATOM      9  C   UNL     1     -10.849   3.740 130.478  0.00  0.00    +0.000 C 
BRANCH   9  11
ATOM     10  C   UNL     1      -9.062   2.379 131.293  0.00  0.00    +0.000 C 
ATOM     11  N   UNL     1     -10.457   2.753 131.488  0.00  0.00    +0.000 NA
ATOM     12  H   UNL     1     -10.583   3.138 132.423  0.00  0.00    +0.000 HD
ENDBRANCH   9  11
ENDBRANCH   8   9
ENDBRANCH   1   8
BRANCH   1  13
ATOM     13  O   UNL     1      -9.212   6.651 132.023  0.00  0.00    +0.000 OA
BRANCH  13  14
ATOM     14  C   UNL     1      -8.386   5.832 132.754  0.00  0.00    +0.000 A 
ATOM     15  C   UNL     1      -8.792   5.053 133.845  0.00  0.00    +0.000 A 
ATOM     16  C   UNL     1      -7.849   4.483 134.702  0.00  0.00    +0.000 A 
ATOM     17  C   UNL     1      -6.497   4.581 134.407  0.00  0.00    +0.000 A 
ATOM     18  C   UNL     1      -6.081   5.285 133.279  0.00  0.00    +0.000 A 
ATOM     19  C   UNL     1      -7.016   5.934 132.455  0.00  0.00    +0.000 A 
ATOM     20  C   UNL     1      -6.532   6.791 131.317  0.00  0.00    +0.000 C 
ENDBRANCH  13  14
ENDBRANCH   1  13
TORSDOF 6
ENDMDL
MODEL 6
REMARK VINA RESULT:      -6.0      0.731      1.700
REMARK  Name = Atomoxetine
REMARK  8 active torsions:
REMARK  status: ('A' for Active; 'I' for Inactive)
REMARK    1  A    between atoms: C_1  and  N_2
REMARK    2  A    between atoms: N_2  and  C_3
REMARK    3  A    between atoms: C_3  and  C_4
REMARK    4  A    between atoms: C_4  and  C_5
REMARK    5  A    between atoms: C_5  and  O_6
REMARK    6  A    between atoms: C_5  and  C_14
REMARK    7  A    between atoms: O_6  and  C_7
REMARK    8  A    between atoms: C_12  and  C_13
REMARK                            x       y       z     vdW  Elec       q    Type
REMARK                         _______ _______ _______ _____ _____    ______ ____
ROOT
ATOM      1  C   UNL     1      -7.266   0.279 125.432  0.00  0.00    +0.000 C 
ENDROOT
BRANCH   1   2
ATOM      2  C   UNL     1      -6.532  -0.725 124.539  0.00  0.00    +0.000 A 
ATOM      3  C   UNL     1      -5.550  -1.565 125.072  0.00  0.00    +0.000 A 
ATOM      4  C   UNL     1      -4.988  -2.574 124.282  0.00  0.00    +0.000 A 
ATOM      5  C   UNL     1      -5.450  -2.782 122.982  0.00  0.00    +0.000 A 
ATOM      6  C   UNL     1      -6.406  -1.944 122.439  0.00  0.00    +0.000 A 
ATOM      7  C   UNL     1      -6.876  -0.870 123.184  0.00  0.00    +0.000 A 
ENDBRANCH   1   2
BRANCH   1   8
ATOM      8  C   UNL     1      -7.762   1.431 124.522  0.00  0.00    +0.000 C 
BRANCH   8   9
ATOM      9  C   UNL     1      -9.243   1.745 124.693  0.00  0.00    +0.000 C 
BRANCH   9  11
ATOM     10  C   UNL     1     -10.086   0.784 122.674  0.00  0.00    +0.000 C 
ATOM     11  N   UNL     1     -10.063   0.671 124.127  0.00  0.00    +0.000 NA
ATOM     12  H   UNL     1      -9.688  -0.237 124.396  0.00  0.00    +0.000 HD
ENDBRANCH   9  11
ENDBRANCH   8   9
ENDBRANCH   1   8
BRANCH   1  13
ATOM     13  O   UNL     1      -8.378  -0.252 126.188  0.00  0.00    +0.000 OA
BRANCH  13  14
ATOM     14  C   UNL     1      -8.303  -1.456 126.847  0.00  0.00    +0.000 A 
ATOM     15  C   UNL     1      -8.850  -2.658 126.380  0.00  0.00    +0.000 A 
ATOM     16  C   UNL     1      -8.982  -3.755 127.232  0.00  0.00    +0.000 A 
ATOM     17  C   UNL     1      -8.458  -3.704 128.516  0.00  0.00    +0.000 A 
ATOM     18  C   UNL     1      -7.837  -2.540 128.966  0.00  0.00    +0.000 A 
ATOM     19  C   UNL     1      -7.772  -1.400 128.148  0.00  0.00    +0.000 A 
ATOM     20  C   UNL     1      -7.211  -0.119 128.703  0.00  0.00    +0.000 C 
ENDBRANCH  13  14
ENDBRANCH   1  13
TORSDOF 6
ENDMDL
MODEL 7
REMARK VINA RESULT:      -5.7      1.721      5.420
REMARK  Name = Atomoxetine
REMARK  8 active torsions:
REMARK  status: ('A' for Active; 'I' for Inactive)
REMARK    1  A    between atoms: C_1  and  N_2
REMARK    2  A    between atoms: N_2  and  C_3
REMARK    3  A    between atoms: C_3  and  C_4
REMARK    4  A    between atoms: C_4  and  C_5
REMARK    5  A    between atoms: C_5  and  O_6
REMARK    6  A    between atoms: C_5  and  C_14
REMARK    7  A    between atoms: O_6  and  C_7
REMARK    8  A    between atoms: C_12  and  C_13
REMARK                            x       y       z     vdW  Elec       q    Type
REMARK                         _______ _______ _______ _____ _____    ______ ____
ROOT
ATOM      1  C   UNL     1      -8.722  -1.583 125.347  0.00  0.00    +0.000 C 
ENDROOT
BRANCH   1   2
ATOM      2  C   UNL     1      -8.442  -2.308 126.666  0.00  0.00    +0.000 A 
ATOM      3  C   UNL     1      -7.625  -1.722 127.639  0.00  0.00    +0.000 A 
ATOM      4  C   UNL     1      -7.490  -2.325 128.894  0.00  0.00    +0.000 A 
ATOM      5  C   UNL     1      -8.218  -3.476 129.199  0.00  0.00    +0.000 A 
ATOM      6  C   UNL     1      -9.013  -4.073 128.238  0.00  0.00    +0.000 A 
ATOM      7  C   UNL     1      -9.052  -3.540 126.955  0.00  0.00    +0.000 A 
ENDBRANCH   1   2
BRANCH   1   8
ATOM      8  C   UNL     1      -9.238  -2.641 124.340  0.00  0.00    +0.000 C 
BRANCH   8   9
ATOM      9  C   UNL     1      -8.278  -2.898 123.184  0.00  0.00    +0.000 C 
BRANCH   9  11
ATOM     10  C   UNL     1      -5.984  -2.275 122.943  0.00  0.00    +0.000 C 
ATOM     11  N   UNL     1      -7.350  -1.775 123.029  0.00  0.00    +0.000 NA
ATOM     12  H   UNL     1      -7.577  -1.245 122.189  0.00  0.00    +0.000 HD
ENDBRANCH   9  11
ENDBRANCH   8   9
ENDBRANCH   1   8
BRANCH   1  13
ATOM     13  O   UNL     1      -9.662  -0.488 125.422  0.00  0.00    +0.000 OA
BRANCH  13  14
ATOM     14  C   UNL     1      -9.464   0.691 124.744  0.00  0.00    +0.000 A 
ATOM     15  C   UNL     1      -9.680   0.870 123.372  0.00  0.00    +0.000 A 
ATOM     16  C   UNL     1      -9.185   1.998 122.716  0.00  0.00    +0.000 A 
ATOM     17  C   UNL     1      -8.581   3.014 123.444  0.00  0.00    +0.000 A 
ATOM     18  C   UNL     1      -8.432   2.885 124.824  0.00  0.00    +0.000 A 
ATOM     19  C   UNL     1      -8.851   1.717 125.484  0.00  0.00    +0.000 A 
ATOM     20  C   UNL     1      -8.564   1.551 126.951  0.00  0.00    +0.000 C 
ENDBRANCH  13  14
ENDBRANCH   1  13
TORSDOF 6
ENDMDL
MODEL 8
REMARK VINA RESULT:      -5.6      7.447     10.456
REMARK  Name = Atomoxetine
REMARK  8 active torsions:
REMARK  status: ('A' for Active; 'I' for Inactive)
REMARK    1  A    between atoms: C_1  and  N_2
REMARK    2  A    between atoms: N_2  and  C_3
REMARK    3  A    between atoms: C_3  and  C_4
REMARK    4  A    between atoms: C_4  and  C_5
REMARK    5  A    between atoms: C_5  and  O_6
REMARK    6  A    between atoms: C_5  and  C_14
REMARK    7  A    between atoms: O_6  and  C_7
REMARK    8  A    between atoms: C_12  and  C_13
REMARK                            x       y       z     vdW  Elec       q    Type
REMARK                         _______ _______ _______ _____ _____    ______ ____
ROOT
ATOM      1  C   UNL     1      -8.978   5.979 130.814  0.00  0.00    +0.000 C 
ENDROOT
BRANCH   1   2
ATOM      2  C   UNL     1      -7.909   6.033 131.909  0.00  0.00    +0.000 A 
ATOM      3  C   UNL     1      -8.201   5.608 133.209  0.00  0.00    +0.000 A 
ATOM      4  C   UNL     1      -7.181   5.528 134.164  0.00  0.00    +0.000 A 
ATOM      5  C   UNL     1      -5.863   5.813 133.805  0.00  0.00    +0.000 A 
ATOM      6  C   UNL     1      -5.568   6.253 132.528  0.00  0.00    +0.000 A 
ATOM      7  C   UNL     1      -6.598   6.446 131.616  0.00  0.00    +0.000 A 
ENDBRANCH   1   2
BRANCH   1   8
ATOM      8  C   UNL     1      -9.476   4.515 130.727  0.00  0.00    +0.000 C 
BRANCH   8   9
ATOM      9  C   UNL     1      -8.855   3.728 129.580  0.00  0.00    +0.000 C 
BRANCH   9  11
ATOM     10  C   UNL     1      -7.372   4.044 127.733  0.00  0.00    +0.000 C 
ATOM     11  N   UNL     1      -8.470   4.630 128.490  0.00  0.00    +0.000 NA
ATOM     12  H   UNL     1      -9.264   4.796 127.874  0.00  0.00    +0.000 HD
ENDBRANCH   9  11
ENDBRANCH   8   9
ENDBRANCH   1   8
BRANCH   1  13
ATOM     13  O   UNL     1     -10.107   6.863 130.997  0.00  0.00    +0.000 OA
BRANCH  13  14
ATOM     14  C   UNL     1     -10.852   7.323 129.938  0.00  0.00    +0.000 A 
ATOM     15  C   UNL     1     -10.342   7.611 128.667  0.00  0.00    +0.000 A 
ATOM     16  C   UNL     1     -11.097   8.339 127.746  0.00  0.00    +0.000 A 
ATOM     17  C   UNL     1     -12.411   8.676 128.040  0.00  0.00    +0.000 A 
ATOM     18  C   UNL     1     -12.960   8.324 129.272  0.00  0.00    +0.000 A 
ATOM     19  C   UNL     1     -12.183   7.665 130.240  0.00  0.00    +0.000 A 
ATOM     20  C   UNL     1     -12.759   7.409 131.606  0.00  0.00    +0.000 C 
ENDBRANCH  13  14
ENDBRANCH   1  13
TORSDOF 6
ENDMDL
MODEL 9
REMARK VINA RESULT:      -5.6      2.469      4.730
REMARK  Name = Atomoxetine
REMARK  8 active torsions:
REMARK  status: ('A' for Active; 'I' for Inactive)
REMARK    1  A    between atoms: C_1  and  N_2
REMARK    2  A    between atoms: N_2  and  C_3
REMARK    3  A    between atoms: C_3  and  C_4
REMARK    4  A    between atoms: C_4  and  C_5
REMARK    5  A    between atoms: C_5  and  O_6
REMARK    6  A    between atoms: C_5  and  C_14
REMARK    7  A    between atoms: O_6  and  C_7
REMARK    8  A    between atoms: C_12  and  C_13
REMARK                            x       y       z     vdW  Elec       q    Type
REMARK                         _______ _______ _______ _____ _____    ______ ____
ROOT
ATOM      1  C   UNL     1      -7.064  -0.959 128.322  0.00  0.00    +0.000 C 
ENDROOT
BRANCH   1   2
ATOM      2  C   UNL     1      -6.301  -2.176 128.853  0.00  0.00    +0.000 A 
ATOM      3  C   UNL     1      -4.932  -2.320 128.606  0.00  0.00    +0.000 A 
ATOM      4  C   UNL     1      -4.218  -3.359 129.213  0.00  0.00    +0.000 A 
ATOM      5  C   UNL     1      -4.856  -4.214 130.113  0.00  0.00    +0.000 A 
ATOM      6  C   UNL     1      -6.213  -4.092 130.348  0.00  0.00    +0.000 A 
ATOM      7  C   UNL     1      -6.944  -3.136 129.653  0.00  0.00    +0.000 A 
ENDBRANCH   1   2
BRANCH   1   8
ATOM      8  C   UNL     1      -6.501   0.290 129.046  0.00  0.00    +0.000 C 
BRANCH   8   9
ATOM      9  C   UNL     1      -6.079   1.403 128.096  0.00  0.00    +0.000 C 
BRANCH   9  11
ATOM     10  C   UNL     1      -4.567   1.921 126.320  0.00  0.00    +0.000 C 
ATOM     11  N   UNL     1      -4.766   1.110 127.514  0.00  0.00    +0.000 NA
ATOM     12  H   UNL     1      -4.030   1.305 128.191  0.00  0.00    +0.000 HD
ENDBRANCH   9  11
ENDBRANCH   8   9
ENDBRANCH   1   8
BRANCH   1  13
ATOM     13  O   UNL     1      -7.002  -0.757 126.892  0.00  0.00    +0.000 OA
BRANCH  13  14
ATOM     14  C   UNL     1      -7.614  -1.613 126.008  0.00  0.00    +0.000 A 
ATOM     15  C   UNL     1      -8.927  -2.084 126.130  0.00  0.00    +0.000 A 
ATOM     16  C   UNL     1      -9.370  -3.161 125.361  0.00  0.00    +0.000 A 
ATOM     17  C   UNL     1      -8.548  -3.695 124.378  0.00  0.00    +0.000 A 
ATOM     18  C   UNL     1      -7.266  -3.182 124.190  0.00  0.00    +0.000 A 
ATOM     19  C   UNL     1      -6.779  -2.153 125.014  0.00  0.00    +0.000 A 
ATOM     20  C   UNL     1      -5.349  -1.705 124.874  0.00  0.00    +0.000 C 
ENDBRANCH  13  14
ENDBRANCH   1  13
TORSDOF 6
ENDMDL
