MODEL 1
REMARK VINA RESULT:      -8.6      0.000      0.000
REMARK  Name = Atorvastatin
REMARK  17 active torsions:
REMARK  status: ('A' for Active; 'I' for Inactive)
REMARK    1  A    between atoms: C_1  and  C_2
REMARK    2  A    between atoms: C_2  and  C_3
REMARK    3  A    between atoms: C_2  and  C_4
REMARK    4  A    between atoms: C_5  and  C_6
REMARK    5  A    between atoms: N_8  and  C_9
REMARK    6  A    between atoms: C_15  and  C_36
REMARK    7  A    between atoms: C_16  and  C_29
REMARK    8  A    between atoms: N_17  and  C_18
REMARK    9  A    between atoms: C_18  and  C_19
REMARK   10  A    between atoms: C_19  and  C_20
REMARK   11  A    between atoms: C_20  and  O_21
REMARK   12  A    between atoms: C_20  and  C_22
REMARK   13  A    between atoms: C_22  and  C_23
REMARK   14  A    between atoms: C_23  and  O_24
REMARK   15  A    between atoms: C_23  and  C_25
REMARK   16  A    between atoms: C_25  and  C_26
REMARK   17  A    between atoms: C_26  and  O_27
REMARK                            x       y       z     vdW  Elec       q    Type
REMARK                         _______ _______ _______ _____ _____    ______ ____
ROOT
ATOM      1  C   UNL     1      -6.887   1.974 127.683  0.00  0.00    +0.000 A 
ATOM      2  C   UNL     1      -7.302   1.326 126.445  0.00  0.00    +0.000 A 
ATOM      3  C   UNL     1      -7.257  -0.147 126.689  0.00  0.00    +0.000 A 
ATOM      4  C   UNL     1      -6.776  -0.340 127.972  0.00  0.00    +0.000 A 
ATOM      5  N   UNL     1      -6.493   0.901 128.544  0.00  0.00    +0.000 N 
ENDROOT
BRANCH   4   6
ATOM      6  C   UNL     1      -6.574  -1.609 128.715  0.00  0.00    +0.000 A 
ATOM      7  C   UNL     1      -7.612  -2.191 129.448  0.00  0.00    +0.000 A 
ATOM      8  C   UNL     1      -7.368  -3.338 130.206  0.00  0.00    +0.000 A 
ATOM      9  C   UNL     1      -6.129  -3.967 130.131  0.00  0.00    +0.000 A 
ATOM     10  F   UNL     1      -5.922  -5.105 130.806  0.00  0.00    +0.000 F 
ATOM     11  C   UNL     1      -5.103  -3.438 129.366  0.00  0.00    +0.000 A 
ATOM     12  C   UNL     1      -5.314  -2.239 128.695  0.00  0.00    +0.000 A 
ENDBRANCH   4   6
BRANCH   3  13
ATOM     13  C   UNL     1      -7.670  -1.334 125.876  0.00  0.00    +0.000 A 
ATOM     14  C   UNL     1      -6.758  -2.057 125.099  0.00  0.00    +0.000 A 
ATOM     15  C   UNL     1      -7.183  -3.130 124.288  0.00  0.00    +0.000 A 
ATOM     16  C   UNL     1      -8.503  -3.576 124.323  0.00  0.00    +0.000 A 
ATOM     17  C   UNL     1      -9.406  -2.939 125.164  0.00  0.00    +0.000 A 
ATOM     18  C   UNL     1      -8.995  -1.829 125.925  0.00  0.00    +0.000 A 
ENDBRANCH   3  13
BRANCH   2  19
ATOM     19  C   UNL     1      -7.806   1.912 125.119  0.00  0.00    +0.000 C 
ATOM     20  O   UNL     1      -8.970   2.317 125.038  0.00  0.00    +0.000 OA
ATOM     21  N   UNL     1      -6.991   1.922 123.976  0.00  0.00    +0.000 N 
ATOM     22  H   UNL     1      -6.129   1.405 123.999  0.00  0.00    +0.000 HD
BRANCH  21  23
ATOM     23  C   UNL     1      -7.281   2.569 122.724  0.00  0.00    +0.000 A 
ATOM     24  C   UNL     1      -6.222   3.059 121.939  0.00  0.00    +0.000 A 
ATOM     25  C   UNL     1      -6.459   3.774 120.748  0.00  0.00    +0.000 A 
ATOM     26  C   UNL     1      -7.761   3.990 120.306  0.00  0.00    +0.000 A 
ATOM     27  C   UNL     1      -8.822   3.520 121.075  0.00  0.00    +0.000 A 
ATOM     28  C   UNL     1      -8.585   2.815 122.270  0.00  0.00    +0.000 A 
ENDBRANCH  21  23
ENDBRANCH   2  19
BRANCH   1  30
ATOM     29  C   UNL     1      -5.719   4.231 127.258  0.00  0.00    +0.000 C 
ATOM     30  C   UNL     1      -6.894   3.559 127.974  0.00  0.00    +0.000 C 
ATOM     31  C   UNL     1      -7.971   4.579 127.569  0.00  0.00    +0.000 C 
ENDBRANCH   1  30
BRANCH   5  32
ATOM     32  C   UNL     1      -5.874   0.831 129.892  0.00  0.00    +0.000 C 
BRANCH  32  33
ATOM     33  C   UNL     1      -6.786   1.204 130.972  0.00  0.00    +0.000 C 
BRANCH  33  34
ATOM     34  C   UNL     1      -8.228   1.559 130.798  0.00  0.00    +0.000 C 
BRANCH  34  35
ATOM     35  O   UNL     1      -8.953   0.602 131.538  0.00  0.00    +0.000 OA
ATOM     36  H   UNL     1      -9.896   0.739 131.349  0.00  0.00    +0.000 HD
ENDBRANCH  34  35
BRANCH  34  37
ATOM     37  C   UNL     1      -8.500   3.006 131.310  0.00  0.00    +0.000 C 
BRANCH  37  38
ATOM     38  C   UNL     1      -9.733   3.574 130.628  0.00  0.00    +0.000 C 
BRANCH  38  39
ATOM     39  O   UNL     1     -10.912   2.938 131.116  0.00  0.00    +0.000 OA
ATOM     40  H   UNL     1     -10.908   2.012 130.802  0.00  0.00    +0.000 HD
ENDBRANCH  38  39
BRANCH  38  41
ATOM     41  C   UNL     1      -9.945   5.059 130.837  0.00  0.00    +0.000 C 
BRANCH  41  42
ATOM     42  C   UNL     1     -11.391   5.465 130.655  0.00  0.00    +0.000 C 
ATOM     43  O   UNL     1     -11.943   5.401 129.550  0.00  0.00    +0.000 OA
BRANCH  42  44
ATOM     44  O   UNL     1     -12.058   5.905 131.739  0.00  0.00    +0.000 OA
ATOM     45  H   UNL     1     -11.592   5.754 132.596  0.00  0.00    +0.000 HD
ENDBRANCH  42  44
ENDBRANCH  41  42
ENDBRANCH  38  41
ENDBRANCH  37  38
ENDBRANCH  34  37
ENDBRANCH  33  34
ENDBRANCH  32  33
ENDBRANCH   5  32
TORSDOF 15
ENDMDL
MODEL 2
REMARK VINA RESULT:      -8.5      1.345      2.020
REMARK  Name = Atorvastatin
REMARK  17 active torsions:
REMARK  status: ('A' for Active; 'I' for Inactive)
REMARK    1  A    between atoms: C_1  and  C_2
REMARK    2  A    between atoms: C_2  and  C_3
REMARK    3  A    between atoms: C_2  and  C_4
REMARK    4  A    between atoms: C_5  and  C_6
REMARK    5  A    between atoms: N_8  and  C_9
REMARK    6  A    between atoms: C_15  and  C_36
REMARK    7  A    between atoms: C_16  and  C_29
REMARK    8  A    between atoms: N_17  and  C_18
REMARK    9  A    between atoms: C_18  and  C_19
REMARK   10  A    between atoms: C_19  and  C_20
REMARK   11  A    between atoms: C_20  and  O_21
REMARK   12  A    between atoms: C_20  and  C_22
REMARK   13  A    between atoms: C_22  and  C_23
REMARK   14  A    between atoms: C_23  and  O_24
REMARK   15  A    between atoms: C_23  and  C_25
REMARK   16  A    between atoms: C_25  and  C_26
REMARK   17  A    between atoms: C_26  and  O_27
REMARK                            x       y       z     vdW  Elec       q    Type
REMARK                         _______ _______ _______ _____ _____    ______ ____
ROOT
ATOM      1  C   UNL     1      -6.964   1.869 126.839  0.00  0.00    +0.000 A 
ATOM      2  C   UNL     1      -6.816   1.096 125.611  0.00  0.00    +0.000 A 
ATOM      3  C   UNL     1      -6.554  -0.318 126.018  0.00  0.00    +0.000 A 
ATOM      4  C   UNL     1      -6.486  -0.347 127.399  0.00  0.00    +0.000 A 
ATOM      5  N   UNL     1      -6.661   0.947 127.891  0.00  0.00    +0.000 N 
ENDROOT
BRANCH   4   6
ATOM      6  C   UNL     1      -6.282  -1.506 128.302  0.00  0.00    +0.000 A 
ATOM      7  C   UNL     1      -4.997  -1.922 128.665  0.00  0.00    +0.000 A 
ATOM      8  C   UNL     1      -4.833  -3.068 129.447  0.00  0.00    +0.000 A 
ATOM      9  C   UNL     1      -5.949  -3.719 129.964  0.00  0.00    +0.000 A 
ATOM     10  F   UNL     1      -5.785  -4.776 130.769  0.00  0.00    +0.000 F 
ATOM     11  C   UNL     1      -7.232  -3.291 129.662  0.00  0.00    +0.000 A 
ATOM     12  C   UNL     1      -7.394  -2.212 128.799  0.00  0.00    +0.000 A 
ENDBRANCH   4   6
BRANCH   3  13
ATOM     13  C   UNL     1      -6.432  -1.598 125.252  0.00  0.00    +0.000 A 
ATOM     14  C   UNL     1      -7.524  -2.450 125.049  0.00  0.00    +0.000 A 
ATOM     15  C   UNL     1      -7.369  -3.684 124.383  0.00  0.00    +0.000 A 
ATOM     16  C   UNL     1      -6.151  -4.040 123.806  0.00  0.00    +0.000 A 
ATOM     17  C   UNL     1      -5.079  -3.164 123.906  0.00  0.00    +0.000 A 
ATOM     18  C   UNL     1      -5.217  -1.963 124.624  0.00  0.00    +0.000 A 
ENDBRANCH   3  13
BRANCH   2  19
ATOM     19  C   UNL     1      -6.971   1.500 124.139  0.00  0.00    +0.000 C 
ATOM     20  O   UNL     1      -7.514   0.720 123.350  0.00  0.00    +0.000 OA
ATOM     21  N   UNL     1      -6.437   2.706 123.659  0.00  0.00    +0.000 N 
ATOM     22  H   UNL     1      -5.822   3.228 124.259  0.00  0.00    +0.000 HD
BRANCH  21  23
ATOM     23  C   UNL     1      -6.638   3.271 122.352  0.00  0.00    +0.000 A 
ATOM     24  C   UNL     1      -7.944   3.380 121.841  0.00  0.00    +0.000 A 
ATOM     25  C   UNL     1      -8.185   3.847 120.533  0.00  0.00    +0.000 A 
ATOM     26  C   UNL     1      -7.125   4.239 119.721  0.00  0.00    +0.000 A 
ATOM     27  C   UNL     1      -5.826   4.129 120.207  0.00  0.00    +0.000 A 
ATOM     28  C   UNL     1      -5.584   3.653 121.510  0.00  0.00    +0.000 A 
ENDBRANCH  21  23
ENDBRANCH   2  19
BRANCH   1  30
ATOM     29  C   UNL     1      -6.138   4.307 126.944  0.00  0.00    +0.000 C 
ATOM     30  C   UNL     1      -7.386   3.421 126.938  0.00  0.00    +0.000 C 
ATOM     31  C   UNL     1      -8.194   4.237 125.915  0.00  0.00    +0.000 C 
ENDBRANCH   1  30
BRANCH   5  32
ATOM     32  C   UNL     1      -6.511   1.072 129.363  0.00  0.00    +0.000 C 
BRANCH  32  33
ATOM     33  C   UNL     1      -7.784   1.218 130.068  0.00  0.00    +0.000 C 
BRANCH  33  34
ATOM     34  C   UNL     1      -8.264   2.470 130.728  0.00  0.00    +0.000 C 
BRANCH  34  35
ATOM     35  O   UNL     1      -7.150   3.334 130.775  0.00  0.00    +0.000 OA
ATOM     36  H   UNL     1      -7.165   3.876 129.969  0.00  0.00    +0.000 HD
ENDBRANCH  34  35
BRANCH  34  37
ATOM     37  C   UNL     1      -9.441   3.097 129.922  0.00  0.00    +0.000 C 
BRANCH  37  38
ATOM     38  C   UNL     1     -10.363   3.860 130.858  0.00  0.00    +0.000 C 
BRANCH  38  39
ATOM     39  O   UNL     1     -10.091   3.519 132.215  0.00  0.00    +0.000 OA
ATOM     40  H   UNL     1      -9.125   3.576 132.354  0.00  0.00    +0.000 HD
ENDBRANCH  38  39
BRANCH  38  41
ATOM     41  C   UNL     1     -10.242   5.368 130.775  0.00  0.00    +0.000 C 
BRANCH  41  42
ATOM     42  C   UNL     1      -9.490   5.950 131.953  0.00  0.00    +0.000 C 
ATOM     43  O   UNL     1      -8.254   5.989 131.972  0.00  0.00    +0.000 OA
BRANCH  42  44
ATOM     44  O   UNL     1     -10.214   6.424 132.985  0.00  0.00    +0.000 OA
ATOM     45  H   UNL     1     -10.132   5.900 133.817  0.00  0.00    +0.000 HD
ENDBRANCH  42  44
ENDBRANCH  41  42
ENDBRANCH  38  41
ENDBRANCH  37  38
ENDBRANCH  34  37
ENDBRANCH  33  34
ENDBRANCH  32  33
ENDBRANCH   5  32
TORSDOF 15
ENDMDL
MODEL 3
REMARK VINA RESULT:      -8.5      3.491      7.756
REMARK  Name = Atorvastatin
REMARK  17 active torsions:
REMARK  status: ('A' for Active; 'I' for Inactive)
REMARK    1  A    between atoms: C_1  and  C_2
REMARK    2  A    between atoms: C_2  and  C_3
REMARK    3  A    between atoms: C_2  and  C_4
REMARK    4  A    between atoms: C_5  and  C_6
REMARK    5  A    between atoms: N_8  and  C_9
REMARK    6  A    between atoms: C_15  and  C_36
REMARK    7  A    between atoms: C_16  and  C_29
REMARK    8  A    between atoms: N_17  and  C_18
REMARK    9  A    between atoms: C_18  and  C_19
REMARK   10  A    between atoms: C_19  and  C_20
REMARK   11  A    between atoms: C_20  and  O_21
REMARK   12  A    between atoms: C_20  and  C_22
REMARK   13  A    between atoms: C_22  and  C_23
REMARK   14  A    between atoms: C_23  and  O_24
REMARK   15  A    between atoms: C_23  and  C_25
REMARK   16  A    between atoms: C_25  and  C_26
REMARK   17  A    between atoms: C_26  and  O_27
REMARK                            x       y       z     vdW  Elec       q    Type
REMARK                         _______ _______ _______ _____ _____    ______ ____
ROOT
ATOM      1  C   UNL     1      -5.211   1.665 126.780  0.00  0.00    +0.000 A 
ATOM      2  C   UNL     1      -5.194   1.009 128.082  0.00  0.00    +0.000 A 
ATOM      3  C   UNL     1      -5.948  -0.272 127.932  0.00  0.00    +0.000 A 
ATOM      4  C   UNL     1      -6.432  -0.320 126.637  0.00  0.00    +0.000 A 
ATOM      5  N   UNL     1      -6.060   0.847 125.969  0.00  0.00    +0.000 N 
ENDROOT
BRANCH   4   6
ATOM      6  C   UNL     1      -7.212  -1.390 125.968  0.00  0.00    +0.000 A 
ATOM      7  C   UNL     1      -8.600  -1.470 126.111  0.00  0.00    +0.000 A 
ATOM      8  C   UNL     1      -9.297  -2.537 125.540  0.00  0.00    +0.000 A 
ATOM      9  C   UNL     1      -8.626  -3.447 124.729  0.00  0.00    +0.000 A 
ATOM     10  F   UNL     1      -9.310  -4.429 124.129  0.00  0.00    +0.000 F 
ATOM     11  C   UNL     1      -7.258  -3.355 124.529  0.00  0.00    +0.000 A 
ATOM     12  C   UNL     1      -6.549  -2.353 125.182  0.00  0.00    +0.000 A 
ENDBRANCH   4   6
BRANCH   3  13
ATOM     13  C   UNL     1      -6.186  -1.433 128.846  0.00  0.00    +0.000 A 
ATOM     14  C   UNL     1      -5.257  -2.469 128.990  0.00  0.00    +0.000 A 
ATOM     15  C   UNL     1      -5.534  -3.587 129.805  0.00  0.00    +0.000 A 
ATOM     16  C   UNL     1      -6.690  -3.640 130.581  0.00  0.00    +0.000 A 
ATOM     17  C   UNL     1      -7.581  -2.576 130.533  0.00  0.00    +0.000 A 
ATOM     18  C   UNL     1      -7.334  -1.491 129.672  0.00  0.00    +0.000 A 
ENDBRANCH   3  13
BRANCH   2  19
ATOM     19  C   UNL     1      -4.499   1.391 129.395  0.00  0.00    +0.000 C 
ATOM     20  O   UNL     1      -3.760   0.572 129.951  0.00  0.00    +0.000 OA
ATOM     21  N   UNL     1      -4.751   2.624 130.016  0.00  0.00    +0.000 N 
ATOM     22  H   UNL     1      -5.506   3.190 129.667  0.00  0.00    +0.000 HD
BRANCH  21  23
ATOM     23  C   UNL     1      -4.062   3.165 131.157  0.00  0.00    +0.000 A 
ATOM     24  C   UNL     1      -4.491   2.818 132.451  0.00  0.00    +0.000 A 
ATOM     25  C   UNL     1      -3.904   3.387 133.598  0.00  0.00    +0.000 A 
ATOM     26  C   UNL     1      -2.857   4.296 133.474  0.00  0.00    +0.000 A 
ATOM     27  C   UNL     1      -2.425   4.658 132.201  0.00  0.00    +0.000 A 
ATOM     28  C   UNL     1      -3.019   4.096 131.055  0.00  0.00    +0.000 A 
ENDBRANCH  21  23
ENDBRANCH   2  19
BRANCH   1  30
ATOM     29  C   UNL     1      -5.230   4.241 126.822  0.00  0.00    +0.000 C 
ATOM     30  C   UNL     1      -4.424   3.015 126.387  0.00  0.00    +0.000 C 
ATOM     31  C   UNL     1      -3.059   3.488 126.915  0.00  0.00    +0.000 C 
ENDBRANCH   1  30
BRANCH   5  32
ATOM     32  C   UNL     1      -6.603   0.968 124.592  0.00  0.00    +0.000 C 
BRANCH  32  33
ATOM     33  C   UNL     1      -7.675   1.956 124.473  0.00  0.00    +0.000 C 
BRANCH  33  34
ATOM     34  C   UNL     1      -7.835   2.921 123.343  0.00  0.00    +0.000 C 
BRANCH  34  35
ATOM     35  O   UNL     1      -7.771   4.207 123.921  0.00  0.00    +0.000 OA
ATOM     36  H   UNL     1      -8.041   4.123 124.850  0.00  0.00    +0.000 HD
ENDBRANCH  34  35
BRANCH  34  37
ATOM     37  C   UNL     1      -6.711   2.713 122.283  0.00  0.00    +0.000 C 
BRANCH  37  38
ATOM     38  C   UNL     1      -6.162   4.059 121.839  0.00  0.00    +0.000 C 
BRANCH  38  39
ATOM     39  O   UNL     1      -5.305   4.604 122.840  0.00  0.00    +0.000 OA
ATOM     40  H   UNL     1      -5.833   5.216 123.389  0.00  0.00    +0.000 HD
ENDBRANCH  38  39
BRANCH  38  41
ATOM     41  C   UNL     1      -5.342   4.019 120.566  0.00  0.00    +0.000 C 
BRANCH  41  42
ATOM     42  C   UNL     1      -5.112   5.397 119.986  0.00  0.00    +0.000 C 
ATOM     43  O   UNL     1      -4.531   6.279 120.631  0.00  0.00    +0.000 OA
BRANCH  42  44
ATOM     44  O   UNL     1      -5.565   5.635 118.740  0.00  0.00    +0.000 OA
ATOM     45  H   UNL     1      -6.138   4.921 118.370  0.00  0.00    +0.000 HD
ENDBRANCH  42  44
ENDBRANCH  41  42
ENDBRANCH  38  41
ENDBRANCH  37  38
ENDBRANCH  34  37
ENDBRANCH  33  34
ENDBRANCH  32  33
ENDBRANCH   5  32
TORSDOF 15
ENDMDL
MODEL 4
REMARK VINA RESULT:      -8.4      3.723      6.796
REMARK  Name = Atorvastatin
REMARK  17 active torsions:
REMARK  status: ('A' for Active; 'I' for Inactive)
REMARK    1  A    between atoms: C_1  and  C_2
REMARK    2  A    between atoms: C_2  and  C_3
REMARK    3  A    between atoms: C_2  and  C_4
REMARK    4  A    between atoms: C_5  and  C_6
REMARK    5  A    between atoms: N_8  and  C_9
REMARK    6  A    between atoms: C_15  and  C_36
REMARK    7  A    between atoms: C_16  and  C_29
REMARK    8  A    between atoms: N_17  and  C_18
REMARK    9  A    between atoms: C_18  and  C_19
REMARK   10  A    between atoms: C_19  and  C_20
REMARK   11  A    between atoms: C_20  and  O_21
REMARK   12  A    between atoms: C_20  and  C_22
REMARK   13  A    between atoms: C_22  and  C_23
REMARK   14  A    between atoms: C_23  and  O_24
REMARK   15  A    between atoms: C_23  and  C_25
REMARK   16  A    between atoms: C_25  and  C_26
REMARK   17  A    between atoms: C_26  and  O_27
REMARK                            x       y       z     vdW  Elec       q    Type
REMARK                         _______ _______ _______ _____ _____    ______ ____
ROOT
ATOM      1  C   UNL     1      -7.917   2.950 131.076  0.00  0.00    +0.000 A 
ATOM      2  C   UNL     1      -7.371   2.650 129.758  0.00  0.00    +0.000 A 
ATOM      3  C   UNL     1      -6.182   3.533 129.569  0.00  0.00    +0.000 A 
ATOM      4  C   UNL     1      -6.087   4.346 130.684  0.00  0.00    +0.000 A 
ATOM      5  N   UNL     1      -7.143   4.057 131.549  0.00  0.00    +0.000 N 
ENDROOT
BRANCH   4   6
ATOM      6  C   UNL     1      -5.067   5.373 131.010  0.00  0.00    +0.000 A 
ATOM      7  C   UNL     1      -5.185   6.684 130.539  0.00  0.00    +0.000 A 
ATOM      8  C   UNL     1      -4.166   7.607 130.791  0.00  0.00    +0.000 A 
ATOM      9  C   UNL     1      -3.100   7.254 131.612  0.00  0.00    +0.000 A 
ATOM     10  F   UNL     1      -2.162   8.163 131.906  0.00  0.00    +0.000 F 
ATOM     11  C   UNL     1      -2.992   5.976 132.135  0.00  0.00    +0.000 A 
ATOM     12  C   UNL     1      -3.953   5.028 131.799  0.00  0.00    +0.000 A 
ENDBRANCH   4   6
BRANCH   3  13
ATOM     13  C   UNL     1      -5.136   3.629 128.502  0.00  0.00    +0.000 A 
ATOM     14  C   UNL     1      -5.316   4.405 127.351  0.00  0.00    +0.000 A 
ATOM     15  C   UNL     1      -4.345   4.425 126.329  0.00  0.00    +0.000 A 
ATOM     16  C   UNL     1      -3.126   3.767 126.484  0.00  0.00    +0.000 A 
ATOM     17  C   UNL     1      -2.881   3.074 127.662  0.00  0.00    +0.000 A 
ATOM     18  C   UNL     1      -3.876   3.002 128.654  0.00  0.00    +0.000 A 
ENDBRANCH   3  13
BRANCH   2  19
ATOM     19  C   UNL     1      -7.773   1.598 128.715  0.00  0.00    +0.000 C 
ATOM     20  O   UNL     1      -8.826   1.738 128.085  0.00  0.00    +0.000 OA
ATOM     21  N   UNL     1      -7.004   0.440 128.522  0.00  0.00    +0.000 N 
ATOM     22  H   UNL     1      -6.271   0.237 129.181  0.00  0.00    +0.000 HD
BRANCH  21  23
ATOM     23  C   UNL     1      -7.181  -0.543 127.487  0.00  0.00    +0.000 A 
ATOM     24  C   UNL     1      -7.920  -1.708 127.760  0.00  0.00    +0.000 A 
ATOM     25  C   UNL     1      -8.050  -2.738 126.807  0.00  0.00    +0.000 A 
ATOM     26  C   UNL     1      -7.464  -2.609 125.551  0.00  0.00    +0.000 A 
ATOM     27  C   UNL     1      -6.721  -1.467 125.266  0.00  0.00    +0.000 A 
ATOM     28  C   UNL     1      -6.584  -0.443 126.223  0.00  0.00    +0.000 A 
ENDBRANCH  21  23
ENDBRANCH   2  19
BRANCH   1  30
ATOM     29  C   UNL     1     -10.464   2.578 131.180  0.00  0.00    +0.000 C 
ATOM     30  C   UNL     1      -9.126   2.171 131.803  0.00  0.00    +0.000 C 
ATOM     31  C   UNL     1      -9.381   0.655 131.827  0.00  0.00    +0.000 C 
ENDBRANCH   1  30
BRANCH   5  32
ATOM     32  C   UNL     1      -7.215   4.932 132.747  0.00  0.00    +0.000 C 
BRANCH  32  33
ATOM     33  C   UNL     1      -8.140   6.055 132.593  0.00  0.00    +0.000 C 
BRANCH  33  34
ATOM     34  C   UNL     1      -9.338   6.068 131.699  0.00  0.00    +0.000 C 
BRANCH  34  35
ATOM     35  O   UNL     1     -10.428   6.425 132.520  0.00  0.00    +0.000 OA
ATOM     36  H   UNL     1     -10.292   7.345 132.803  0.00  0.00    +0.000 HD
ENDBRANCH  34  35
BRANCH  34  37
ATOM     37  C   UNL     1      -9.141   7.084 130.534  0.00  0.00    +0.000 C 
BRANCH  37  38
ATOM     38  C   UNL     1     -10.245   6.914 129.505  0.00  0.00    +0.000 C 
BRANCH  38  39
ATOM     39  O   UNL     1     -10.841   5.624 129.620  0.00  0.00    +0.000 OA
ATOM     40  H   UNL     1     -11.485   5.522 128.891  0.00  0.00    +0.000 HD
ENDBRANCH  38  39
BRANCH  38  41
ATOM     41  C   UNL     1     -11.380   7.909 129.624  0.00  0.00    +0.000 C 
BRANCH  41  42
ATOM     42  C   UNL     1     -12.703   7.240 129.930  0.00  0.00    +0.000 C 
ATOM     43  O   UNL     1     -13.490   6.928 129.027  0.00  0.00    +0.000 OA
BRANCH  42  44
ATOM     44  O   UNL     1     -12.998   6.998 131.221  0.00  0.00    +0.000 OA
ATOM     45  H   UNL     1     -13.126   6.044 131.440  0.00  0.00    +0.000 HD
ENDBRANCH  42  44
ENDBRANCH  41  42
ENDBRANCH  38  41
ENDBRANCH  37  38
ENDBRANCH  34  37
ENDBRANCH  33  34
ENDBRANCH  32  33
ENDBRANCH   5  32
TORSDOF 15
ENDMDL
MODEL 5
REMARK VINA RESULT:      -8.4      1.945      3.929
REMARK  Name = Atorvastatin
REMARK  17 active torsions:
REMARK  status: ('A' for Active; 'I' for Inactive)
REMARK    1  A    between atoms: C_1  and  C_2
REMARK    2  A    between atoms: C_2  and  C_3
REMARK    3  A    between atoms: C_2  and  C_4
REMARK    4  A    between atoms: C_5  and  C_6
REMARK    5  A    between atoms: N_8  and  C_9
REMARK    6  A    between atoms: C_15  and  C_36
REMARK    7  A    between atoms: C_16  and  C_29
REMARK    8  A    between atoms: N_17  and  C_18
REMARK    9  A    between atoms: C_18  and  C_19
REMARK   10  A    between atoms: C_19  and  C_20
REMARK   11  A    between atoms: C_20  and  O_21
REMARK   12  A    between atoms: C_20  and  C_22
REMARK   13  A    between atoms: C_22  and  C_23
REMARK   14  A    between atoms: C_23  and  O_24
REMARK   15  A    between atoms: C_23  and  C_25
REMARK   16  A    between atoms: C_25  and  C_26
REMARK   17  A    between atoms: C_26  and  O_27
REMARK                            x       y       z     vdW  Elec       q    Type
REMARK                         _______ _______ _______ _____ _____    ______ ____
ROOT
ATOM      1  C   UNL     1      -7.127   2.088 128.020  0.00  0.00    +0.000 A 
ATOM      2  C   UNL     1      -7.405   1.505 126.713  0.00  0.00    +0.000 A 
ATOM      3  C   UNL     1      -7.268   0.025 126.861  0.00  0.00    +0.000 A 
ATOM      4  C   UNL     1      -6.865  -0.228 128.160  0.00  0.00    +0.000 A 
ATOM      5  N   UNL     1      -6.716   0.985 128.834  0.00  0.00    +0.000 N 
ENDROOT
BRANCH   4   6
ATOM      6  C   UNL     1      -6.621  -1.530 128.829  0.00  0.00    +0.000 A 
ATOM      7  C   UNL     1      -5.336  -2.075 128.902  0.00  0.00    +0.000 A 
ATOM      8  C   UNL     1      -5.150  -3.342 129.461  0.00  0.00    +0.000 A 
ATOM      9  C   UNL     1      -6.221  -4.001 130.054  0.00  0.00    +0.000 A 
ATOM     10  F   UNL     1      -6.024  -5.184 130.650  0.00  0.00    +0.000 F 
ATOM     11  C   UNL     1      -7.494  -3.453 130.043  0.00  0.00    +0.000 A 
ATOM     12  C   UNL     1      -7.698  -2.240 129.394  0.00  0.00    +0.000 A 
ENDBRANCH   4   6
BRANCH   3  13
ATOM     13  C   UNL     1      -7.534  -1.126 125.941  0.00  0.00    +0.000 A 
ATOM     14  C   UNL     1      -6.513  -1.746 125.211  0.00  0.00    +0.000 A 
ATOM     15  C   UNL     1      -6.797  -2.784 124.299  0.00  0.00    +0.000 A 
ATOM     16  C   UNL     1      -8.086  -3.302 124.181  0.00  0.00    +0.000 A 
ATOM     17  C   UNL     1      -9.098  -2.771 124.969  0.00  0.00    +0.000 A 
ATOM     18  C   UNL     1      -8.826  -1.694 125.833  0.00  0.00    +0.000 A 
ENDBRANCH   3  13
BRANCH   2  19
ATOM     19  C   UNL     1      -7.857   2.149 125.396  0.00  0.00    +0.000 C 
ATOM     20  O   UNL     1      -8.951   2.721 125.344  0.00  0.00    +0.000 OA
ATOM     21  N   UNL     1      -7.085   2.030 124.230  0.00  0.00    +0.000 N 
ATOM     22  H   UNL     1      -6.309   1.391 124.234  0.00  0.00    +0.000 HD
BRANCH  21  23
ATOM     23  C   UNL     1      -7.314   2.704 122.980  0.00  0.00    +0.000 A 
ATOM     24  C   UNL     1      -8.620   2.772 122.462  0.00  0.00    +0.000 A 
ATOM     25  C   UNL     1      -8.883   3.345 121.202  0.00  0.00    +0.000 A 
ATOM     26  C   UNL     1      -7.846   3.886 120.446  0.00  0.00    +0.000 A 
ATOM     27  C   UNL     1      -6.546   3.818 120.939  0.00  0.00    +0.000 A 
ATOM     28  C   UNL     1      -6.283   3.236 122.194  0.00  0.00    +0.000 A 
ENDBRANCH  21  23
ENDBRANCH   2  19
BRANCH   1  30
ATOM     29  C   UNL     1      -8.502   3.848 129.304  0.00  0.00    +0.000 C 
ATOM     30  C   UNL     1      -7.272   3.643 128.416  0.00  0.00    +0.000 C 
ATOM     31  C   UNL     1      -6.295   4.492 129.246  0.00  0.00    +0.000 C 
ENDBRANCH   1  30
BRANCH   5  32
ATOM     32  C   UNL     1      -6.189   0.860 130.217  0.00  0.00    +0.000 C 
BRANCH  32  33
ATOM     33  C   UNL     1      -7.233   0.869 131.241  0.00  0.00    +0.000 C 
BRANCH  33  34
ATOM     34  C   UNL     1      -7.224   0.046 132.489  0.00  0.00    +0.000 C 
BRANCH  34  35
ATOM     35  O   UNL     1      -8.470  -0.613 132.526  0.00  0.00    +0.000 OA
ATOM     36  H   UNL     1      -8.805  -0.659 131.615  0.00  0.00    +0.000 HD
ENDBRANCH  34  35
BRANCH  34  37
ATOM     37  C   UNL     1      -6.040  -0.967 132.466  0.00  0.00    +0.000 C 
BRANCH  37  38
ATOM     38  C   UNL     1      -5.956  -1.696 133.797  0.00  0.00    +0.000 C 
BRANCH  38  39
ATOM     39  O   UNL     1      -6.678  -0.988 134.801  0.00  0.00    +0.000 OA
ATOM     40  H   UNL     1      -6.512  -0.032 134.677  0.00  0.00    +0.000 HD
ENDBRANCH  38  39
BRANCH  38  41
ATOM     41  C   UNL     1      -6.524  -3.099 133.786  0.00  0.00    +0.000 C 
BRANCH  41  42
ATOM     42  C   UNL     1      -7.635  -3.278 134.798  0.00  0.00    +0.000 C 
ATOM     43  O   UNL     1      -7.417  -3.762 135.916  0.00  0.00    +0.000 OA
BRANCH  42  44
ATOM     44  O   UNL     1      -8.875  -2.894 134.440  0.00  0.00    +0.000 OA
ATOM     45  H   UNL     1      -9.601  -3.327 134.950  0.00  0.00    +0.000 HD
ENDBRANCH  42  44
ENDBRANCH  41  42
ENDBRANCH  38  41
ENDBRANCH  37  38
ENDBRANCH  34  37
ENDBRANCH  33  34
ENDBRANCH  32  33
ENDBRANCH   5  32
TORSDOF 15
ENDMDL
MODEL 6
REMARK VINA RESULT:      -8.4      3.829      6.933
REMARK  Name = Atorvastatin
REMARK  17 active torsions:
REMARK  status: ('A' for Active; 'I' for Inactive)
REMARK    1  A    between atoms: C_1  and  C_2
REMARK    2  A    between atoms: C_2  and  C_3
REMARK    3  A    between atoms: C_2  and  C_4
REMARK    4  A    between atoms: C_5  and  C_6
REMARK    5  A    between atoms: N_8  and  C_9
REMARK    6  A    between atoms: C_15  and  C_36
REMARK    7  A    between atoms: C_16  and  C_29
REMARK    8  A    between atoms: N_17  and  C_18
REMARK    9  A    between atoms: C_18  and  C_19
REMARK   10  A    between atoms: C_19  and  C_20
REMARK   11  A    between atoms: C_20  and  O_21
REMARK   12  A    between atoms: C_20  and  C_22
REMARK   13  A    between atoms: C_22  and  C_23
REMARK   14  A    between atoms: C_23  and  O_24
REMARK   15  A    between atoms: C_23  and  C_25
REMARK   16  A    between atoms: C_25  and  C_26
REMARK   17  A    between atoms: C_26  and  O_27
REMARK                            x       y       z     vdW  Elec       q    Type
REMARK                         _______ _______ _______ _____ _____    ______ ____
ROOT
ATOM      1  C   UNL     1      -6.610   1.726 131.579  0.00  0.00    +0.000 A 
ATOM      2  C   UNL     1      -6.200   1.521 130.195  0.00  0.00    +0.000 A 
ATOM      3  C   UNL     1      -5.424   2.732 129.789  0.00  0.00    +0.000 A 
ATOM      4  C   UNL     1      -5.445   3.615 130.854  0.00  0.00    +0.000 A 
ATOM      5  N   UNL     1      -6.196   3.060 131.891  0.00  0.00    +0.000 N 
ENDROOT
BRANCH   4   6
ATOM      6  C   UNL     1      -4.798   4.944 130.981  0.00  0.00    +0.000 A 
ATOM      7  C   UNL     1      -3.506   5.073 131.498  0.00  0.00    +0.000 A 
ATOM      8  C   UNL     1      -2.956   6.343 131.685  0.00  0.00    +0.000 A 
ATOM      9  C   UNL     1      -3.645   7.468 131.242  0.00  0.00    +0.000 A 
ATOM     10  F   UNL     1      -3.084   8.678 131.361  0.00  0.00    +0.000 F 
ATOM     11  C   UNL     1      -4.904   7.359 130.675  0.00  0.00    +0.000 A 
ATOM     12  C   UNL     1      -5.494   6.103 130.585  0.00  0.00    +0.000 A 
ENDBRANCH   4   6
BRANCH   3  13
ATOM     13  C   UNL     1      -4.646   3.086 128.560  0.00  0.00    +0.000 A 
ATOM     14  C   UNL     1      -3.291   2.766 128.420  0.00  0.00    +0.000 A 
ATOM     15  C   UNL     1      -2.562   3.171 127.283  0.00  0.00    +0.000 A 
ATOM     16  C   UNL     1      -3.194   3.798 126.211  0.00  0.00    +0.000 A 
ATOM     17  C   UNL     1      -4.560   4.035 126.282  0.00  0.00    +0.000 A 
ATOM     18  C   UNL     1      -5.275   3.689 127.444  0.00  0.00    +0.000 A 
ENDBRANCH   3  13
BRANCH   2  19
ATOM     19  C   UNL     1      -6.371   0.318 129.259  0.00  0.00    +0.000 C 
ATOM     20  O   UNL     1      -5.371  -0.225 128.778  0.00  0.00    +0.000 OA
ATOM     21  N   UNL     1      -7.647  -0.127 128.878  0.00  0.00    +0.000 N 
ATOM     22  H   UNL     1      -8.441   0.447 129.106  0.00  0.00    +0.000 HD
BRANCH  21  23
ATOM     23  C   UNL     1      -7.950  -1.321 128.135  0.00  0.00    +0.000 A 
ATOM     24  C   UNL     1      -8.136  -1.239 126.743  0.00  0.00    +0.000 A 
ATOM     25  C   UNL     1      -8.519  -2.364 125.985  0.00  0.00    +0.000 A 
ATOM     26  C   UNL     1      -8.697  -3.599 126.601  0.00  0.00    +0.000 A 
ATOM     27  C   UNL     1      -8.525  -3.696 127.980  0.00  0.00    +0.000 A 
ATOM     28  C   UNL     1      -8.154  -2.570 128.738  0.00  0.00    +0.000 A 
ENDBRANCH  21  23
ENDBRANCH   2  19
BRANCH   1  30
ATOM     29  C   UNL     1      -8.841   0.569 132.146  0.00  0.00    +0.000 C 
ATOM     30  C   UNL     1      -7.358   0.649 132.516  0.00  0.00    +0.000 C 
ATOM     31  C   UNL     1      -7.099  -0.865 132.591  0.00  0.00    +0.000 C 
ENDBRANCH   1  30
BRANCH   5  32
ATOM     32  C   UNL     1      -6.381   3.952 133.063  0.00  0.00    +0.000 C 
BRANCH  32  33
ATOM     33  C   UNL     1      -7.697   3.826 133.690  0.00  0.00    +0.000 C 
BRANCH  33  34
ATOM     34  C   UNL     1      -8.975   4.354 133.123  0.00  0.00    +0.000 C 
BRANCH  34  35
ATOM     35  O   UNL     1      -9.981   4.003 134.048  0.00  0.00    +0.000 OA
ATOM     36  H   UNL     1     -10.422   3.206 133.712  0.00  0.00    +0.000 HD
ENDBRANCH  34  35
BRANCH  34  37
ATOM     37  C   UNL     1      -8.890   5.898 132.927  0.00  0.00    +0.000 C 
BRANCH  37  38
ATOM     38  C   UNL     1      -9.460   6.281 131.572  0.00  0.00    +0.000 C 
BRANCH  38  39
ATOM     39  O   UNL     1      -8.931   5.438 130.551  0.00  0.00    +0.000 OA
ATOM     40  H   UNL     1      -9.673   4.936 130.158  0.00  0.00    +0.000 HD
ENDBRANCH  38  39
BRANCH  38  41
ATOM     41  C   UNL     1     -10.967   6.168 131.465  0.00  0.00    +0.000 C 
BRANCH  41  42
ATOM     42  C   UNL     1     -11.397   5.227 130.361  0.00  0.00    +0.000 C 
ATOM     43  O   UNL     1     -11.764   5.652 129.259  0.00  0.00    +0.000 OA
BRANCH  42  44
ATOM     44  O   UNL     1     -11.370   3.906 130.620  0.00  0.00    +0.000 OA
ATOM     45  H   UNL     1     -12.113   3.395 130.219  0.00  0.00    +0.000 HD
ENDBRANCH  42  44
ENDBRANCH  41  42
ENDBRANCH  38  41
ENDBRANCH  37  38
ENDBRANCH  34  37
ENDBRANCH  33  34
ENDBRANCH  32  33
ENDBRANCH   5  32
TORSDOF 15
ENDMDL
MODEL 7
REMARK VINA RESULT:      -8.3      3.585      6.165
REMARK  Name = Atorvastatin
REMARK  17 active torsions:
REMARK  status: ('A' for Active; 'I' for Inactive)
REMARK    1  A    between atoms: C_1  and  C_2
REMARK    2  A    between atoms: C_2  and  C_3
REMARK    3  A    between atoms: C_2  and  C_4
REMARK    4  A    between atoms: C_5  and  C_6
REMARK    5  A    between atoms: N_8  and  C_9
REMARK    6  A    between atoms: C_15  and  C_36
REMARK    7  A    between atoms: C_16  and  C_29
REMARK    8  A    between atoms: N_17  and  C_18
REMARK    9  A    between atoms: C_18  and  C_19
REMARK   10  A    between atoms: C_19  and  C_20
REMARK   11  A    between atoms: C_20  and  O_21
REMARK   12  A    between atoms: C_20  and  C_22
REMARK   13  A    between atoms: C_22  and  C_23
REMARK   14  A    between atoms: C_23  and  O_24
REMARK   15  A    between atoms: C_23  and  C_25
REMARK   16  A    between atoms: C_25  and  C_26
REMARK   17  A    between atoms: C_26  and  O_27
REMARK                            x       y       z     vdW  Elec       q    Type
REMARK                         _______ _______ _______ _____ _____    ______ ____
ROOT
ATOM      1  C   UNL     1      -7.753  -0.853 126.044  0.00  0.00    +0.000 A 
ATOM      2  C   UNL     1      -7.121   0.352 125.521  0.00  0.00    +0.000 A 
ATOM      3  C   UNL     1      -6.381   0.982 126.656  0.00  0.00    +0.000 A 
ATOM      4  C   UNL     1      -6.630   0.223 127.786  0.00  0.00    +0.000 A 
ATOM      5  N   UNL     1      -7.490  -0.824 127.451  0.00  0.00    +0.000 N 
ENDROOT
BRANCH   4   6
ATOM      6  C   UNL     1      -6.107   0.396 129.164  0.00  0.00    +0.000 A 
ATOM      7  C   UNL     1      -6.879   1.004 130.158  0.00  0.00    +0.000 A 
ATOM      8  C   UNL     1      -6.330   1.230 131.423  0.00  0.00    +0.000 A 
ATOM      9  C   UNL     1      -5.064   0.741 131.725  0.00  0.00    +0.000 A 
ATOM     10  F   UNL     1      -4.569   0.900 132.959  0.00  0.00    +0.000 F 
ATOM     11  C   UNL     1      -4.302   0.086 130.770  0.00  0.00    +0.000 A 
ATOM     12  C   UNL     1      -4.809  -0.047 129.482  0.00  0.00    +0.000 A 
ENDBRANCH   4   6
BRANCH   3  13
ATOM     13  C   UNL     1      -5.450   2.150 126.750  0.00  0.00    +0.000 A 
ATOM     14  C   UNL     1      -4.089   2.043 126.444  0.00  0.00    +0.000 A 
ATOM     15  C   UNL     1      -3.218   3.141 126.606  0.00  0.00    +0.000 A 
ATOM     16  C   UNL     1      -3.706   4.397 126.964  0.00  0.00    +0.000 A 
ATOM     17  C   UNL     1      -5.069   4.553 127.174  0.00  0.00    +0.000 A 
ATOM     18  C   UNL     1      -5.928   3.443 127.074  0.00  0.00    +0.000 A 
ENDBRANCH   3  13
BRANCH   2  19
ATOM     19  C   UNL     1      -7.059   0.923 124.098  0.00  0.00    +0.000 C 
ATOM     20  O   UNL     1      -6.823   0.167 123.151  0.00  0.00    +0.000 OA
ATOM     21  N   UNL     1      -7.187   2.301 123.865  0.00  0.00    +0.000 N 
ATOM     22  H   UNL     1      -7.168   2.923 124.655  0.00  0.00    +0.000 HD
BRANCH  21  23
ATOM     23  C   UNL     1      -7.296   2.945 122.583  0.00  0.00    +0.000 A 
ATOM     24  C   UNL     1      -8.569   3.150 122.021  0.00  0.00    +0.000 A 
ATOM     25  C   UNL     1      -8.724   3.699 120.732  0.00  0.00    +0.000 A 
ATOM     26  C   UNL     1      -7.608   4.078 119.992  0.00  0.00    +0.000 A 
ATOM     27  C   UNL     1      -6.340   3.875 120.530  0.00  0.00    +0.000 A 
ATOM     28  C   UNL     1      -6.186   3.317 121.813  0.00  0.00    +0.000 A 
ENDBRANCH  21  23
ENDBRANCH   2  19
BRANCH   1  30
ATOM     29  C   UNL     1      -7.590  -3.004 124.636  0.00  0.00    +0.000 C 
ATOM     30  C   UNL     1      -8.558  -1.953 125.184  0.00  0.00    +0.000 C 
ATOM     31  C   UNL     1      -9.633  -2.930 125.689  0.00  0.00    +0.000 C 
ENDBRANCH   1  30
BRANCH   5  32
ATOM     32  C   UNL     1      -7.917  -1.661 128.600  0.00  0.00    +0.000 C 
BRANCH  32  33
ATOM     33  C   UNL     1      -7.342  -3.006 128.587  0.00  0.00    +0.000 C 
BRANCH  33  34
ATOM     34  C   UNL     1      -6.472  -3.582 129.657  0.00  0.00    +0.000 C 
BRANCH  34  35
ATOM     35  O   UNL     1      -5.144  -3.387 129.221  0.00  0.00    +0.000 OA
ATOM     36  H   UNL     1      -5.182  -3.031 128.318  0.00  0.00    +0.000 HD
ENDBRANCH  34  35
BRANCH  34  37
ATOM     37  C   UNL     1      -6.738  -2.873 131.019  0.00  0.00    +0.000 C 
BRANCH  37  38
ATOM     38  C   UNL     1      -6.095  -3.661 132.148  0.00  0.00    +0.000 C 
BRANCH  38  39
ATOM     39  O   UNL     1      -5.603  -4.910 131.669  0.00  0.00    +0.000 OA
ATOM     40  H   UNL     1      -5.568  -5.531 132.423  0.00  0.00    +0.000 HD
ENDBRANCH  38  39
BRANCH  38  41
ATOM     41  C   UNL     1      -4.917  -2.974 132.807  0.00  0.00    +0.000 C 
BRANCH  41  42
ATOM     42  C   UNL     1      -3.592  -3.563 132.375  0.00  0.00    +0.000 C 
ATOM     43  O   UNL     1      -2.960  -4.333 133.109  0.00  0.00    +0.000 OA
BRANCH  42  44
ATOM     44  O   UNL     1      -3.119  -3.217 131.162  0.00  0.00    +0.000 OA
ATOM     45  H   UNL     1      -3.120  -2.247 130.984  0.00  0.00    +0.000 HD
ENDBRANCH  42  44
ENDBRANCH  41  42
ENDBRANCH  38  41
ENDBRANCH  37  38
ENDBRANCH  34  37
ENDBRANCH  33  34
ENDBRANCH  32  33
ENDBRANCH   5  32
TORSDOF 15
ENDMDL
MODEL 8
REMARK VINA RESULT:      -8.3      3.625      7.577
REMARK  Name = Atorvastatin
REMARK  17 active torsions:
REMARK  status: ('A' for Active; 'I' for Inactive)
REMARK    1  A    between atoms: C_1  and  C_2
REMARK    2  A    between atoms: C_2  and  C_3
REMARK    3  A    between atoms: C_2  and  C_4
REMARK    4  A    between atoms: C_5  and  C_6
REMARK    5  A    between atoms: N_8  and  C_9
REMARK    6  A    between atoms: C_15  and  C_36
REMARK    7  A    between atoms: C_16  and  C_29
REMARK    8  A    between atoms: N_17  and  C_18
REMARK    9  A    between atoms: C_18  and  C_19
REMARK   10  A    between atoms: C_19  and  C_20
REMARK   11  A    between atoms: C_20  and  O_21
REMARK   12  A    between atoms: C_20  and  C_22
REMARK   13  A    between atoms: C_22  and  C_23
REMARK   14  A    between atoms: C_23  and  O_24
REMARK   15  A    between atoms: C_23  and  C_25
REMARK   16  A    between atoms: C_25  and  C_26
REMARK   17  A    between atoms: C_26  and  O_27
REMARK                            x       y       z     vdW  Elec       q    Type
REMARK                         _______ _______ _______ _____ _____    ______ ____
ROOT
ATOM      1  C   UNL     1      -6.530   1.251 128.683  0.00  0.00    +0.000 A 
ATOM      2  C   UNL     1      -6.536  -0.184 128.424  0.00  0.00    +0.000 A 
ATOM      3  C   UNL     1      -7.133  -0.378 127.069  0.00  0.00    +0.000 A 
ATOM      4  C   UNL     1      -7.514   0.867 126.601  0.00  0.00    +0.000 A 
ATOM      5  N   UNL     1      -7.223   1.827 127.572  0.00  0.00    +0.000 N 
ENDROOT
BRANCH   4   6
ATOM      6  C   UNL     1      -8.122   1.232 125.298  0.00  0.00    +0.000 A 
ATOM      7  C   UNL     1      -9.510   1.236 125.123  0.00  0.00    +0.000 A 
ATOM      8  C   UNL     1     -10.050   1.500 123.863  0.00  0.00    +0.000 A 
ATOM      9  C   UNL     1      -9.215   1.878 122.817  0.00  0.00    +0.000 A 
ATOM     10  F   UNL     1      -9.745   2.197 121.629  0.00  0.00    +0.000 F 
ATOM     11  C   UNL     1      -7.841   1.935 122.982  0.00  0.00    +0.000 A 
ATOM     12  C   UNL     1      -7.296   1.571 124.209  0.00  0.00    +0.000 A 
ENDBRANCH   4   6
BRANCH   3  13
ATOM     13  C   UNL     1      -7.310  -1.576 126.189  0.00  0.00    +0.000 A 
ATOM     14  C   UNL     1      -6.302  -2.020 125.326  0.00  0.00    +0.000 A 
ATOM     15  C   UNL     1      -6.516  -3.110 124.456  0.00  0.00    +0.000 A 
ATOM     16  C   UNL     1      -7.696  -3.850 124.511  0.00  0.00    +0.000 A 
ATOM     17  C   UNL     1      -8.672  -3.491 125.431  0.00  0.00    +0.000 A 
ATOM     18  C   UNL     1      -8.483  -2.365 126.254  0.00  0.00    +0.000 A 
ENDBRANCH   3  13
BRANCH   2  19
ATOM     19  C   UNL     1      -5.983  -1.359 129.241  0.00  0.00    +0.000 C 
ATOM     20  O   UNL     1      -4.775  -1.615 129.197  0.00  0.00    +0.000 OA
ATOM     21  N   UNL     1      -6.838  -2.196 129.975  0.00  0.00    +0.000 N 
ATOM     22  H   UNL     1      -7.830  -2.106 129.836  0.00  0.00    +0.000 HD
BRANCH  21  23
ATOM     23  C   UNL     1      -6.443  -3.230 130.894  0.00  0.00    +0.000 A 
ATOM     24  C   UNL     1      -6.598  -3.022 132.276  0.00  0.00    +0.000 A 
ATOM     25  C   UNL     1      -6.147  -3.968 133.218  0.00  0.00    +0.000 A 
ATOM     26  C   UNL     1      -5.556  -5.155 132.793  0.00  0.00    +0.000 A 
ATOM     27  C   UNL     1      -5.387  -5.374 131.429  0.00  0.00    +0.000 A 
ATOM     28  C   UNL     1      -5.828  -4.423 130.489  0.00  0.00    +0.000 A 
ENDBRANCH  21  23
ENDBRANCH   2  19
BRANCH   1  30
ATOM     29  C   UNL     1      -6.614   1.595 131.235  0.00  0.00    +0.000 C 
ATOM     30  C   UNL     1      -5.867   1.983 129.956  0.00  0.00    +0.000 C 
ATOM     31  C   UNL     1      -4.442   1.796 130.505  0.00  0.00    +0.000 C 
ENDBRANCH   1  30
BRANCH   5  32
ATOM     32  C   UNL     1      -7.675   3.200 127.234  0.00  0.00    +0.000 C 
BRANCH  32  33
ATOM     33  C   UNL     1      -6.574   4.133 126.995  0.00  0.00    +0.000 C 
BRANCH  33  34
ATOM     34  C   UNL     1      -5.977   4.438 125.658  0.00  0.00    +0.000 C 
BRANCH  34  35
ATOM     35  O   UNL     1      -5.941   5.845 125.563  0.00  0.00    +0.000 OA
ATOM     36  H   UNL     1      -5.048   6.096 125.274  0.00  0.00    +0.000 HD
ENDBRANCH  34  35
BRANCH  34  37
ATOM     37  C   UNL     1      -4.552   3.819 125.543  0.00  0.00    +0.000 C 
BRANCH  37  38
ATOM     38  C   UNL     1      -3.992   3.541 126.928  0.00  0.00    +0.000 C 
BRANCH  38  39
ATOM     39  O   UNL     1      -3.515   2.201 127.015  0.00  0.00    +0.000 OA
ATOM     40  H   UNL     1      -3.133   2.073 127.906  0.00  0.00    +0.000 HD
ENDBRANCH  38  39
BRANCH  38  41
ATOM     41  C   UNL     1      -2.830   4.425 127.329  0.00  0.00    +0.000 C 
BRANCH  41  42
ATOM     42  C   UNL     1      -3.254   5.559 128.237  0.00  0.00    +0.000 C 
ATOM     43  O   UNL     1      -2.914   5.593 129.426  0.00  0.00    +0.000 OA
BRANCH  42  44
ATOM     44  O   UNL     1      -4.021   6.530 127.708  0.00  0.00    +0.000 OA
ATOM     45  H   UNL     1      -4.517   6.265 126.896  0.00  0.00    +0.000 HD
ENDBRANCH  42  44
ENDBRANCH  41  42
ENDBRANCH  38  41
ENDBRANCH  37  38
ENDBRANCH  34  37
ENDBRANCH  33  34
ENDBRANCH  32  33
ENDBRANCH   5  32
TORSDOF 15
ENDMDL
MODEL 9
REMARK VINA RESULT:      -8.2      1.787      2.224
REMARK  Name = Atorvastatin
REMARK  17 active torsions:
REMARK  status: ('A' for Active; 'I' for Inactive)
REMARK    1  A    between atoms: C_1  and  C_2
REMARK    2  A    between atoms: C_2  and  C_3
REMARK    3  A    between atoms: C_2  and  C_4
REMARK    4  A    between atoms: C_5  and  C_6
REMARK    5  A    between atoms: N_8  and  C_9
REMARK    6  A    between atoms: C_15  and  C_36
REMARK    7  A    between atoms: C_16  and  C_29
REMARK    8  A    between atoms: N_17  and  C_18
REMARK    9  A    between atoms: C_18  and  C_19
REMARK   10  A    between atoms: C_19  and  C_20
REMARK   11  A    between atoms: C_20  and  O_21
REMARK   12  A    between atoms: C_20  and  C_22
REMARK   13  A    between atoms: C_22  and  C_23
REMARK   14  A    between atoms: C_23  and  O_24
REMARK   15  A    between atoms: C_23  and  C_25
REMARK   16  A    between atoms: C_25  and  C_26
REMARK   17  A    between atoms: C_26  and  O_27
REMARK                            x       y       z     vdW  Elec       q    Type
REMARK                         _______ _______ _______ _____ _____    ______ ____
ROOT
ATOM      1  C   UNL     1      -7.160   2.045 127.920  0.00  0.00    +0.000 A 
ATOM      2  C   UNL     1      -7.443   1.450 126.620  0.00  0.00    +0.000 A 
ATOM      3  C   UNL     1      -7.318  -0.030 126.785  0.00  0.00    +0.000 A 
ATOM      4  C   UNL     1      -6.919  -0.271 128.087  0.00  0.00    +0.000 A 
ATOM      5  N   UNL     1      -6.758   0.948 128.747  0.00  0.00    +0.000 N 
ENDROOT
BRANCH   4   6
ATOM      6  C   UNL     1      -6.686  -1.567 128.771  0.00  0.00    +0.000 A 
ATOM      7  C   UNL     1      -7.732  -2.252 129.396  0.00  0.00    +0.000 A 
ATOM      8  C   UNL     1      -7.467  -3.427 130.105  0.00  0.00    +0.000 A 
ATOM      9  C   UNL     1      -6.189  -3.976 130.082  0.00  0.00    +0.000 A 
ATOM     10  F   UNL     1      -5.956  -5.137 130.705  0.00  0.00    +0.000 F 
ATOM     11  C   UNL     1      -5.149  -3.342 129.421  0.00  0.00    +0.000 A 
ATOM     12  C   UNL     1      -5.391  -2.119 128.804  0.00  0.00    +0.000 A 
ENDBRANCH   4   6
BRANCH   3  13
ATOM     13  C   UNL     1      -7.593  -1.189 125.878  0.00  0.00    +0.000 A 
ATOM     14  C   UNL     1      -6.593  -1.772 125.093  0.00  0.00    +0.000 A 
ATOM     15  C   UNL     1      -6.890  -2.819 124.195  0.00  0.00    +0.000 A 
ATOM     16  C   UNL     1      -8.165  -3.381 124.146  0.00  0.00    +0.000 A 
ATOM     17  C   UNL     1      -9.150  -2.887 124.989  0.00  0.00    +0.000 A 
ATOM     18  C   UNL     1      -8.869  -1.801 125.839  0.00  0.00    +0.000 A 
ENDBRANCH   3  13
BRANCH   2  19
ATOM     19  C   UNL     1      -7.888   2.082 125.296  0.00  0.00    +0.000 C 
ATOM     20  O   UNL     1      -8.947   2.717 125.252  0.00  0.00    +0.000 OA
ATOM     21  N   UNL     1      -7.154   1.886 124.116  0.00  0.00    +0.000 N 
ATOM     22  H   UNL     1      -6.416   1.202 124.121  0.00  0.00    +0.000 HD
BRANCH  21  23
ATOM     23  C   UNL     1      -7.374   2.536 122.852  0.00  0.00    +0.000 A 
ATOM     24  C   UNL     1      -6.275   3.046 122.138  0.00  0.00    +0.000 A 
ATOM     25  C   UNL     1      -6.446   3.766 120.938  0.00  0.00    +0.000 A 
ATOM     26  C   UNL     1      -7.721   3.966 120.416  0.00  0.00    +0.000 A 
ATOM     27  C   UNL     1      -8.821   3.476 121.115  0.00  0.00    +0.000 A 
ATOM     28  C   UNL     1      -8.649   2.766 122.318  0.00  0.00    +0.000 A 
ENDBRANCH  21  23
ENDBRANCH   2  19
BRANCH   1  30
ATOM     29  C   UNL     1      -8.563   3.845 129.117  0.00  0.00    +0.000 C 
ATOM     30  C   UNL     1      -7.292   3.606 128.298  0.00  0.00    +0.000 C 
ATOM     31  C   UNL     1      -6.342   4.439 129.175  0.00  0.00    +0.000 C 
ENDBRANCH   1  30
BRANCH   5  32
ATOM     32  C   UNL     1      -6.234   0.835 130.131  0.00  0.00    +0.000 C 
BRANCH  32  33
ATOM     33  C   UNL     1      -7.267   0.963 131.159  0.00  0.00    +0.000 C 
BRANCH  33  34
ATOM     34  C   UNL     1      -7.453   2.149 132.050  0.00  0.00    +0.000 C 
BRANCH  34  35
ATOM     35  O   UNL     1      -8.408   1.762 133.013  0.00  0.00    +0.000 OA
ATOM     36  H   UNL     1      -8.874   0.983 132.667  0.00  0.00    +0.000 HD
ENDBRANCH  34  35
BRANCH  34  37
ATOM     37  C   UNL     1      -6.102   2.552 132.713  0.00  0.00    +0.000 C 
BRANCH  37  38
ATOM     38  C   UNL     1      -6.199   3.961 133.274  0.00  0.00    +0.000 C 
BRANCH  38  39
ATOM     39  O   UNL     1      -7.183   4.713 132.569  0.00  0.00    +0.000 OA
ATOM     40  H   UNL     1      -6.756   5.522 132.224  0.00  0.00    +0.000 HD
ENDBRANCH  38  39
BRANCH  38  41
ATOM     41  C   UNL     1      -6.589   4.033 134.736  0.00  0.00    +0.000 C 
BRANCH  41  42
ATOM     42  C   UNL     1      -7.872   4.807 134.952  0.00  0.00    +0.000 C 
ATOM     43  O   UNL     1      -7.860   5.965 135.385  0.00  0.00    +0.000 OA
BRANCH  42  44
ATOM     44  O   UNL     1      -9.032   4.189 134.659  0.00  0.00    +0.000 OA
ATOM     45  H   UNL     1      -8.941   3.232 134.433  0.00  0.00    +0.000 HD
ENDBRANCH  42  44
ENDBRANCH  41  42
ENDBRANCH  38  41
ENDBRANCH  37  38
ENDBRANCH  34  37
ENDBRANCH  33  34
ENDBRANCH  32  33
ENDBRANCH   5  32
TORSDOF 15
ENDMDL
