MODEL 1
REMARK VINA RESULT:      -9.0      0.000      0.000
REMARK  Name = Atovaquone
REMARK  3 active torsions:
REMARK  status: ('A' for Active; 'I' for Inactive)
REMARK    1  A    between atoms: O_1  and  C_2
REMARK    2  A    between atoms: C_3  and  C_4
REMARK    3  A    between atoms: C_7  and  C_10
REMARK                            x       y       z     vdW  Elec       q    Type
REMARK                         _______ _______ _______ _____ _____    ______ ____
ROOT
ATOM      1  C   UNL     1      -8.825  -2.179 124.987  0.00  0.00    +0.000 C 
ATOM      2  C   UNL     1      -7.688  -1.475 124.821  0.00  0.00    +0.000 C 
ATOM      3  C   UNL     1      -6.663  -1.495 125.932  0.00  0.00    +0.000 C 
ATOM      4  O   UNL     1      -5.533  -1.034 125.870  0.00  0.00    +0.000 OA
ATOM      5  C   UNL     1      -6.956  -2.145 127.189  0.00  0.00    +0.000 A 
ATOM      6  C   UNL     1      -5.995  -2.073 128.212  0.00  0.00    +0.000 A 
ATOM      7  C   UNL     1      -6.184  -2.797 129.376  0.00  0.00    +0.000 A 
ATOM      8  C   UNL     1      -7.333  -3.571 129.514  0.00  0.00    +0.000 A 
ATOM      9  C   UNL     1      -8.297  -3.608 128.500  0.00  0.00    +0.000 A 
ATOM     10  C   UNL     1      -8.110  -2.879 127.329  0.00  0.00    +0.000 A 
ATOM     11  C   UNL     1      -9.120  -2.905 126.263  0.00  0.00    +0.000 C 
ATOM     12  O   UNL     1     -10.173  -3.499 126.430  0.00  0.00    +0.000 OA
ENDROOT
BRANCH   2  13
ATOM     13  C   UNL     1      -7.381  -0.693 123.545  0.00  0.00    +0.000 C 
ATOM     14  C   UNL     1      -8.618  -0.096 122.813  0.00  0.00    +0.000 C 
ATOM     15  C   UNL     1      -9.284   1.009 123.628  0.00  0.00    +0.000 C 
ATOM     16  C   UNL     1      -8.306   2.174 123.901  0.00  0.00    +0.000 C 
ATOM     17  C   UNL     1      -7.073   1.610 124.604  0.00  0.00    +0.000 C 
ATOM     18  C   UNL     1      -6.407   0.461 123.780  0.00  0.00    +0.000 C 
BRANCH  16  19
ATOM     19  C   UNL     1      -7.912   2.933 122.648  0.00  0.00    +0.000 A 
ATOM     20  C   UNL     1      -8.876   3.214 121.681  0.00  0.00    +0.000 A 
ATOM     21  C   UNL     1      -8.496   3.806 120.479  0.00  0.00    +0.000 A 
ATOM     22  C   UNL     1      -7.154   4.101 120.230  0.00  0.00    +0.000 A 
ATOM     23 CL   UNL     1      -6.681   4.805 118.739  0.00  0.00    +0.000 Cl
ATOM     24  C   UNL     1      -6.188   3.854 121.187  0.00  0.00    +0.000 A 
ATOM     25  C   UNL     1      -6.583   3.333 122.403  0.00  0.00    +0.000 A 
ENDBRANCH  16  19
ENDBRANCH   2  13
BRANCH   1  26
ATOM     26  O   UNL     1      -9.806  -2.307 124.015  0.00  0.00    +0.000 OA
ATOM     27  H   UNL     1      -9.795  -1.566 123.394  0.00  0.00    +0.000 HD
ENDBRANCH   1  26
TORSDOF 3
ENDMDL
MODEL 2
REMARK VINA RESULT:      -8.6      3.536      7.976
REMARK  Name = Atovaquone
REMARK  3 active torsions:
REMARK  status: ('A' for Active; 'I' for Inactive)
REMARK    1  A    between atoms: O_1  and  C_2
REMARK    2  A    between atoms: C_3  and  C_4
REMARK    3  A    between atoms: C_7  and  C_10
REMARK                            x       y       z     vdW  Elec       q    Type
REMARK                         _______ _______ _______ _____ _____    ______ ____
ROOT
ATOM      1  C   UNL     1      -8.696   2.483 123.141  0.00  0.00    +0.000 C 
ATOM      2  C   UNL     1      -7.682   2.518 124.028  0.00  0.00    +0.000 C 
ATOM      3  C   UNL     1      -6.395   3.198 123.619  0.00  0.00    +0.000 C 
ATOM      4  O   UNL     1      -5.449   3.441 124.354  0.00  0.00    +0.000 OA
ATOM      5  C   UNL     1      -6.216   3.678 122.268  0.00  0.00    +0.000 A 
ATOM      6  C   UNL     1      -4.974   4.239 121.921  0.00  0.00    +0.000 A 
ATOM      7  C   UNL     1      -4.815   4.829 120.681  0.00  0.00    +0.000 A 
ATOM      8  C   UNL     1      -5.888   4.842 119.794  0.00  0.00    +0.000 A 
ATOM      9  C   UNL     1      -7.110   4.252 120.139  0.00  0.00    +0.000 A 
ATOM     10  C   UNL     1      -7.271   3.655 121.386  0.00  0.00    +0.000 A 
ATOM     11  C   UNL     1      -8.546   3.026 121.754  0.00  0.00    +0.000 C 
ATOM     12  O   UNL     1      -9.449   2.946 120.937  0.00  0.00    +0.000 OA
ENDROOT
BRANCH   2  13
ATOM     13  C   UNL     1      -7.795   1.936 125.435  0.00  0.00    +0.000 C 
ATOM     14  C   UNL     1      -8.778   0.739 125.586  0.00  0.00    +0.000 C 
ATOM     15  C   UNL     1      -8.286  -0.500 124.842  0.00  0.00    +0.000 C 
ATOM     16  C   UNL     1      -6.912  -0.965 125.374  0.00  0.00    +0.000 C 
ATOM     17  C   UNL     1      -5.932   0.200 125.255  0.00  0.00    +0.000 C 
ATOM     18  C   UNL     1      -6.450   1.476 125.994  0.00  0.00    +0.000 C 
BRANCH  16  19
ATOM     19  C   UNL     1      -6.964  -1.482 126.800  0.00  0.00    +0.000 A 
ATOM     20  C   UNL     1      -5.847  -1.348 127.623  0.00  0.00    +0.000 A 
ATOM     21  C   UNL     1      -5.851  -1.924 128.891  0.00  0.00    +0.000 A 
ATOM     22  C   UNL     1      -6.957  -2.651 129.333  0.00  0.00    +0.000 A 
ATOM     23 CL   UNL     1      -6.952  -3.383 130.885  0.00  0.00    +0.000 Cl
ATOM     24  C   UNL     1      -8.084  -2.772 128.542  0.00  0.00    +0.000 A 
ATOM     25  C   UNL     1      -8.100  -2.138 127.316  0.00  0.00    +0.000 A 
ENDBRANCH  16  19
ENDBRANCH   2  13
BRANCH   1  26
ATOM     26  O   UNL     1      -9.950   1.962 123.420  0.00  0.00    +0.000 OA
ATOM     27  H   UNL     1     -10.095   1.863 124.371  0.00  0.00    +0.000 HD
ENDBRANCH   1  26
TORSDOF 3
ENDMDL
MODEL 3
REMARK VINA RESULT:      -8.5      3.510      8.365
REMARK  Name = Atovaquone
REMARK  3 active torsions:
REMARK  status: ('A' for Active; 'I' for Inactive)
REMARK    1  A    between atoms: O_1  and  C_2
REMARK    2  A    between atoms: C_3  and  C_4
REMARK    3  A    between atoms: C_7  and  C_10
REMARK                            x       y       z     vdW  Elec       q    Type
REMARK                         _______ _______ _______ _____ _____    ______ ____
ROOT
ATOM      1  C   UNL     1      -6.076   3.411 123.390  0.00  0.00    +0.000 C 
ATOM      2  C   UNL     1      -7.297   2.863 123.241  0.00  0.00    +0.000 C 
ATOM      3  C   UNL     1      -7.995   3.016 121.908  0.00  0.00    +0.000 C 
ATOM      4  O   UNL     1      -9.028   2.455 121.574  0.00  0.00    +0.000 OA
ATOM      5  C   UNL     1      -7.421   3.841 120.871  0.00  0.00    +0.000 A 
ATOM      6  C   UNL     1      -8.145   4.006 119.677  0.00  0.00    +0.000 A 
ATOM      7  C   UNL     1      -7.566   4.676 118.615  0.00  0.00    +0.000 A 
ATOM      8  C   UNL     1      -6.278   5.187 118.757  0.00  0.00    +0.000 A 
ATOM      9  C   UNL     1      -5.580   5.044 119.962  0.00  0.00    +0.000 A 
ATOM     10  C   UNL     1      -6.163   4.372 121.032  0.00  0.00    +0.000 A 
ATOM     11  C   UNL     1      -5.441   4.224 122.304  0.00  0.00    +0.000 C 
ATOM     12  O   UNL     1      -4.358   4.763 122.460  0.00  0.00    +0.000 OA
ENDROOT
BRANCH   2  13
ATOM     13  C   UNL     1      -7.983   2.063 124.347  0.00  0.00    +0.000 C 
ATOM     14  C   UNL     1      -8.925   0.923 123.862  0.00  0.00    +0.000 C 
ATOM     15  C   UNL     1      -8.151  -0.204 123.182  0.00  0.00    +0.000 C 
ATOM     16  C   UNL     1      -7.120  -0.838 124.144  0.00  0.00    +0.000 C 
ATOM     17  C   UNL     1      -6.195   0.266 124.650  0.00  0.00    +0.000 C 
ATOM     18  C   UNL     1      -6.990   1.432 125.322  0.00  0.00    +0.000 C 
BRANCH  16  19
ATOM     19  C   UNL     1      -7.759  -1.580 125.303  0.00  0.00    +0.000 A 
ATOM     20  C   UNL     1      -7.130  -1.587 126.547  0.00  0.00    +0.000 A 
ATOM     21  C   UNL     1      -7.652  -2.362 127.580  0.00  0.00    +0.000 A 
ATOM     22  C   UNL     1      -8.787  -3.147 127.370  0.00  0.00    +0.000 A 
ATOM     23 CL   UNL     1      -9.415  -4.122 128.634  0.00  0.00    +0.000 Cl
ATOM     24  C   UNL     1      -9.440  -3.131 126.152  0.00  0.00    +0.000 A 
ATOM     25  C   UNL     1      -8.958  -2.306 125.156  0.00  0.00    +0.000 A 
ENDBRANCH  16  19
ENDBRANCH   2  13
BRANCH   1  26
ATOM     26  O   UNL     1      -5.299   3.275 124.531  0.00  0.00    +0.000 OA
ATOM     27  H   UNL     1      -4.788   4.075 124.715  0.00  0.00    +0.000 HD
ENDBRANCH   1  26
TORSDOF 3
ENDMDL
MODEL 4
REMARK VINA RESULT:      -8.4      7.706     10.532
REMARK  Name = Atovaquone
REMARK  3 active torsions:
REMARK  status: ('A' for Active; 'I' for Inactive)
REMARK    1  A    between atoms: O_1  and  C_2
REMARK    2  A    between atoms: C_3  and  C_4
REMARK    3  A    between atoms: C_7  and  C_10
REMARK                            x       y       z     vdW  Elec       q    Type
REMARK                         _______ _______ _______ _____ _____    ______ ____
ROOT
ATOM      1  C   UNL     1     -10.427   5.676 131.852  0.00  0.00    +0.000 C 
ATOM      2  C   UNL     1      -9.470   5.262 130.999  0.00  0.00    +0.000 C 
ATOM      3  C   UNL     1      -9.459   5.836 129.600  0.00  0.00    +0.000 C 
ATOM      4  O   UNL     1      -8.577   5.676 128.769  0.00  0.00    +0.000 OA
ATOM      5  C   UNL     1     -10.526   6.703 129.154  0.00  0.00    +0.000 A 
ATOM      6  C   UNL     1     -10.503   7.151 127.822  0.00  0.00    +0.000 A 
ATOM      7  C   UNL     1     -11.431   8.087 127.403  0.00  0.00    +0.000 A 
ATOM      8  C   UNL     1     -12.379   8.555 128.308  0.00  0.00    +0.000 A 
ATOM      9  C   UNL     1     -12.411   8.076 129.623  0.00  0.00    +0.000 A 
ATOM     10  C   UNL     1     -11.479   7.132 130.046  0.00  0.00    +0.000 A 
ATOM     11  C   UNL     1     -11.510   6.618 131.422  0.00  0.00    +0.000 C 
ATOM     12  O   UNL     1     -12.405   6.949 132.181  0.00  0.00    +0.000 OA
ENDROOT
BRANCH   2  13
ATOM     13  C   UNL     1      -8.378   4.273 131.401  0.00  0.00    +0.000 C 
ATOM     14  C   UNL     1      -8.786   3.232 132.484  0.00  0.00    +0.000 C 
ATOM     15  C   UNL     1      -9.834   2.251 131.966  0.00  0.00    +0.000 C 
ATOM     16  C   UNL     1      -9.311   1.461 130.745  0.00  0.00    +0.000 C 
ATOM     17  C   UNL     1      -8.886   2.462 129.673  0.00  0.00    +0.000 C 
ATOM     18  C   UNL     1      -7.831   3.482 130.212  0.00  0.00    +0.000 C 
BRANCH  16  19
ATOM     19  C   UNL     1      -8.171   0.518 131.085  0.00  0.00    +0.000 A 
ATOM     20  C   UNL     1      -7.181   0.265 130.138  0.00  0.00    +0.000 A 
ATOM     21  C   UNL     1      -6.200  -0.688 130.402  0.00  0.00    +0.000 A 
ATOM     22  C   UNL     1      -6.215  -1.403 131.601  0.00  0.00    +0.000 A 
ATOM     23 CL   UNL     1      -5.023  -2.595 131.917  0.00  0.00    +0.000 Cl
ATOM     24  C   UNL     1      -7.174  -1.147 132.563  0.00  0.00    +0.000 A 
ATOM     25  C   UNL     1      -8.100  -0.152 132.323  0.00  0.00    +0.000 A 
ENDBRANCH  16  19
ENDBRANCH   2  13
BRANCH   1  26
ATOM     26  O   UNL     1     -10.501   5.288 133.181  0.00  0.00    +0.000 OA
ATOM     27  H   UNL     1      -9.727   4.773 133.448  0.00  0.00    +0.000 HD
ENDBRANCH   1  26
TORSDOF 3
ENDMDL
MODEL 5
REMARK VINA RESULT:      -8.1      3.580      7.920
REMARK  Name = Atovaquone
REMARK  3 active torsions:
REMARK  status: ('A' for Active; 'I' for Inactive)
REMARK    1  A    between atoms: O_1  and  C_2
REMARK    2  A    between atoms: C_3  and  C_4
REMARK    3  A    between atoms: C_7  and  C_10
REMARK                            x       y       z     vdW  Elec       q    Type
REMARK                         _______ _______ _______ _____ _____    ______ ____
ROOT
ATOM      1  C   UNL     1      -9.080   1.260 124.644  0.00  0.00    +0.000 C 
ATOM      2  C   UNL     1      -7.906   1.428 125.283  0.00  0.00    +0.000 C 
ATOM      3  C   UNL     1      -6.834   2.253 124.607  0.00  0.00    +0.000 C 
ATOM      4  O   UNL     1      -5.785   2.617 125.116  0.00  0.00    +0.000 OA
ATOM      5  C   UNL     1      -7.020   2.733 123.257  0.00  0.00    +0.000 A 
ATOM      6  C   UNL     1      -5.964   3.434 122.651  0.00  0.00    +0.000 A 
ATOM      7  C   UNL     1      -6.157   4.023 121.415  0.00  0.00    +0.000 A 
ATOM      8  C   UNL     1      -7.394   3.896 120.789  0.00  0.00    +0.000 A 
ATOM      9  C   UNL     1      -8.428   3.167 121.389  0.00  0.00    +0.000 A 
ATOM     10  C   UNL     1      -8.234   2.572 122.632  0.00  0.00    +0.000 A 
ATOM     11  C   UNL     1      -9.311   1.799 123.266  0.00  0.00    +0.000 C 
ATOM     12  O   UNL     1     -10.356   1.600 122.670  0.00  0.00    +0.000 OA
ENDROOT
BRANCH   2  13
ATOM     13  C   UNL     1      -7.632   0.855 126.672  0.00  0.00    +0.000 C 
ATOM     14  C   UNL     1      -8.450  -0.416 127.044  0.00  0.00    +0.000 C 
ATOM     15  C   UNL     1      -8.051  -1.619 126.193  0.00  0.00    +0.000 C 
ATOM     16  C   UNL     1      -6.556  -1.966 126.377  0.00  0.00    +0.000 C 
ATOM     17  C   UNL     1      -5.731  -0.726 126.036  0.00  0.00    +0.000 C 
ATOM     18  C   UNL     1      -6.159   0.512 126.889  0.00  0.00    +0.000 C 
BRANCH  16  19
ATOM     19  C   UNL     1      -6.223  -2.469 127.770  0.00  0.00    +0.000 A 
ATOM     20  C   UNL     1      -4.895  -2.502 128.192  0.00  0.00    +0.000 A 
ATOM     21  C   UNL     1      -4.576  -3.071 129.423  0.00  0.00    +0.000 A 
ATOM     22  C   UNL     1      -5.575  -3.625 130.225  0.00  0.00    +0.000 A 
ATOM     23 CL   UNL     1      -5.180  -4.349 131.729  0.00  0.00    +0.000 Cl
ATOM     24  C   UNL     1      -6.900  -3.577 129.835  0.00  0.00    +0.000 A 
ATOM     25  C   UNL     1      -7.216  -2.948 128.648  0.00  0.00    +0.000 A 
ENDBRANCH  16  19
ENDBRANCH   2  13
BRANCH   1  26
ATOM     26  O   UNL     1     -10.170   0.595 125.188  0.00  0.00    +0.000 OA
ATOM     27  H   UNL     1     -10.055  -0.365 125.161  0.00  0.00    +0.000 HD
ENDBRANCH   1  26
TORSDOF 3
ENDMDL
MODEL 6
REMARK VINA RESULT:      -8.0      4.324      8.596
REMARK  Name = Atovaquone
REMARK  3 active torsions:
REMARK  status: ('A' for Active; 'I' for Inactive)
REMARK    1  A    between atoms: O_1  and  C_2
REMARK    2  A    between atoms: C_3  and  C_4
REMARK    3  A    between atoms: C_7  and  C_10
REMARK                            x       y       z     vdW  Elec       q    Type
REMARK                         _______ _______ _______ _____ _____    ______ ____
ROOT
ATOM      1  C   UNL     1      -7.586   0.973 126.784  0.00  0.00    +0.000 C 
ATOM      2  C   UNL     1      -7.199  -0.309 126.637  0.00  0.00    +0.000 C 
ATOM      3  C   UNL     1      -7.660  -1.061 125.409  0.00  0.00    +0.000 C 
ATOM      4  O   UNL     1      -7.275  -2.168 125.063  0.00  0.00    +0.000 OA
ATOM      5  C   UNL     1      -8.597  -0.459 124.489  0.00  0.00    +0.000 A 
ATOM      6  C   UNL     1      -9.046  -1.228 123.402  0.00  0.00    +0.000 A 
ATOM      7  C   UNL     1      -9.835  -0.640 122.430  0.00  0.00    +0.000 A 
ATOM      8  C   UNL     1     -10.179   0.703 122.558  0.00  0.00    +0.000 A 
ATOM      9  C   UNL     1      -9.752   1.449 123.663  0.00  0.00    +0.000 A 
ATOM     10  C   UNL     1      -8.960   0.858 124.642  0.00  0.00    +0.000 A 
ATOM     11  C   UNL     1      -8.513   1.631 125.809  0.00  0.00    +0.000 C 
ATOM     12  O   UNL     1      -8.904   2.776 125.972  0.00  0.00    +0.000 OA
ENDROOT
BRANCH   2  13
ATOM     13  C   UNL     1      -6.286  -1.015 127.638  0.00  0.00    +0.000 C 
ATOM     14  C   UNL     1      -6.417  -0.538 129.113  0.00  0.00    +0.000 C 
ATOM     15  C   UNL     1      -7.773  -0.902 129.713  0.00  0.00    +0.000 C 
ATOM     16  C   UNL     1      -7.999  -2.430 129.703  0.00  0.00    +0.000 C 
ATOM     17  C   UNL     1      -7.858  -2.927 128.266  0.00  0.00    +0.000 C 
ATOM     18  C   UNL     1      -6.479  -2.531 127.645  0.00  0.00    +0.000 C 
BRANCH  16  19
ATOM     19  C   UNL     1      -7.060  -3.182 130.628  0.00  0.00    +0.000 A 
ATOM     20  C   UNL     1      -6.301  -4.239 130.130  0.00  0.00    +0.000 A 
ATOM     21  C   UNL     1      -5.528  -5.004 131.000  0.00  0.00    +0.000 A 
ATOM     22  C   UNL     1      -5.525  -4.731 132.369  0.00  0.00    +0.000 A 
ATOM     23 CL   UNL     1      -4.594  -5.689 133.445  0.00  0.00    +0.000 Cl
ATOM     24  C   UNL     1      -6.251  -3.670 132.878  0.00  0.00    +0.000 A 
ATOM     25  C   UNL     1      -6.958  -2.873 132.000  0.00  0.00    +0.000 A 
ENDBRANCH  16  19
ENDBRANCH   2  13
BRANCH   1  26
ATOM     26  O   UNL     1      -7.169   1.795 127.821  0.00  0.00    +0.000 OA
ATOM     27  H   UNL     1      -7.835   2.461 128.041  0.00  0.00    +0.000 HD
ENDBRANCH   1  26
TORSDOF 3
ENDMDL
MODEL 7
REMARK VINA RESULT:      -7.9      2.032      2.988
REMARK  Name = Atovaquone
REMARK  3 active torsions:
REMARK  status: ('A' for Active; 'I' for Inactive)
REMARK    1  A    between atoms: O_1  and  C_2
REMARK    2  A    between atoms: C_3  and  C_4
REMARK    3  A    between atoms: C_7  and  C_10
REMARK                            x       y       z     vdW  Elec       q    Type
REMARK                         _______ _______ _______ _____ _____    ______ ____
ROOT
ATOM      1  C   UNL     1      -8.283   1.428 127.504  0.00  0.00    +0.000 C 
ATOM      2  C   UNL     1      -8.687   0.867 126.348  0.00  0.00    +0.000 C 
ATOM      3  C   UNL     1      -8.803  -0.640 126.285  0.00  0.00    +0.000 C 
ATOM      4  O   UNL     1      -9.293  -1.281 125.367  0.00  0.00    +0.000 OA
ATOM      5  C   UNL     1      -8.367  -1.456 127.395  0.00  0.00    +0.000 A 
ATOM      6  C   UNL     1      -8.431  -2.854 127.256  0.00  0.00    +0.000 A 
ATOM      7  C   UNL     1      -8.150  -3.660 128.343  0.00  0.00    +0.000 A 
ATOM      8  C   UNL     1      -7.794  -3.068 129.552  0.00  0.00    +0.000 A 
ATOM      9  C   UNL     1      -7.702  -1.676 129.668  0.00  0.00    +0.000 A 
ATOM     10  C   UNL     1      -7.982  -0.863 128.574  0.00  0.00    +0.000 A 
ATOM     11  C   UNL     1      -7.880   0.598 128.684  0.00  0.00    +0.000 C 
ATOM     12  O   UNL     1      -7.465   1.109 129.711  0.00  0.00    +0.000 OA
ENDROOT
BRANCH   2  13
ATOM     13  C   UNL     1      -9.066   1.689 125.119  0.00  0.00    +0.000 C 
ATOM     14  C   UNL     1      -8.390   3.087 125.016  0.00  0.00    +0.000 C 
ATOM     15  C   UNL     1      -6.884   2.977 124.787  0.00  0.00    +0.000 C 
ATOM     16  C   UNL     1      -6.569   2.217 123.479  0.00  0.00    +0.000 C 
ATOM     17  C   UNL     1      -7.239   0.846 123.548  0.00  0.00    +0.000 C 
ATOM     18  C   UNL     1      -8.776   0.960 123.807  0.00  0.00    +0.000 C 
BRANCH  16  19
ATOM     19  C   UNL     1      -6.999   2.965 122.232  0.00  0.00    +0.000 A 
ATOM     20  C   UNL     1      -8.353   3.066 121.921  0.00  0.00    +0.000 A 
ATOM     21  C   UNL     1      -8.744   3.650 120.718  0.00  0.00    +0.000 A 
ATOM     22  C   UNL     1      -7.787   4.116 119.815  0.00  0.00    +0.000 A 
ATOM     23 CL   UNL     1      -8.266   4.811 118.322  0.00  0.00    +0.000 Cl
ATOM     24  C   UNL     1      -6.440   4.050 120.118  0.00  0.00    +0.000 A 
ATOM     25  C   UNL     1      -6.064   3.535 121.343  0.00  0.00    +0.000 A 
ENDBRANCH  16  19
ENDBRANCH   2  13
BRANCH   1  26
ATOM     26  O   UNL     1      -8.212   2.797 127.717  0.00  0.00    +0.000 OA
ATOM     27  H   UNL     1      -8.526   3.041 128.599  0.00  0.00    +0.000 HD
ENDBRANCH   1  26
TORSDOF 3
ENDMDL
MODEL 8
REMARK VINA RESULT:      -7.8      9.186     11.745
REMARK  Name = Atovaquone
REMARK  3 active torsions:
REMARK  status: ('A' for Active; 'I' for Inactive)
REMARK    1  A    between atoms: O_1  and  C_2
REMARK    2  A    between atoms: C_3  and  C_4
REMARK    3  A    between atoms: C_7  and  C_10
REMARK                            x       y       z     vdW  Elec       q    Type
REMARK                         _______ _______ _______ _____ _____    ______ ____
ROOT
ATOM      1  C   UNL     1      -9.663   5.809 129.102  0.00  0.00    +0.000 C 
ATOM      2  C   UNL     1      -9.943   5.603 130.403  0.00  0.00    +0.000 C 
ATOM      3  C   UNL     1     -11.027   6.441 131.044  0.00  0.00    +0.000 C 
ATOM      4  O   UNL     1     -11.494   6.273 132.161  0.00  0.00    +0.000 OA
ATOM      5  C   UNL     1     -11.648   7.521 130.312  0.00  0.00    +0.000 A 
ATOM      6  C   UNL     1     -12.599   8.313 130.979  0.00  0.00    +0.000 A 
ATOM      7  C   UNL     1     -13.310   9.265 130.271  0.00  0.00    +0.000 A 
ATOM      8  C   UNL     1     -13.056   9.428 128.912  0.00  0.00    +0.000 A 
ATOM      9  C   UNL     1     -12.084   8.655 128.267  0.00  0.00    +0.000 A 
ATOM     10  C   UNL     1     -11.366   7.698 128.978  0.00  0.00    +0.000 A 
ATOM     11  C   UNL     1     -10.338   6.888 128.312  0.00  0.00    +0.000 C 
ATOM     12  O   UNL     1     -10.044   7.105 127.148  0.00  0.00    +0.000 OA
ENDROOT
BRANCH   2  13
ATOM     13  C   UNL     1      -9.241   4.537 131.241  0.00  0.00    +0.000 C 
ATOM     14  C   UNL     1      -7.766   4.241 130.845  0.00  0.00    +0.000 C 
ATOM     15  C   UNL     1      -6.849   5.427 131.133  0.00  0.00    +0.000 C 
ATOM     16  C   UNL     1      -6.857   5.792 132.634  0.00  0.00    +0.000 C 
ATOM     17  C   UNL     1      -8.299   6.069 133.053  0.00  0.00    +0.000 C 
ATOM     18  C   UNL     1      -9.241   4.863 132.734  0.00  0.00    +0.000 C 
BRANCH  16  19
ATOM     19  C   UNL     1      -6.236   4.723 133.515  0.00  0.00    +0.000 A 
ATOM     20  C   UNL     1      -6.445   4.757 134.892  0.00  0.00    +0.000 A 
ATOM     21  C   UNL     1      -5.783   3.848 135.714  0.00  0.00    +0.000 A 
ATOM     22  C   UNL     1      -4.896   2.919 135.168  0.00  0.00    +0.000 A 
ATOM     23 CL   UNL     1      -4.059   1.817 136.181  0.00  0.00    +0.000 Cl
ATOM     24  C   UNL     1      -4.696   2.852 133.802  0.00  0.00    +0.000 A 
ATOM     25  C   UNL     1      -5.410   3.709 132.988  0.00  0.00    +0.000 A 
ENDBRANCH  16  19
ENDBRANCH   2  13
BRANCH   1  26
ATOM     26  O   UNL     1      -8.750   5.056 128.378  0.00  0.00    +0.000 OA
ATOM     27  H   UNL     1      -9.009   4.125 128.332  0.00  0.00    +0.000 HD
ENDBRANCH   1  26
TORSDOF 3
ENDMDL
MODEL 9
REMARK VINA RESULT:      -7.6      5.172      6.501
REMARK  Name = Atovaquone
REMARK  3 active torsions:
REMARK  status: ('A' for Active; 'I' for Inactive)
REMARK    1  A    between atoms: O_1  and  C_2
REMARK    2  A    between atoms: C_3  and  C_4
REMARK    3  A    between atoms: C_7  and  C_10
REMARK                            x       y       z     vdW  Elec       q    Type
REMARK                         _______ _______ _______ _____ _____    ______ ____
ROOT
ATOM      1  C   UNL     1      -4.155   1.911 129.155  0.00  0.00    +0.000 C 
ATOM      2  C   UNL     1      -3.722   2.837 128.277  0.00  0.00    +0.000 C 
ATOM      3  C   UNL     1      -3.088   4.098 128.820  0.00  0.00    +0.000 C 
ATOM      4  O   UNL     1      -2.518   4.953 128.158  0.00  0.00    +0.000 OA
ATOM      5  C   UNL     1      -3.069   4.357 130.241  0.00  0.00    +0.000 A 
ATOM      6  C   UNL     1      -2.531   5.577 130.686  0.00  0.00    +0.000 A 
ATOM      7  C   UNL     1      -2.374   5.799 132.042  0.00  0.00    +0.000 A 
ATOM      8  C   UNL     1      -2.769   4.811 132.940  0.00  0.00    +0.000 A 
ATOM      9  C   UNL     1      -3.333   3.613 132.485  0.00  0.00    +0.000 A 
ATOM     10  C   UNL     1      -3.494   3.390 131.121  0.00  0.00    +0.000 A 
ATOM     11  C   UNL     1      -4.093   2.140 130.634  0.00  0.00    +0.000 C 
ATOM     12  O   UNL     1      -4.534   1.322 131.425  0.00  0.00    +0.000 OA
ENDROOT
BRANCH   2  13
ATOM     13  C   UNL     1      -3.810   2.645 126.765  0.00  0.00    +0.000 C 
ATOM     14  C   UNL     1      -5.036   1.827 126.266  0.00  0.00    +0.000 C 
ATOM     15  C   UNL     1      -6.350   2.569 126.501  0.00  0.00    +0.000 C 
ATOM     16  C   UNL     1      -6.371   3.924 125.759  0.00  0.00    +0.000 C 
ATOM     17  C   UNL     1      -5.164   4.740 126.219  0.00  0.00    +0.000 C 
ATOM     18  C   UNL     1      -3.822   3.969 126.001  0.00  0.00    +0.000 C 
BRANCH  16  19
ATOM     19  C   UNL     1      -6.382   3.782 124.249  0.00  0.00    +0.000 A 
ATOM     20  C   UNL     1      -5.360   4.355 123.495  0.00  0.00    +0.000 A 
ATOM     21  C   UNL     1      -5.428   4.327 122.104  0.00  0.00    +0.000 A 
ATOM     22  C   UNL     1      -6.525   3.747 121.462  0.00  0.00    +0.000 A 
ATOM     23 CL   UNL     1      -6.623   3.735 119.750  0.00  0.00    +0.000 Cl
ATOM     24  C   UNL     1      -7.535   3.150 122.193  0.00  0.00    +0.000 A 
ATOM     25  C   UNL     1      -7.424   3.119 123.569  0.00  0.00    +0.000 A 
ENDBRANCH  16  19
ENDBRANCH   2  13
BRANCH   1  26
ATOM     26  O   UNL     1      -4.681   0.681 128.788  0.00  0.00    +0.000 OA
ATOM     27  H   UNL     1      -3.986   0.041 128.582  0.00  0.00    +0.000 HD
ENDBRANCH   1  26
TORSDOF 3
ENDMDL
