MODEL 1
REMARK VINA RESULT:      -7.6      0.000      0.000
REMARK  Name = Atropine
REMARK  7 active torsions:
REMARK  status: ('A' for Active; 'I' for Inactive)
REMARK    1  A    between atoms: C_1  and  N_2
REMARK    2  A    between atoms: C_8  and  O_10
REMARK    3  A    between atoms: O_10  and  C_11
REMARK    4  A    between atoms: C_11  and  C_13
REMARK    5  A    between atoms: C_13  and  C_14
REMARK    6  A    between atoms: C_13  and  C_16
REMARK    7  A    between atoms: C_14  and  O_15
REMARK                            x       y       z     vdW  Elec       q    Type
REMARK                         _______ _______ _______ _____ _____    ______ ____
ROOT
ATOM      1  C   UNL     1      -9.625   0.862 122.986  0.00  0.00    +0.000 C 
ATOM      2  O   UNL     1     -10.406   0.446 122.131  0.00  0.00    +0.000 OA
ENDROOT
BRANCH   1   3
ATOM      3  O   UNL     1      -8.973   0.032 123.840  0.00  0.00    +0.000 OA
BRANCH   3  11
ATOM      4  C   UNL     1      -5.813  -3.533 124.082  0.00  0.00    +0.000 C 
ATOM      5  N   UNL     1      -6.902  -3.021 124.893  0.00  0.00    +0.000 NA
ATOM      6  C   UNL     1      -8.212  -3.032 124.242  0.00  0.00    +0.000 C 
ATOM      7  C   UNL     1      -9.070  -2.433 125.365  0.00  0.00    +0.000 C 
ATOM      8  C   UNL     1      -8.101  -1.530 126.147  0.00  0.00    +0.000 C 
ATOM      9  C   UNL     1      -6.771  -1.645 125.386  0.00  0.00    +0.000 C 
ATOM     10  C   UNL     1      -6.675  -0.603 124.250  0.00  0.00    +0.000 C 
ATOM     11  C   UNL     1      -7.855  -0.689 123.265  0.00  0.00    +0.000 C 
ATOM     12  C   UNL     1      -8.208  -2.165 122.977  0.00  0.00    +0.000 C 
ENDBRANCH   3  11
ENDBRANCH   1   3
BRANCH   1  13
ATOM     13  C   UNL     1      -9.343   2.339 123.255  0.00  0.00    +0.000 C 
BRANCH  13  14
ATOM     14  C   UNL     1      -8.335   2.893 122.246  0.00  0.00    +0.000 A 
ATOM     15  C   UNL     1      -6.955   2.822 122.522  0.00  0.00    +0.000 A 
ATOM     16  C   UNL     1      -6.010   3.341 121.650  0.00  0.00    +0.000 A 
ATOM     17  C   UNL     1      -6.429   3.929 120.466  0.00  0.00    +0.000 A 
ATOM     18  C   UNL     1      -7.792   4.026 120.177  0.00  0.00    +0.000 A 
ATOM     19  C   UNL     1      -8.746   3.514 121.062  0.00  0.00    +0.000 A 
ENDBRANCH  13  14
BRANCH  13  20
ATOM     20  C   UNL     1      -8.776   2.537 124.665  0.00  0.00    +0.000 C 
BRANCH  20  21
ATOM     21  O   UNL     1      -9.032   3.829 125.206  0.00  0.00    +0.000 OA
ATOM     22  H   UNL     1      -9.842   4.181 124.802  0.00  0.00    +0.000 HD
ENDBRANCH  20  21
ENDBRANCH  13  20
ENDBRANCH   1  13
TORSDOF 6
ENDMDL
MODEL 2
REMARK VINA RESULT:      -7.3      0.803      1.972
REMARK  Name = Atropine
REMARK  7 active torsions:
REMARK  status: ('A' for Active; 'I' for Inactive)
REMARK    1  A    between atoms: C_1  and  N_2
REMARK    2  A    between atoms: C_8  and  O_10
REMARK    3  A    between atoms: O_10  and  C_11
REMARK    4  A    between atoms: C_11  and  C_13
REMARK    5  A    between atoms: C_13  and  C_14
REMARK    6  A    between atoms: C_13  and  C_16
REMARK    7  A    between atoms: C_14  and  O_15
REMARK                            x       y       z     vdW  Elec       q    Type
REMARK                         _______ _______ _______ _____ _____    ______ ____
ROOT
ATOM      1  C   UNL     1      -9.467   1.145 122.771  0.00  0.00    +0.000 C 
ATOM      2  O   UNL     1     -10.451   0.773 122.131  0.00  0.00    +0.000 OA
ENDROOT
BRANCH   1   3
ATOM      3  O   UNL     1      -8.602   0.272 123.346  0.00  0.00    +0.000 OA
BRANCH   3  11
ATOM      4  C   UNL     1      -8.166  -3.878 125.658  0.00  0.00    +0.000 C 
ATOM      5  N   UNL     1      -7.280  -2.879 125.092  0.00  0.00    +0.000 NA
ATOM      6  C   UNL     1      -7.407  -1.542 125.672  0.00  0.00    +0.000 C 
ATOM      7  C   UNL     1      -6.356  -0.792 124.842  0.00  0.00    +0.000 C 
ATOM      8  C   UNL     1      -6.321  -1.543 123.500  0.00  0.00    +0.000 C 
ATOM      9  C   UNL     1      -7.386  -2.640 123.647  0.00  0.00    +0.000 C 
ATOM     10  C   UNL     1      -8.782  -2.137 123.219  0.00  0.00    +0.000 C 
ATOM     11  C   UNL     1      -9.218  -0.874 123.985  0.00  0.00    +0.000 C 
ATOM     12  C   UNL     1      -8.823  -0.986 125.474  0.00  0.00    +0.000 C 
ENDBRANCH   3  11
ENDBRANCH   1   3
BRANCH   1  13
ATOM     13  C   UNL     1      -9.131   2.605 123.067  0.00  0.00    +0.000 C 
BRANCH  13  14
ATOM     14  C   UNL     1      -8.142   3.156 122.037  0.00  0.00    +0.000 A 
ATOM     15  C   UNL     1      -8.617   3.673 120.815  0.00  0.00    +0.000 A 
ATOM     16  C   UNL     1      -7.753   4.152 119.842  0.00  0.00    +0.000 A 
ATOM     17  C   UNL     1      -6.388   4.141 120.081  0.00  0.00    +0.000 A 
ATOM     18  C   UNL     1      -5.891   3.620 121.278  0.00  0.00    +0.000 A 
ATOM     19  C   UNL     1      -6.761   3.124 122.255  0.00  0.00    +0.000 A 
ENDBRANCH  13  14
BRANCH  13  20
ATOM     20  C   UNL     1      -8.507   2.748 124.460  0.00  0.00    +0.000 C 
BRANCH  20  21
ATOM     21  O   UNL     1      -9.005   3.861 125.196  0.00  0.00    +0.000 OA
ATOM     22  H   UNL     1      -8.456   3.982 125.988  0.00  0.00    +0.000 HD
ENDBRANCH  20  21
ENDBRANCH  13  20
ENDBRANCH   1  13
TORSDOF 6
ENDMDL
MODEL 3
REMARK VINA RESULT:      -7.1      1.528      2.562
REMARK  Name = Atropine
REMARK  7 active torsions:
REMARK  status: ('A' for Active; 'I' for Inactive)
REMARK    1  A    between atoms: C_1  and  N_2
REMARK    2  A    between atoms: C_8  and  O_10
REMARK    3  A    between atoms: O_10  and  C_11
REMARK    4  A    between atoms: C_11  and  C_13
REMARK    5  A    between atoms: C_13  and  C_14
REMARK    6  A    between atoms: C_13  and  C_16
REMARK    7  A    between atoms: C_14  and  O_15
REMARK                            x       y       z     vdW  Elec       q    Type
REMARK                         _______ _______ _______ _____ _____    ______ ____
ROOT
ATOM      1  C   UNL     1      -6.579   1.762 124.878  0.00  0.00    +0.000 C 
ATOM      2  O   UNL     1      -5.661   2.052 125.646  0.00  0.00    +0.000 OA
ENDROOT
BRANCH   1   3
ATOM      3  O   UNL     1      -6.688   0.534 124.309  0.00  0.00    +0.000 OA
BRANCH   3  11
ATOM      4  C   UNL     1      -9.366  -3.401 123.989  0.00  0.00    +0.000 C 
ATOM      5  N   UNL     1      -8.021  -2.997 123.622  0.00  0.00    +0.000 NA
ATOM      6  C   UNL     1      -7.175  -2.581 124.740  0.00  0.00    +0.000 C 
ATOM      7  C   UNL     1      -5.886  -2.234 123.982  0.00  0.00    +0.000 C 
ATOM      8  C   UNL     1      -6.368  -1.801 122.586  0.00  0.00    +0.000 C 
ATOM      9  C   UNL     1      -7.900  -1.890 122.665  0.00  0.00    +0.000 C 
ATOM     10  C   UNL     1      -8.519  -0.574 123.183  0.00  0.00    +0.000 C 
ATOM     11  C   UNL     1      -7.947  -0.145 124.546  0.00  0.00    +0.000 C 
ATOM     12  C   UNL     1      -7.775  -1.372 125.468  0.00  0.00    +0.000 C 
ENDBRANCH   3  11
ENDBRANCH   1   3
BRANCH   1  13
ATOM     13  C   UNL     1      -7.653   2.739 124.406  0.00  0.00    +0.000 C 
BRANCH  13  14
ATOM     14  C   UNL     1      -7.397   3.171 122.960  0.00  0.00    +0.000 A 
ATOM     15  C   UNL     1      -6.099   3.544 122.558  0.00  0.00    +0.000 A 
ATOM     16  C   UNL     1      -5.832   3.973 121.267  0.00  0.00    +0.000 A 
ATOM     17  C   UNL     1      -6.861   4.019 120.339  0.00  0.00    +0.000 A 
ATOM     18  C   UNL     1      -8.160   3.669 120.717  0.00  0.00    +0.000 A 
ATOM     19  C   UNL     1      -8.433   3.250 122.023  0.00  0.00    +0.000 A 
ENDBRANCH  13  14
BRANCH  13  20
ATOM     20  C   UNL     1      -7.675   3.992 125.288  0.00  0.00    +0.000 C 
BRANCH  20  21
ATOM     21  O   UNL     1      -8.926   4.674 125.278  0.00  0.00    +0.000 OA
ATOM     22  H   UNL     1      -8.802   5.545 124.868  0.00  0.00    +0.000 HD
ENDBRANCH  20  21
ENDBRANCH  13  20
ENDBRANCH   1  13
TORSDOF 6
ENDMDL
MODEL 4
REMARK VINA RESULT:      -7.1      8.181     11.060
REMARK  Name = Atropine
REMARK  7 active torsions:
REMARK  status: ('A' for Active; 'I' for Inactive)
REMARK    1  A    between atoms: C_1  and  N_2
REMARK    2  A    between atoms: C_8  and  O_10
REMARK    3  A    between atoms: O_10  and  C_11
REMARK    4  A    between atoms: C_11  and  C_13
REMARK    5  A    between atoms: C_13  and  C_14
REMARK    6  A    between atoms: C_13  and  C_16
REMARK    7  A    between atoms: C_14  and  O_15
REMARK                            x       y       z     vdW  Elec       q    Type
REMARK                         _______ _______ _______ _____ _____    ______ ____
ROOT
ATOM      1  C   UNL     1      -9.397   5.324 129.656  0.00  0.00    +0.000 C 
ATOM      2  O   UNL     1      -8.181   5.410 129.490  0.00  0.00    +0.000 OA
ENDROOT
BRANCH   1   3
ATOM      3  O   UNL     1     -10.279   6.112 128.991  0.00  0.00    +0.000 OA
BRANCH   3  11
ATOM      4  C   UNL     1     -12.999   9.994 129.529  0.00  0.00    +0.000 C 
ATOM      5  N   UNL     1     -13.082   8.728 128.826  0.00  0.00    +0.000 NA
ATOM      6  C   UNL     1     -13.036   7.543 129.683  0.00  0.00    +0.000 C 
ATOM      7  C   UNL     1     -13.137   6.442 128.618  0.00  0.00    +0.000 C 
ATOM      8  C   UNL     1     -12.506   7.067 127.361  0.00  0.00    +0.000 C 
ATOM      9  C   UNL     1     -12.052   8.463 127.814  0.00  0.00    +0.000 C 
ATOM     10  C   UNL     1     -10.623   8.433 128.400  0.00  0.00    +0.000 C 
ATOM     11  C   UNL     1     -10.478   7.430 129.559  0.00  0.00    +0.000 C 
ATOM     12  C   UNL     1     -11.723   7.482 130.473  0.00  0.00    +0.000 C 
ENDBRANCH   3  11
ENDBRANCH   1   3
BRANCH   1  13
ATOM     13  C   UNL     1     -10.068   4.397 130.668  0.00  0.00    +0.000 C 
BRANCH  13  14
ATOM     14  C   UNL     1      -9.382   4.493 132.032  0.00  0.00    +0.000 A 
ATOM     15  C   UNL     1      -9.115   5.756 132.597  0.00  0.00    +0.000 A 
ATOM     16  C   UNL     1      -8.467   5.887 133.815  0.00  0.00    +0.000 A 
ATOM     17  C   UNL     1      -8.088   4.747 134.509  0.00  0.00    +0.000 A 
ATOM     18  C   UNL     1      -8.328   3.484 133.964  0.00  0.00    +0.000 A 
ATOM     19  C   UNL     1      -8.969   3.351 132.728  0.00  0.00    +0.000 A 
ENDBRANCH  13  14
BRANCH  13  20
ATOM     20  C   UNL     1     -10.005   2.940 130.196  0.00  0.00    +0.000 C 
BRANCH  20  21
ATOM     21  O   UNL     1      -9.251   2.760 129.000  0.00  0.00    +0.000 OA
ATOM     22  H   UNL     1      -8.748   3.572 128.824  0.00  0.00    +0.000 HD
ENDBRANCH  20  21
ENDBRANCH  13  20
ENDBRANCH   1  13
TORSDOF 6
ENDMDL
MODEL 5
REMARK VINA RESULT:      -7.0      7.481      8.929
REMARK  Name = Atropine
REMARK  7 active torsions:
REMARK  status: ('A' for Active; 'I' for Inactive)
REMARK    1  A    between atoms: C_1  and  N_2
REMARK    2  A    between atoms: C_8  and  O_10
REMARK    3  A    between atoms: O_10  and  C_11
REMARK    4  A    between atoms: C_11  and  C_13
REMARK    5  A    between atoms: C_13  and  C_14
REMARK    6  A    between atoms: C_13  and  C_16
REMARK    7  A    between atoms: C_14  and  O_15
REMARK                            x       y       z     vdW  Elec       q    Type
REMARK                         _______ _______ _______ _____ _____    ______ ____
ROOT
ATOM      1  C   UNL     1     -10.436   5.255 129.857  0.00  0.00    +0.000 C 
ATOM      2  O   UNL     1      -9.797   5.847 128.987  0.00  0.00    +0.000 OA
ENDROOT
BRANCH   1   3
ATOM      3  O   UNL     1     -10.134   3.989 130.244  0.00  0.00    +0.000 OA
BRANCH   3  11
ATOM      4  C   UNL     1      -6.307   1.360 131.338  0.00  0.00    +0.000 C 
ATOM      5  N   UNL     1      -7.622   1.606 131.898  0.00  0.00    +0.000 NA
ATOM      6  C   UNL     1      -8.740   1.238 131.030  0.00  0.00    +0.000 C 
ATOM      7  C   UNL     1      -9.917   1.638 131.929  0.00  0.00    +0.000 C 
ATOM      8  C   UNL     1      -9.366   2.787 132.792  0.00  0.00    +0.000 C 
ATOM      9  C   UNL     1      -7.928   2.987 132.290  0.00  0.00    +0.000 C 
ATOM     10  C   UNL     1      -7.873   3.977 131.105  0.00  0.00    +0.000 C 
ATOM     11  C   UNL     1      -8.785   3.556 129.938  0.00  0.00    +0.000 C 
ATOM     12  C   UNL     1      -8.705   2.030 129.717  0.00  0.00    +0.000 C 
ENDBRANCH   3  11
ENDBRANCH   1   3
BRANCH   1  13
ATOM     13  C   UNL     1     -11.675   5.814 130.552  0.00  0.00    +0.000 C 
BRANCH  13  14
ATOM     14  C   UNL     1     -12.342   6.890 129.692  0.00  0.00    +0.000 A 
ATOM     15  C   UNL     1     -12.191   8.250 130.028  0.00  0.00    +0.000 A 
ATOM     16  C   UNL     1     -12.805   9.255 129.296  0.00  0.00    +0.000 A 
ATOM     17  C   UNL     1     -13.572   8.917 128.191  0.00  0.00    +0.000 A 
ATOM     18  C   UNL     1     -13.749   7.575 127.846  0.00  0.00    +0.000 A 
ATOM     19  C   UNL     1     -13.142   6.561 128.593  0.00  0.00    +0.000 A 
ENDBRANCH  13  14
BRANCH  13  20
ATOM     20  C   UNL     1     -11.308   6.433 131.905  0.00  0.00    +0.000 C 
BRANCH  20  21
ATOM     21  O   UNL     1      -9.905   6.501 132.138  0.00  0.00    +0.000 OA
ATOM     22  H   UNL     1      -9.563   5.599 132.249  0.00  0.00    +0.000 HD
ENDBRANCH  20  21
ENDBRANCH  13  20
ENDBRANCH   1  13
TORSDOF 6
ENDMDL
MODEL 6
REMARK VINA RESULT:      -6.9      7.561     10.539
REMARK  Name = Atropine
REMARK  7 active torsions:
REMARK  status: ('A' for Active; 'I' for Inactive)
REMARK    1  A    between atoms: C_1  and  N_2
REMARK    2  A    between atoms: C_8  and  O_10
REMARK    3  A    between atoms: O_10  and  C_11
REMARK    4  A    between atoms: C_11  and  C_13
REMARK    5  A    between atoms: C_13  and  C_14
REMARK    6  A    between atoms: C_13  and  C_16
REMARK    7  A    between atoms: C_14  and  O_15
REMARK                            x       y       z     vdW  Elec       q    Type
REMARK                         _______ _______ _______ _____ _____    ______ ____
ROOT
ATOM      1  C   UNL     1     -10.698   4.752 130.118  0.00  0.00    +0.000 C 
ATOM      2  O   UNL     1     -11.712   4.065 130.243  0.00  0.00    +0.000 OA
ENDROOT
BRANCH   1   3
ATOM      3  O   UNL     1     -10.646   5.826 129.289  0.00  0.00    +0.000 OA
BRANCH   3  11
ATOM      4  C   UNL     1     -12.965   9.989 129.484  0.00  0.00    +0.000 C 
ATOM      5  N   UNL     1     -12.973   8.807 128.643  0.00  0.00    +0.000 NA
ATOM      6  C   UNL     1     -13.312   7.563 129.333  0.00  0.00    +0.000 C 
ATOM      7  C   UNL     1     -13.212   6.576 128.162  0.00  0.00    +0.000 C 
ATOM      8  C   UNL     1     -12.173   7.206 127.218  0.00  0.00    +0.000 C 
ATOM      9  C   UNL     1     -11.725   8.485 127.941  0.00  0.00    +0.000 C 
ATOM     10  C   UNL     1     -10.546   8.211 128.901  0.00  0.00    +0.000 C 
ATOM     11  C   UNL     1     -10.861   7.109 129.928  0.00  0.00    +0.000 C 
ATOM     12  C   UNL     1     -12.307   7.258 130.450  0.00  0.00    +0.000 C 
ENDBRANCH   3  11
ENDBRANCH   1   3
BRANCH   1  13
ATOM     13  C   UNL     1      -9.364   4.456 130.799  0.00  0.00    +0.000 C 
BRANCH  13  14
ATOM     14  C   UNL     1      -9.060   2.957 130.774  0.00  0.00    +0.000 A 
ATOM     15  C   UNL     1      -9.369   2.159 131.894  0.00  0.00    +0.000 A 
ATOM     16  C   UNL     1      -9.081   0.803 131.925  0.00  0.00    +0.000 A 
ATOM     17  C   UNL     1      -8.492   0.209 130.820  0.00  0.00    +0.000 A 
ATOM     18  C   UNL     1      -8.162   0.980 129.703  0.00  0.00    +0.000 A 
ATOM     19  C   UNL     1      -8.439   2.351 129.677  0.00  0.00    +0.000 A 
ENDBRANCH  13  14
BRANCH  13  20
ATOM     20  C   UNL     1      -9.384   4.922 132.259  0.00  0.00    +0.000 C 
BRANCH  20  21
ATOM     21  O   UNL     1     -10.682   5.275 132.728  0.00  0.00    +0.000 OA
ATOM     22  H   UNL     1     -10.860   6.198 132.487  0.00  0.00    +0.000 HD
ENDBRANCH  20  21
ENDBRANCH  13  20
ENDBRANCH   1  13
TORSDOF 6
ENDMDL
MODEL 7
REMARK VINA RESULT:      -6.7      3.581      5.378
REMARK  Name = Atropine
REMARK  7 active torsions:
REMARK  status: ('A' for Active; 'I' for Inactive)
REMARK    1  A    between atoms: C_1  and  N_2
REMARK    2  A    between atoms: C_8  and  O_10
REMARK    3  A    between atoms: O_10  and  C_11
REMARK    4  A    between atoms: C_11  and  C_13
REMARK    5  A    between atoms: C_13  and  C_14
REMARK    6  A    between atoms: C_13  and  C_16
REMARK    7  A    between atoms: C_14  and  O_15
REMARK                            x       y       z     vdW  Elec       q    Type
REMARK                         _______ _______ _______ _____ _____    ______ ____
ROOT
ATOM      1  C   UNL     1      -9.094  -2.162 125.279  0.00  0.00    +0.000 C 
ATOM      2  O   UNL     1     -10.072  -2.536 125.926  0.00  0.00    +0.000 OA
ENDROOT
BRANCH   1   3
ATOM      3  O   UNL     1      -8.210  -1.251 125.760  0.00  0.00    +0.000 OA
BRANCH   3  11
ATOM      4  C   UNL     1      -5.496  -0.284 129.562  0.00  0.00    +0.000 C 
ATOM      5  N   UNL     1      -5.407  -0.120 128.123  0.00  0.00    +0.000 NA
ATOM      6  C   UNL     1      -6.449   0.719 127.533  0.00  0.00    +0.000 C 
ATOM      7  C   UNL     1      -6.039   0.650 126.055  0.00  0.00    +0.000 C 
ATOM      8  C   UNL     1      -5.344  -0.716 125.914  0.00  0.00    +0.000 C 
ATOM      9  C   UNL     1      -5.447  -1.344 127.312  0.00  0.00    +0.000 C 
ATOM     10  C   UNL     1      -6.761  -2.137 127.483  0.00  0.00    +0.000 C 
ATOM     11  C   UNL     1      -8.011  -1.284 127.195  0.00  0.00    +0.000 C 
ATOM     12  C   UNL     1      -7.842   0.132 127.787  0.00  0.00    +0.000 C 
ENDBRANCH   3  11
ENDBRANCH   1   3
BRANCH   1  13
ATOM     13  C   UNL     1      -8.785  -2.599 123.848  0.00  0.00    +0.000 C 
BRANCH  13  14
ATOM     14  C   UNL     1      -7.289  -2.869 123.673  0.00  0.00    +0.000 A 
ATOM     15  C   UNL     1      -6.535  -2.088 122.774  0.00  0.00    +0.000 A 
ATOM     16  C   UNL     1      -5.185  -2.321 122.561  0.00  0.00    +0.000 A 
ATOM     17  C   UNL     1      -4.552  -3.335 123.264  0.00  0.00    +0.000 A 
ATOM     18  C   UNL     1      -5.280  -4.133 124.149  0.00  0.00    +0.000 A 
ATOM     19  C   UNL     1      -6.645  -3.907 124.354  0.00  0.00    +0.000 A 
ENDBRANCH  13  14
BRANCH  13  20
ATOM     20  C   UNL     1      -9.202  -1.516 122.847  0.00  0.00    +0.000 C 
BRANCH  20  21
ATOM     21  O   UNL     1      -9.768  -0.361 123.459  0.00  0.00    +0.000 OA
ATOM     22  H   UNL     1      -9.053   0.258 123.679  0.00  0.00    +0.000 HD
ENDBRANCH  20  21
ENDBRANCH  13  20
ENDBRANCH   1  13
TORSDOF 6
ENDMDL
MODEL 8
REMARK VINA RESULT:      -6.6      7.962      9.173
REMARK  Name = Atropine
REMARK  7 active torsions:
REMARK  status: ('A' for Active; 'I' for Inactive)
REMARK    1  A    between atoms: C_1  and  N_2
REMARK    2  A    between atoms: C_8  and  O_10
REMARK    3  A    between atoms: O_10  and  C_11
REMARK    4  A    between atoms: C_11  and  C_13
REMARK    5  A    between atoms: C_13  and  C_14
REMARK    6  A    between atoms: C_13  and  C_16
REMARK    7  A    between atoms: C_14  and  O_15
REMARK                            x       y       z     vdW  Elec       q    Type
REMARK                         _______ _______ _______ _____ _____    ______ ____
ROOT
ATOM      1  C   UNL     1     -10.697   4.505 130.697  0.00  0.00    +0.000 C 
ATOM      2  O   UNL     1     -11.551   3.897 130.051  0.00  0.00    +0.000 OA
ENDROOT
BRANCH   1   3
ATOM      3  O   UNL     1      -9.498   3.954 131.014  0.00  0.00    +0.000 OA
BRANCH   3  11
ATOM      4  C   UNL     1      -7.287   0.099 132.748  0.00  0.00    +0.000 C 
ATOM      5  N   UNL     1      -6.925   1.452 132.371  0.00  0.00    +0.000 NA
ATOM      6  C   UNL     1      -7.605   2.505 133.123  0.00  0.00    +0.000 C 
ATOM      7  C   UNL     1      -6.991   3.744 132.458  0.00  0.00    +0.000 C 
ATOM      8  C   UNL     1      -6.656   3.286 131.029  0.00  0.00    +0.000 C 
ATOM      9  C   UNL     1      -7.144   1.830 130.969  0.00  0.00    +0.000 C 
ATOM     10  C   UNL     1      -8.627   1.746 130.546  0.00  0.00    +0.000 C 
ATOM     11  C   UNL     1      -9.551   2.575 131.457  0.00  0.00    +0.000 C 
ATOM     12  C   UNL     1      -9.125   2.426 132.934  0.00  0.00    +0.000 C 
ENDBRANCH   3  11
ENDBRANCH   1   3
BRANCH   1  13
ATOM     13  C   UNL     1     -10.889   5.901 131.286  0.00  0.00    +0.000 C 
BRANCH  13  14
ATOM     14  C   UNL     1     -11.282   6.902 130.198  0.00  0.00    +0.000 A 
ATOM     15  C   UNL     1     -12.640   7.222 129.996  0.00  0.00    +0.000 A 
ATOM     16  C   UNL     1     -13.041   8.099 129.000  0.00  0.00    +0.000 A 
ATOM     17  C   UNL     1     -12.084   8.693 128.192  0.00  0.00    +0.000 A 
ATOM     18  C   UNL     1     -10.733   8.381 128.362  0.00  0.00    +0.000 A 
ATOM     19  C   UNL     1     -10.328   7.486 129.357  0.00  0.00    +0.000 A 
ENDBRANCH  13  14
BRANCH  13  20
ATOM     20  C   UNL     1      -9.599   6.393 131.952  0.00  0.00    +0.000 C 
BRANCH  20  21
ATOM     21  O   UNL     1      -9.537   6.118 133.349  0.00  0.00    +0.000 OA
ATOM     22  H   UNL     1      -9.232   6.917 133.810  0.00  0.00    +0.000 HD
ENDBRANCH  20  21
ENDBRANCH  13  20
ENDBRANCH   1  13
TORSDOF 6
ENDMDL
MODEL 9
REMARK VINA RESULT:      -6.5      6.750      8.752
REMARK  Name = Atropine
REMARK  7 active torsions:
REMARK  status: ('A' for Active; 'I' for Inactive)
REMARK    1  A    between atoms: C_1  and  N_2
REMARK    2  A    between atoms: C_8  and  O_10
REMARK    3  A    between atoms: O_10  and  C_11
REMARK    4  A    between atoms: C_11  and  C_13
REMARK    5  A    between atoms: C_13  and  C_14
REMARK    6  A    between atoms: C_13  and  C_16
REMARK    7  A    between atoms: C_14  and  O_15
REMARK                            x       y       z     vdW  Elec       q    Type
REMARK                         _______ _______ _______ _____ _____    ______ ____
ROOT
ATOM      1  C   UNL     1     -10.123   5.617 129.848  0.00  0.00    +0.000 C 
ATOM      2  O   UNL     1      -9.349   6.484 129.442  0.00  0.00    +0.000 OA
ENDROOT
BRANCH   1   3
ATOM      3  O   UNL     1      -9.848   4.291 129.745  0.00  0.00    +0.000 OA
BRANCH   3  11
ATOM      4  C   UNL     1      -6.412   1.387 131.329  0.00  0.00    +0.000 C 
ATOM      5  N   UNL     1      -6.982   1.759 130.048  0.00  0.00    +0.000 NA
ATOM      6  C   UNL     1      -6.868   3.177 129.711  0.00  0.00    +0.000 C 
ATOM      7  C   UNL     1      -7.565   3.181 128.343  0.00  0.00    +0.000 C 
ATOM      8  C   UNL     1      -8.573   2.022 128.424  0.00  0.00    +0.000 C 
ATOM      9  C   UNL     1      -8.408   1.469 129.848  0.00  0.00    +0.000 C 
ATOM     10  C   UNL     1      -9.320   2.207 130.852  0.00  0.00    +0.000 C 
ATOM     11  C   UNL     1      -9.096   3.730 130.849  0.00  0.00    +0.000 C 
ATOM     12  C   UNL     1      -7.589   4.052 130.743  0.00  0.00    +0.000 C 
ENDBRANCH   3  11
ENDBRANCH   1   3
BRANCH   1  13
ATOM     13  C   UNL     1     -11.502   5.898 130.440  0.00  0.00    +0.000 C 
BRANCH  13  14
ATOM     14  C   UNL     1     -12.242   6.955 129.618  0.00  0.00    +0.000 A 
ATOM     15  C   UNL     1     -12.188   8.309 130.004  0.00  0.00    +0.000 A 
ATOM     16  C   UNL     1     -12.870   9.294 129.306  0.00  0.00    +0.000 A 
ATOM     17  C   UNL     1     -13.610   8.944 128.187  0.00  0.00    +0.000 A 
ATOM     18  C   UNL     1     -13.692   7.607 127.792  0.00  0.00    +0.000 A 
ATOM     19  C   UNL     1     -13.016   6.611 128.504  0.00  0.00    +0.000 A 
ENDBRANCH  13  14
BRANCH  13  20
ATOM     20  C   UNL     1     -11.383   6.403 131.883  0.00  0.00    +0.000 C 
BRANCH  20  21
ATOM     21  O   UNL     1     -10.037   6.544 132.328  0.00  0.00    +0.000 OA
ATOM     22  H   UNL     1      -9.609   7.243 131.808  0.00  0.00    +0.000 HD
ENDBRANCH  20  21
ENDBRANCH  13  20
ENDBRANCH   1  13
TORSDOF 6
ENDMDL
