MODEL 1
REMARK VINA RESULT:     -10.0      0.000      0.000
REMARK  Name = Avacopan
REMARK  9 active torsions:
REMARK  status: ('A' for Active; 'I' for Inactive)
REMARK    1  A    between atoms: C_1  and  C_2
REMARK    2  A    between atoms: C_5  and  N_6
REMARK    3  A    between atoms: C_7  and  C_9
REMARK    4  A    between atoms: C_14  and  C_15
REMARK    5  A    between atoms: C_18  and  N_19
REMARK    6  A    between atoms: N_19  and  C_20
REMARK    7  A    between atoms: C_27  and  C_29
REMARK    8  A    between atoms: C_35  and  C_36
REMARK    9  A    between atoms: C_38  and  C_39
REMARK                            x       y       z     vdW  Elec       q    Type
REMARK                         _______ _______ _______ _____ _____    ______ ____
ROOT
ATOM      1  C   UNL     1      -6.232  -1.392 129.412  0.00  0.00    +0.000 C 
ATOM      2  C   UNL     1      -7.073  -2.422 130.383  0.00  0.00    +0.000 C 
ATOM      3  C   UNL     1      -7.909  -3.137 129.383  0.00  0.00    +0.000 C 
ATOM      4  C   UNL     1      -8.522  -3.035 128.032  0.00  0.00    +0.000 C 
ATOM      5  N   UNL     1      -7.639  -2.302 127.153  0.00  0.00    +0.000 N 
ATOM      6  C   UNL     1      -6.732  -1.273 127.794  0.00  0.00    +0.000 C 
ATOM      7  C   UNL     1      -8.145  -2.186 125.842  0.00  0.00    +0.000 C 
ATOM      8  O   UNL     1      -9.396  -2.129 125.681  0.00  0.00    +0.000 OA
ENDROOT
BRANCH   7   9
ATOM      9  C   UNL     1      -7.256  -2.312 124.628  0.00  0.00    +0.000 A 
ATOM     10  C   UNL     1      -6.053  -3.033 124.748  0.00  0.00    +0.000 A 
ATOM     11  F   UNL     1      -5.693  -3.637 125.894  0.00  0.00    +0.000 F 
ATOM     12  C   UNL     1      -5.145  -3.134 123.684  0.00  0.00    +0.000 A 
ATOM     13  C   UNL     1      -5.417  -2.546 122.456  0.00  0.00    +0.000 A 
ATOM     14  C   UNL     1      -6.586  -1.843 122.303  0.00  0.00    +0.000 A 
ATOM     15  C   UNL     1      -7.472  -1.682 123.374  0.00  0.00    +0.000 A 
ATOM     16  C   UNL     1      -8.647  -0.872 122.988  0.00  0.00    +0.000 C 
ENDBRANCH   7   9
BRANCH   6  17
ATOM     17  C   UNL     1      -7.000   0.061 127.111  0.00  0.00    +0.000 A 
ATOM     18  C   UNL     1      -5.973   0.553 126.312  0.00  0.00    +0.000 A 
ATOM     19  C   UNL     1      -6.200   1.606 125.425  0.00  0.00    +0.000 A 
ATOM     20  C   UNL     1      -7.429   2.273 125.376  0.00  0.00    +0.000 A 
ATOM     21  C   UNL     1      -8.420   1.836 126.262  0.00  0.00    +0.000 A 
ATOM     22  C   UNL     1      -8.233   0.750 127.109  0.00  0.00    +0.000 A 
BRANCH  20  23
ATOM     23  N   UNL     1      -7.707   3.117 124.306  0.00  0.00    +0.000 N 
ATOM     24  H   UNL     1      -8.495   3.750 124.423  0.00  0.00    +0.000 HD
BRANCH  23  25
ATOM     25  C   UNL     1      -7.185   2.984 122.952  0.00  0.00    +0.000 C 
ATOM     26  C   UNL     1      -8.154   3.382 121.829  0.00  0.00    +0.000 C 
ATOM     27  C   UNL     1      -7.243   3.748 120.665  0.00  0.00    +0.000 C 
ATOM     28  C   UNL     1      -5.899   4.158 121.267  0.00  0.00    +0.000 C 
ATOM     29  C   UNL     1      -5.946   3.845 122.750  0.00  0.00    +0.000 C 
ENDBRANCH  23  25
ENDBRANCH  20  23
ENDBRANCH   6  17
BRANCH   1  31
ATOM     30  N   UNL     1      -4.569   0.461 129.983  0.00  0.00    +0.000 N 
ATOM     31  C   UNL     1      -5.875  -0.039 130.036  0.00  0.00    +0.000 C 
ATOM     32  O   UNL     1      -6.809   0.524 130.661  0.00  0.00    +0.000 OA
ATOM     33  H   UNL     1      -3.804  -0.098 129.639  0.00  0.00    +0.000 HD
BRANCH  30  38
ATOM     34  C   UNL     1      -2.991   5.961 130.289  0.00  0.00    +0.000 C 
ATOM     35  C   UNL     1      -3.324   4.509 130.258  0.00  0.00    +0.000 A 
ATOM     36  C   UNL     1      -3.545   3.805 131.430  0.00  0.00    +0.000 A 
ATOM     37  C   UNL     1      -4.066   2.507 131.334  0.00  0.00    +0.000 A 
ATOM     38  C   UNL     1      -4.170   1.811 130.124  0.00  0.00    +0.000 A 
ATOM     39  C   UNL     1      -3.859   2.507 129.004  0.00  0.00    +0.000 A 
ATOM     40  C   UNL     1      -3.519   3.849 129.043  0.00  0.00    +0.000 A 
BRANCH  40  41
ATOM     41  C   UNL     1      -3.482   4.440 127.676  0.00  0.00    +0.000 C 
ATOM     42  F   UNL     1      -2.242   4.911 127.375  0.00  0.00    +0.000 F 
ATOM     43  F   UNL     1      -3.765   3.494 126.734  0.00  0.00    +0.000 F 
ATOM     44  F   UNL     1      -4.348   5.455 127.463  0.00  0.00    +0.000 F 
ENDBRANCH  40  41
ENDBRANCH  30  38
ENDBRANCH   1  31
TORSDOF 7
ENDMDL
MODEL 2
REMARK VINA RESULT:      -9.9      2.854      7.711
REMARK  Name = Avacopan
REMARK  9 active torsions:
REMARK  status: ('A' for Active; 'I' for Inactive)
REMARK    1  A    between atoms: C_1  and  C_2
REMARK    2  A    between atoms: C_5  and  N_6
REMARK    3  A    between atoms: C_7  and  C_9
REMARK    4  A    between atoms: C_14  and  C_15
REMARK    5  A    between atoms: C_18  and  N_19
REMARK    6  A    between atoms: N_19  and  C_20
REMARK    7  A    between atoms: C_27  and  C_29
REMARK    8  A    between atoms: C_35  and  C_36
REMARK    9  A    between atoms: C_38  and  C_39
REMARK                            x       y       z     vdW  Elec       q    Type
REMARK                         _______ _______ _______ _____ _____    ______ ____
ROOT
ATOM      1  C   UNL     1      -8.689   1.117 126.408  0.00  0.00    +0.000 C 
ATOM      2  C   UNL     1      -9.050  -0.398 125.872  0.00  0.00    +0.000 C 
ATOM      3  C   UNL     1      -8.426  -1.231 126.934  0.00  0.00    +0.000 C 
ATOM      4  C   UNL     1      -7.368  -1.258 127.977  0.00  0.00    +0.000 C 
ATOM      5  N   UNL     1      -7.238   0.054 128.570  0.00  0.00    +0.000 N 
ATOM      6  C   UNL     1      -7.592   1.239 127.698  0.00  0.00    +0.000 C 
ATOM      7  C   UNL     1      -6.265   0.099 129.590  0.00  0.00    +0.000 C 
ATOM      8  O   UNL     1      -5.261  -0.661 129.500  0.00  0.00    +0.000 OA
ENDROOT
BRANCH   7   9
ATOM      9  C   UNL     1      -6.476   0.887 130.861  0.00  0.00    +0.000 A 
ATOM     10  C   UNL     1      -5.418   1.678 131.345  0.00  0.00    +0.000 A 
ATOM     11  F   UNL     1      -4.246   1.780 130.695  0.00  0.00    +0.000 F 
ATOM     12  C   UNL     1      -5.517   2.381 132.554  0.00  0.00    +0.000 A 
ATOM     13  C   UNL     1      -6.683   2.344 133.308  0.00  0.00    +0.000 A 
ATOM     14  C   UNL     1      -7.737   1.588 132.859  0.00  0.00    +0.000 A 
ATOM     15  C   UNL     1      -7.631   0.832 131.686  0.00  0.00    +0.000 A 
ATOM     16  C   UNL     1      -8.873   0.081 131.411  0.00  0.00    +0.000 C 
ENDBRANCH   7   9
BRANCH   6  17
ATOM     17  C   UNL     1      -6.379   2.159 127.662  0.00  0.00    +0.000 A 
ATOM     18  C   UNL     1      -6.524   3.383 128.308  0.00  0.00    +0.000 A 
ATOM     19  C   UNL     1      -5.413   4.181 128.583  0.00  0.00    +0.000 A 
ATOM     20  C   UNL     1      -4.132   3.837 128.136  0.00  0.00    +0.000 A 
ATOM     21  C   UNL     1      -4.019   2.654 127.396  0.00  0.00    +0.000 A 
ATOM     22  C   UNL     1      -5.103   1.816 127.164  0.00  0.00    +0.000 A 
BRANCH  20  23
ATOM     23  N   UNL     1      -3.025   4.497 128.660  0.00  0.00    +0.000 N 
ATOM     24  H   UNL     1      -2.121   4.235 128.275  0.00  0.00    +0.000 HD
BRANCH  23  25
ATOM     25  C   UNL     1      -2.999   5.291 129.881  0.00  0.00    +0.000 C 
ATOM     26  C   UNL     1      -2.748   4.502 131.175  0.00  0.00    +0.000 C 
ATOM     27  C   UNL     1      -2.165   5.535 132.131  0.00  0.00    +0.000 C 
ATOM     28  C   UNL     1      -1.531   6.627 131.270  0.00  0.00    +0.000 C 
ATOM     29  C   UNL     1      -1.909   6.351 129.828  0.00  0.00    +0.000 C 
ENDBRANCH  23  25
ENDBRANCH  20  23
ENDBRANCH   6  17
BRANCH   1  31
ATOM     30  N   UNL     1      -7.658   1.891 124.203  0.00  0.00    +0.000 N 
ATOM     31  C   UNL     1      -8.459   2.167 125.316  0.00  0.00    +0.000 C 
ATOM     32  O   UNL     1      -8.962   3.296 125.548  0.00  0.00    +0.000 OA
ATOM     33  H   UNL     1      -7.118   1.043 124.139  0.00  0.00    +0.000 HD
BRANCH  30  38
ATOM     34  C   UNL     1      -7.483   4.591 119.151  0.00  0.00    +0.000 C 
ATOM     35  C   UNL     1      -7.591   3.952 120.493  0.00  0.00    +0.000 A 
ATOM     36  C   UNL     1      -8.797   3.445 120.945  0.00  0.00    +0.000 A 
ATOM     37  C   UNL     1      -8.793   2.666 122.111  0.00  0.00    +0.000 A 
ATOM     38  C   UNL     1      -7.681   2.557 122.954  0.00  0.00    +0.000 A 
ATOM     39  C   UNL     1      -6.540   3.144 122.520  0.00  0.00    +0.000 A 
ATOM     40  C   UNL     1      -6.455   3.764 121.285  0.00  0.00    +0.000 A 
BRANCH  40  41
ATOM     41  C   UNL     1      -5.044   4.092 120.937  0.00  0.00    +0.000 C 
ATOM     42  F   UNL     1      -4.358   2.980 120.560  0.00  0.00    +0.000 F 
ATOM     43  F   UNL     1      -4.996   4.944 119.872  0.00  0.00    +0.000 F 
ATOM     44  F   UNL     1      -4.329   4.678 121.922  0.00  0.00    +0.000 F 
ENDBRANCH  40  41
ENDBRANCH  30  38
ENDBRANCH   1  31
TORSDOF 7
ENDMDL
MODEL 3
REMARK VINA RESULT:      -9.8      3.808      8.912
REMARK  Name = Avacopan
REMARK  9 active torsions:
REMARK  status: ('A' for Active; 'I' for Inactive)
REMARK    1  A    between atoms: C_1  and  C_2
REMARK    2  A    between atoms: C_5  and  N_6
REMARK    3  A    between atoms: C_7  and  C_9
REMARK    4  A    between atoms: C_14  and  C_15
REMARK    5  A    between atoms: C_18  and  N_19
REMARK    6  A    between atoms: N_19  and  C_20
REMARK    7  A    between atoms: C_27  and  C_29
REMARK    8  A    between atoms: C_35  and  C_36
REMARK    9  A    between atoms: C_38  and  C_39
REMARK                            x       y       z     vdW  Elec       q    Type
REMARK                         _______ _______ _______ _____ _____    ______ ____
ROOT
ATOM      1  C   UNL     1      -4.240   2.099 127.810  0.00  0.00    +0.000 C 
ATOM      2  C   UNL     1      -3.221   2.597 126.615  0.00  0.00    +0.000 C 
ATOM      3  C   UNL     1      -2.916   3.982 127.062  0.00  0.00    +0.000 C 
ATOM      4  C   UNL     1      -3.421   5.128 127.863  0.00  0.00    +0.000 C 
ATOM      5  N   UNL     1      -4.128   4.634 129.023  0.00  0.00    +0.000 N 
ATOM      6  C   UNL     1      -4.794   3.280 128.895  0.00  0.00    +0.000 C 
ATOM      7  C   UNL     1      -4.617   5.669 129.847  0.00  0.00    +0.000 C 
ATOM      8  O   UNL     1      -4.959   6.758 129.309  0.00  0.00    +0.000 OA
ENDROOT
BRANCH   7   9
ATOM      9  C   UNL     1      -4.572   5.578 131.354  0.00  0.00    +0.000 A 
ATOM     10  C   UNL     1      -3.434   5.013 131.960  0.00  0.00    +0.000 A 
ATOM     11  F   UNL     1      -2.380   4.587 131.243  0.00  0.00    +0.000 F 
ATOM     12  C   UNL     1      -3.351   4.834 133.348  0.00  0.00    +0.000 A 
ATOM     13  C   UNL     1      -4.384   5.238 134.183  0.00  0.00    +0.000 A 
ATOM     14  C   UNL     1      -5.505   5.801 133.624  0.00  0.00    +0.000 A 
ATOM     15  C   UNL     1      -5.628   5.929 132.236  0.00  0.00    +0.000 A 
ATOM     16  C   UNL     1      -6.922   6.537 131.861  0.00  0.00    +0.000 C 
ENDBRANCH   7   9
BRANCH   6  17
ATOM     17  C   UNL     1      -6.269   3.463 129.231  0.00  0.00    +0.000 A 
ATOM     18  C   UNL     1      -6.703   2.861 130.407  0.00  0.00    +0.000 A 
ATOM     19  C   UNL     1      -7.943   3.186 130.959  0.00  0.00    +0.000 A 
ATOM     20  C   UNL     1      -8.836   4.044 130.307  0.00  0.00    +0.000 A 
ATOM     21  C   UNL     1      -8.427   4.559 129.071  0.00  0.00    +0.000 A 
ATOM     22  C   UNL     1      -7.172   4.295 128.535  0.00  0.00    +0.000 A 
BRANCH  20  23
ATOM     23  N   UNL     1      -9.924   4.559 131.005  0.00  0.00    +0.000 N 
ATOM     24  H   UNL     1     -10.402   3.916 131.631  0.00  0.00    +0.000 HD
BRANCH  23  25
ATOM     25  C   UNL     1     -10.615   5.808 130.714  0.00  0.00    +0.000 C 
ATOM     26  C   UNL     1     -11.771   5.704 129.710  0.00  0.00    +0.000 C 
ATOM     27  C   UNL     1     -12.663   6.892 130.047  0.00  0.00    +0.000 C 
ATOM     28  C   UNL     1     -12.396   7.245 131.509  0.00  0.00    +0.000 C 
ATOM     29  C   UNL     1     -11.218   6.412 131.975  0.00  0.00    +0.000 C 
ENDBRANCH  23  25
ENDBRANCH  20  23
ENDBRANCH   6  17
BRANCH   1  31
ATOM     30  N   UNL     1      -6.128   1.360 126.256  0.00  0.00    +0.000 N 
ATOM     31  C   UNL     1      -5.331   1.113 127.379  0.00  0.00    +0.000 C 
ATOM     32  O   UNL     1      -5.504   0.138 128.153  0.00  0.00    +0.000 OA
ATOM     33  H   UNL     1      -6.090   2.239 125.765  0.00  0.00    +0.000 HD
BRANCH  30  38
ATOM     34  C   UNL     1      -8.846  -2.641 123.182  0.00  0.00    +0.000 C 
ATOM     35  C   UNL     1      -8.179  -1.536 123.927  0.00  0.00    +0.000 A 
ATOM     36  C   UNL     1      -8.923  -0.579 124.596  0.00  0.00    +0.000 A 
ATOM     37  C   UNL     1      -8.250   0.302 125.455  0.00  0.00    +0.000 A 
ATOM     38  C   UNL     1      -6.855   0.406 125.504  0.00  0.00    +0.000 A 
ATOM     39  C   UNL     1      -6.161  -0.492 124.765  0.00  0.00    +0.000 A 
ATOM     40  C   UNL     1      -6.788  -1.497 124.049  0.00  0.00    +0.000 A 
BRANCH  40  41
ATOM     41  C   UNL     1      -5.807  -2.498 123.543  0.00  0.00    +0.000 C 
ATOM     42  F   UNL     1      -5.669  -2.414 122.192  0.00  0.00    +0.000 F 
ATOM     43  F   UNL     1      -4.568  -2.264 124.064  0.00  0.00    +0.000 F 
ATOM     44  F   UNL     1      -6.099  -3.786 123.827  0.00  0.00    +0.000 F 
ENDBRANCH  40  41
ENDBRANCH  30  38
ENDBRANCH   1  31
TORSDOF 7
ENDMDL
MODEL 4
REMARK VINA RESULT:      -9.6      3.166      6.595
REMARK  Name = Avacopan
REMARK  9 active torsions:
REMARK  status: ('A' for Active; 'I' for Inactive)
REMARK    1  A    between atoms: C_1  and  C_2
REMARK    2  A    between atoms: C_5  and  N_6
REMARK    3  A    between atoms: C_7  and  C_9
REMARK    4  A    between atoms: C_14  and  C_15
REMARK    5  A    between atoms: C_18  and  N_19
REMARK    6  A    between atoms: N_19  and  C_20
REMARK    7  A    between atoms: C_27  and  C_29
REMARK    8  A    between atoms: C_35  and  C_36
REMARK    9  A    between atoms: C_38  and  C_39
REMARK                            x       y       z     vdW  Elec       q    Type
REMARK                         _______ _______ _______ _____ _____    ______ ____
ROOT
ATOM      1  C   UNL     1      -7.476   3.837 129.015  0.00  0.00    +0.000 C 
ATOM      2  C   UNL     1      -8.703   4.473 129.910  0.00  0.00    +0.000 C 
ATOM      3  C   UNL     1      -8.951   3.370 130.876  0.00  0.00    +0.000 C 
ATOM      4  C   UNL     1      -8.819   1.905 131.091  0.00  0.00    +0.000 C 
ATOM      5  N   UNL     1      -7.606   1.430 130.464  0.00  0.00    +0.000 N 
ATOM      6  C   UNL     1      -7.114   2.196 129.254  0.00  0.00    +0.000 C 
ATOM      7  C   UNL     1      -7.401   0.047 130.648  0.00  0.00    +0.000 C 
ATOM      8  O   UNL     1      -8.410  -0.706 130.734  0.00  0.00    +0.000 OA
ENDROOT
BRANCH   7   9
ATOM      9  C   UNL     1      -6.032  -0.527 130.924  0.00  0.00    +0.000 A 
ATOM     10  C   UNL     1      -5.227   0.093 131.898  0.00  0.00    +0.000 A 
ATOM     11  F   UNL     1      -5.652   1.152 132.608  0.00  0.00    +0.000 F 
ATOM     12  C   UNL     1      -3.920  -0.342 132.159  0.00  0.00    +0.000 A 
ATOM     13  C   UNL     1      -3.380  -1.427 131.482  0.00  0.00    +0.000 A 
ATOM     14  C   UNL     1      -4.142  -2.060 130.532  0.00  0.00    +0.000 A 
ATOM     15  C   UNL     1      -5.425  -1.599 130.217  0.00  0.00    +0.000 A 
ATOM     16  C   UNL     1      -6.048  -2.414 129.153  0.00  0.00    +0.000 C 
ENDBRANCH   7   9
BRANCH   6  17
ATOM     17  C   UNL     1      -6.990   1.204 128.105  0.00  0.00    +0.000 A 
ATOM     18  C   UNL     1      -8.186   0.781 127.535  0.00  0.00    +0.000 A 
ATOM     19  C   UNL     1      -8.195   0.104 126.315  0.00  0.00    +0.000 A 
ATOM     20  C   UNL     1      -7.009  -0.264 125.670  0.00  0.00    +0.000 A 
ATOM     21  C   UNL     1      -5.811   0.076 126.310  0.00  0.00    +0.000 A 
ATOM     22  C   UNL     1      -5.782   0.803 127.493  0.00  0.00    +0.000 A 
BRANCH  20  23
ATOM     23  N   UNL     1      -7.052  -0.681 124.343  0.00  0.00    +0.000 N 
ATOM     24  H   UNL     1      -6.971   0.049 123.639  0.00  0.00    +0.000 HD
BRANCH  23  25
ATOM     25  C   UNL     1      -7.491  -1.987 123.869  0.00  0.00    +0.000 C 
ATOM     26  C   UNL     1      -7.452  -3.114 124.911  0.00  0.00    +0.000 C 
ATOM     27  C   UNL     1      -8.479  -4.120 124.408  0.00  0.00    +0.000 C 
ATOM     28  C   UNL     1      -9.471  -3.344 123.543  0.00  0.00    +0.000 C 
ATOM     29  C   UNL     1      -8.927  -1.939 123.368  0.00  0.00    +0.000 C 
ENDBRANCH  23  25
ENDBRANCH  20  23
ENDBRANCH   6  17
BRANCH   1  31
ATOM     30  N   UNL     1      -6.325   4.017 126.741  0.00  0.00    +0.000 N 
ATOM     31  C   UNL     1      -7.449   4.254 127.540  0.00  0.00    +0.000 C 
ATOM     32  O   UNL     1      -8.458   4.892 127.148  0.00  0.00    +0.000 OA
ATOM     33  H   UNL     1      -5.463   3.672 127.132  0.00  0.00    +0.000 HD
BRANCH  30  38
ATOM     34  C   UNL     1      -6.419   3.661 121.022  0.00  0.00    +0.000 C 
ATOM     35  C   UNL     1      -6.312   3.710 122.508  0.00  0.00    +0.000 A 
ATOM     36  C   UNL     1      -5.269   4.380 123.125  0.00  0.00    +0.000 A 
ATOM     37  C   UNL     1      -5.338   4.579 124.511  0.00  0.00    +0.000 A 
ATOM     38  C   UNL     1      -6.286   3.953 125.328  0.00  0.00    +0.000 A 
ATOM     39  C   UNL     1      -7.240   3.231 124.693  0.00  0.00    +0.000 A 
ATOM     40  C   UNL     1      -7.315   3.164 123.312  0.00  0.00    +0.000 A 
BRANCH  40  41
ATOM     41  C   UNL     1      -8.590   2.535 122.866  0.00  0.00    +0.000 C 
ATOM     42  F   UNL     1      -9.500   2.493 123.877  0.00  0.00    +0.000 F 
ATOM     43  F   UNL     1      -9.166   3.267 121.870  0.00  0.00    +0.000 F 
ATOM     44  F   UNL     1      -8.476   1.275 122.392  0.00  0.00    +0.000 F 
ENDBRANCH  40  41
ENDBRANCH  30  38
ENDBRANCH   1  31
TORSDOF 7
ENDMDL
MODEL 5
REMARK VINA RESULT:      -9.6      2.825      7.127
REMARK  Name = Avacopan
REMARK  9 active torsions:
REMARK  status: ('A' for Active; 'I' for Inactive)
REMARK    1  A    between atoms: C_1  and  C_2
REMARK    2  A    between atoms: C_5  and  N_6
REMARK    3  A    between atoms: C_7  and  C_9
REMARK    4  A    between atoms: C_14  and  C_15
REMARK    5  A    between atoms: C_18  and  N_19
REMARK    6  A    between atoms: N_19  and  C_20
REMARK    7  A    between atoms: C_27  and  C_29
REMARK    8  A    between atoms: C_35  and  C_36
REMARK    9  A    between atoms: C_38  and  C_39
REMARK                            x       y       z     vdW  Elec       q    Type
REMARK                         _______ _______ _______ _____ _____    ______ ____
ROOT
ATOM      1  C   UNL     1      -5.988  -1.746 130.696  0.00  0.00    +0.000 C 
ATOM      2  C   UNL     1      -4.685  -2.338 131.511  0.00  0.00    +0.000 C 
ATOM      3  C   UNL     1      -4.219  -1.120 132.225  0.00  0.00    +0.000 C 
ATOM      4  C   UNL     1      -4.216   0.366 132.195  0.00  0.00    +0.000 C 
ATOM      5  N   UNL     1      -5.475   0.843 131.668  0.00  0.00    +0.000 N 
ATOM      6  C   UNL     1      -6.196  -0.062 130.691  0.00  0.00    +0.000 C 
ATOM      7  C   UNL     1      -5.555   2.250 131.633  0.00  0.00    +0.000 C 
ATOM      8  O   UNL     1      -4.496   2.911 131.445  0.00  0.00    +0.000 OA
ENDROOT
BRANCH   7   9
ATOM      9  C   UNL     1      -6.824   2.988 131.991  0.00  0.00    +0.000 A 
ATOM     10  C   UNL     1      -7.484   2.648 133.187  0.00  0.00    +0.000 A 
ATOM     11  F   UNL     1      -7.002   1.719 134.030  0.00  0.00    +0.000 F 
ATOM     12  C   UNL     1      -8.702   3.240 133.550  0.00  0.00    +0.000 A 
ATOM     13  C   UNL     1      -9.289   4.212 132.750  0.00  0.00    +0.000 A 
ATOM     14  C   UNL     1      -8.667   4.572 131.581  0.00  0.00    +0.000 A 
ATOM     15  C   UNL     1      -7.483   3.945 131.175  0.00  0.00    +0.000 A 
ATOM     16  C   UNL     1      -7.008   4.473 129.879  0.00  0.00    +0.000 C 
ENDBRANCH   7   9
BRANCH   6  17
ATOM     17  C   UNL     1      -6.426   0.736 129.415  0.00  0.00    +0.000 A 
ATOM     18  C   UNL     1      -5.295   0.994 128.647  0.00  0.00    +0.000 A 
ATOM     19  C   UNL     1      -5.412   1.463 127.338  0.00  0.00    +0.000 A 
ATOM     20  C   UNL     1      -6.655   1.786 126.782  0.00  0.00    +0.000 A 
ATOM     21  C   UNL     1      -7.776   1.621 127.603  0.00  0.00    +0.000 A 
ATOM     22  C   UNL     1      -7.685   1.098 128.887  0.00  0.00    +0.000 A 
BRANCH  20  23
ATOM     23  N   UNL     1      -6.760   1.979 125.408  0.00  0.00    +0.000 N 
ATOM     24  H   UNL     1      -5.889   2.136 124.907  0.00  0.00    +0.000 HD
BRANCH  23  25
ATOM     25  C   UNL     1      -7.985   2.268 124.674  0.00  0.00    +0.000 C 
ATOM     26  C   UNL     1      -7.790   2.778 123.240  0.00  0.00    +0.000 C 
ATOM     27  C   UNL     1      -9.090   2.411 122.536  0.00  0.00    +0.000 C 
ATOM     28  C   UNL     1      -9.689   1.231 123.299  0.00  0.00    +0.000 C 
ATOM     29  C   UNL     1      -8.863   1.031 124.555  0.00  0.00    +0.000 C 
ENDBRANCH  23  25
ENDBRANCH  20  23
ENDBRANCH   6  17
BRANCH   1  31
ATOM     30  N   UNL     1      -7.534  -2.324 128.747  0.00  0.00    +0.000 N 
ATOM     31  C   UNL     1      -6.267  -2.395 129.337  0.00  0.00    +0.000 C 
ATOM     32  O   UNL     1      -5.312  -3.056 128.855  0.00  0.00    +0.000 OA
ATOM     33  H   UNL     1      -8.326  -1.947 129.243  0.00  0.00    +0.000 HD
BRANCH  30  38
ATOM     34  C   UNL     1      -8.536  -2.907 123.134  0.00  0.00    +0.000 C 
ATOM     35  C   UNL     1      -8.356  -2.708 124.600  0.00  0.00    +0.000 A 
ATOM     36  C   UNL     1      -9.273  -3.214 125.505  0.00  0.00    +0.000 A 
ATOM     37  C   UNL     1      -8.943  -3.189 126.868  0.00  0.00    +0.000 A 
ATOM     38  C   UNL     1      -7.843  -2.488 127.375  0.00  0.00    +0.000 A 
ATOM     39  C   UNL     1      -7.015  -1.928 126.461  0.00  0.00    +0.000 A 
ATOM     40  C   UNL     1      -7.206  -2.090 125.099  0.00  0.00    +0.000 A 
BRANCH  40  41
ATOM     41  C   UNL     1      -6.029  -1.608 124.324  0.00  0.00    +0.000 C 
ATOM     42  F   UNL     1      -6.388  -0.650 123.426  0.00  0.00    +0.000 F 
ATOM     43  F   UNL     1      -5.113  -1.026 125.150  0.00  0.00    +0.000 F 
ATOM     44  F   UNL     1      -5.364  -2.560 123.634  0.00  0.00    +0.000 F 
ENDBRANCH  40  41
ENDBRANCH  30  38
ENDBRANCH   1  31
TORSDOF 7
ENDMDL
MODEL 6
REMARK VINA RESULT:      -9.6      3.540      7.774
REMARK  Name = Avacopan
REMARK  9 active torsions:
REMARK  status: ('A' for Active; 'I' for Inactive)
REMARK    1  A    between atoms: C_1  and  C_2
REMARK    2  A    between atoms: C_5  and  N_6
REMARK    3  A    between atoms: C_7  and  C_9
REMARK    4  A    between atoms: C_14  and  C_15
REMARK    5  A    between atoms: C_18  and  N_19
REMARK    6  A    between atoms: N_19  and  C_20
REMARK    7  A    between atoms: C_27  and  C_29
REMARK    8  A    between atoms: C_35  and  C_36
REMARK    9  A    between atoms: C_38  and  C_39
REMARK                            x       y       z     vdW  Elec       q    Type
REMARK                         _______ _______ _______ _____ _____    ______ ____
ROOT
ATOM      1  C   UNL     1      -7.597  -1.800 127.245  0.00  0.00    +0.000 C 
ATOM      2  C   UNL     1      -8.823  -2.009 126.165  0.00  0.00    +0.000 C 
ATOM      3  C   UNL     1      -9.069  -0.606 125.740  0.00  0.00    +0.000 C 
ATOM      4  C   UNL     1      -8.936   0.817 126.149  0.00  0.00    +0.000 C 
ATOM      5  N   UNL     1      -7.724   0.990 126.917  0.00  0.00    +0.000 N 
ATOM      6  C   UNL     1      -7.234  -0.208 127.704  0.00  0.00    +0.000 C 
ATOM      7  C   UNL     1      -7.518   2.325 127.321  0.00  0.00    +0.000 C 
ATOM      8  O   UNL     1      -8.526   3.048 127.551  0.00  0.00    +0.000 OA
ENDROOT
BRANCH   7   9
ATOM      9  C   UNL     1      -6.148   2.961 127.307  0.00  0.00    +0.000 A 
ATOM     10  C   UNL     1      -5.253   2.609 126.279  0.00  0.00    +0.000 A 
ATOM     11  F   UNL     1      -5.593   1.757 125.297  0.00  0.00    +0.000 F 
ATOM     12  C   UNL     1      -3.943   3.106 126.241  0.00  0.00    +0.000 A 
ATOM     13  C   UNL     1      -3.487   3.992 127.208  0.00  0.00    +0.000 A 
ATOM     14  C   UNL     1      -4.338   4.363 128.219  0.00  0.00    +0.000 A 
ATOM     15  C   UNL     1      -5.628   3.827 128.305  0.00  0.00    +0.000 A 
ATOM     16  C   UNL     1      -6.353   4.347 129.483  0.00  0.00    +0.000 C 
ENDBRANCH   7   9
BRANCH   6  17
ATOM     17  C   UNL     1      -7.111   0.222 129.160  0.00  0.00    +0.000 A 
ATOM     18  C   UNL     1      -5.816   0.312 129.660  0.00  0.00    +0.000 A 
ATOM     19  C   UNL     1      -5.562   0.954 130.872  0.00  0.00    +0.000 A 
ATOM     20  C   UNL     1      -6.598   1.441 131.678  0.00  0.00    +0.000 A 
ATOM     21  C   UNL     1      -7.904   1.248 131.210  0.00  0.00    +0.000 A 
ATOM     22  C   UNL     1      -8.173   0.665 129.978  0.00  0.00    +0.000 A 
BRANCH  20  23
ATOM     23  N   UNL     1      -6.302   2.309 132.723  0.00  0.00    +0.000 N 
ATOM     24  H   UNL     1      -5.730   1.931 133.474  0.00  0.00    +0.000 HD
BRANCH  23  25
ATOM     25  C   UNL     1      -6.958   3.582 132.992  0.00  0.00    +0.000 C 
ATOM     26  C   UNL     1      -7.985   3.566 134.133  0.00  0.00    +0.000 C 
ATOM     27  C   UNL     1      -8.036   5.013 134.606  0.00  0.00    +0.000 C 
ATOM     28  C   UNL     1      -6.700   5.650 134.227  0.00  0.00    +0.000 C 
ATOM     29  C   UNL     1      -5.947   4.657 133.363  0.00  0.00    +0.000 C 
ENDBRANCH  23  25
ENDBRANCH  20  23
ENDBRANCH   6  17
BRANCH   1  31
ATOM     30  N   UNL     1      -6.378  -3.104 129.072  0.00  0.00    +0.000 N 
ATOM     31  C   UNL     1      -7.572  -2.789 128.415  0.00  0.00    +0.000 C 
ATOM     32  O   UNL     1      -8.671  -3.346 128.666  0.00  0.00    +0.000 OA
ATOM     33  H   UNL     1      -5.487  -2.784 128.728  0.00  0.00    +0.000 HD
BRANCH  30  38
ATOM     34  C   UNL     1      -6.016  -5.103 134.431  0.00  0.00    +0.000 C 
ATOM     35  C   UNL     1      -6.018  -4.574 133.038  0.00  0.00    +0.000 A 
ATOM     36  C   UNL     1      -5.352  -5.241 132.023  0.00  0.00    +0.000 A 
ATOM     37  C   UNL     1      -5.568  -4.822 130.702  0.00  0.00    +0.000 A 
ATOM     38  C   UNL     1      -6.241  -3.639 130.376  0.00  0.00    +0.000 A 
ATOM     39  C   UNL     1      -6.803  -2.965 131.407  0.00  0.00    +0.000 A 
ATOM     40  C   UNL     1      -6.771  -3.446 132.705  0.00  0.00    +0.000 A 
BRANCH  40  41
ATOM     41  C   UNL     1      -7.675  -2.666 133.597  0.00  0.00    +0.000 C 
ATOM     42  F   UNL     1      -6.985  -2.090 134.618  0.00  0.00    +0.000 F 
ATOM     43  F   UNL     1      -8.261  -1.642 132.912  0.00  0.00    +0.000 F 
ATOM     44  F   UNL     1      -8.683  -3.372 134.155  0.00  0.00    +0.000 F 
ENDBRANCH  40  41
ENDBRANCH  30  38
ENDBRANCH   1  31
TORSDOF 7
ENDMDL
MODEL 7
REMARK VINA RESULT:      -9.4      3.637      7.343
REMARK  Name = Avacopan
REMARK  9 active torsions:
REMARK  status: ('A' for Active; 'I' for Inactive)
REMARK    1  A    between atoms: C_1  and  C_2
REMARK    2  A    between atoms: C_5  and  N_6
REMARK    3  A    between atoms: C_7  and  C_9
REMARK    4  A    between atoms: C_14  and  C_15
REMARK    5  A    between atoms: C_18  and  N_19
REMARK    6  A    between atoms: N_19  and  C_20
REMARK    7  A    between atoms: C_27  and  C_29
REMARK    8  A    between atoms: C_35  and  C_36
REMARK    9  A    between atoms: C_38  and  C_39
REMARK                            x       y       z     vdW  Elec       q    Type
REMARK                         _______ _______ _______ _____ _____    ______ ____
ROOT
ATOM      1  C   UNL     1      -6.662  -1.880 126.633  0.00  0.00    +0.000 C 
ATOM      2  C   UNL     1      -7.743  -2.964 126.026  0.00  0.00    +0.000 C 
ATOM      3  C   UNL     1      -8.621  -2.071 125.226  0.00  0.00    +0.000 C 
ATOM      4  C   UNL     1      -9.108  -0.674 125.082  0.00  0.00    +0.000 C 
ATOM      5  N   UNL     1      -8.047   0.247 125.423  0.00  0.00    +0.000 N 
ATOM      6  C   UNL     1      -7.016  -0.234 126.422  0.00  0.00    +0.000 C 
ATOM      7  C   UNL     1      -8.430   1.597 125.287  0.00  0.00    +0.000 C 
ATOM      8  O   UNL     1      -9.635   1.907 125.500  0.00  0.00    +0.000 OA
ENDROOT
BRANCH   7   9
ATOM      9  C   UNL     1      -7.495   2.640 124.721  0.00  0.00    +0.000 A 
ATOM     10  C   UNL     1      -6.863   2.379 123.491  0.00  0.00    +0.000 A 
ATOM     11  F   UNL     1      -7.093   1.254 122.793  0.00  0.00    +0.000 F 
ATOM     12  C   UNL     1      -5.930   3.269 122.939  0.00  0.00    +0.000 A 
ATOM     13  C   UNL     1      -5.617   4.461 123.578  0.00  0.00    +0.000 A 
ATOM     14  C   UNL     1      -6.223   4.750 124.776  0.00  0.00    +0.000 A 
ATOM     15  C   UNL     1      -7.109   3.843 125.369  0.00  0.00    +0.000 A 
ATOM     16  C   UNL     1      -7.619   4.350 126.660  0.00  0.00    +0.000 C 
ENDBRANCH   7   9
BRANCH   6  17
ATOM     17  C   UNL     1      -6.988   0.768 127.568  0.00  0.00    +0.000 A 
ATOM     18  C   UNL     1      -8.122   0.800 128.375  0.00  0.00    +0.000 A 
ATOM     19  C   UNL     1      -8.106   1.463 129.603  0.00  0.00    +0.000 A 
ATOM     20  C   UNL     1      -6.993   2.201 130.025  0.00  0.00    +0.000 A 
ATOM     21  C   UNL     1      -5.899   2.247 129.153  0.00  0.00    +0.000 A 
ATOM     22  C   UNL     1      -5.874   1.544 127.955  0.00  0.00    +0.000 A 
BRANCH  20  23
ATOM     23  N   UNL     1      -6.906   2.608 131.352  0.00  0.00    +0.000 N 
ATOM     24  H   UNL     1      -6.242   2.104 131.935  0.00  0.00    +0.000 HD
BRANCH  23  25
ATOM     25  C   UNL     1      -7.859   3.461 132.051  0.00  0.00    +0.000 C 
ATOM     26  C   UNL     1      -8.778   2.743 133.050  0.00  0.00    +0.000 C 
ATOM     27  C   UNL     1      -9.182   3.834 134.032  0.00  0.00    +0.000 C 
ATOM     28  C   UNL     1      -8.085   4.897 133.989  0.00  0.00    +0.000 C 
ATOM     29  C   UNL     1      -7.148   4.543 132.851  0.00  0.00    +0.000 C 
ENDBRANCH  23  25
ENDBRANCH  20  23
ENDBRANCH   6  17
BRANCH   1  31
ATOM     30  N   UNL     1      -6.960  -2.562 129.077  0.00  0.00    +0.000 N 
ATOM     31  C   UNL     1      -6.109  -2.207 128.025  0.00  0.00    +0.000 C 
ATOM     32  O   UNL     1      -4.870  -2.041 128.159  0.00  0.00    +0.000 OA
ATOM     33  H   UNL     1      -7.962  -2.505 128.987  0.00  0.00    +0.000 HD
BRANCH  30  38
ATOM     34  C   UNL     1      -5.734  -5.309 133.955  0.00  0.00    +0.000 C 
ATOM     35  C   UNL     1      -5.962  -4.575 132.678  0.00  0.00    +0.000 A 
ATOM     36  C   UNL     1      -5.374  -5.000 131.499  0.00  0.00    +0.000 A 
ATOM     37  C   UNL     1      -5.794  -4.409 130.298  0.00  0.00    +0.000 A 
ATOM     38  C   UNL     1      -6.609  -3.272 130.250  0.00  0.00    +0.000 A 
ATOM     39  C   UNL     1      -7.094  -2.832 131.435  0.00  0.00    +0.000 A 
ATOM     40  C   UNL     1      -6.852  -3.500 132.624  0.00  0.00    +0.000 A 
BRANCH  40  41
ATOM     41  C   UNL     1      -7.702  -2.971 133.727  0.00  0.00    +0.000 C 
ATOM     42  F   UNL     1      -8.412  -1.883 133.325  0.00  0.00    +0.000 F 
ATOM     43  F   UNL     1      -8.623  -3.901 134.114  0.00  0.00    +0.000 F 
ATOM     44  F   UNL     1      -7.035  -2.612 134.846  0.00  0.00    +0.000 F 
ENDBRANCH  40  41
ENDBRANCH  30  38
ENDBRANCH   1  31
TORSDOF 7
ENDMDL
MODEL 8
REMARK VINA RESULT:      -9.4      3.612      6.502
REMARK  Name = Avacopan
REMARK  9 active torsions:
REMARK  status: ('A' for Active; 'I' for Inactive)
REMARK    1  A    between atoms: C_1  and  C_2
REMARK    2  A    between atoms: C_5  and  N_6
REMARK    3  A    between atoms: C_7  and  C_9
REMARK    4  A    between atoms: C_14  and  C_15
REMARK    5  A    between atoms: C_18  and  N_19
REMARK    6  A    between atoms: N_19  and  C_20
REMARK    7  A    between atoms: C_27  and  C_29
REMARK    8  A    between atoms: C_35  and  C_36
REMARK    9  A    between atoms: C_38  and  C_39
REMARK                            x       y       z     vdW  Elec       q    Type
REMARK                         _______ _______ _______ _____ _____    ______ ____
ROOT
ATOM      1  C   UNL     1      -7.681   3.006 126.763  0.00  0.00    +0.000 C 
ATOM      2  C   UNL     1      -7.232   3.551 125.275  0.00  0.00    +0.000 C 
ATOM      3  C   UNL     1      -6.799   2.284 124.629  0.00  0.00    +0.000 C 
ATOM      4  C   UNL     1      -6.283   0.914 124.889  0.00  0.00    +0.000 C 
ATOM      5  N   UNL     1      -6.877   0.395 126.100  0.00  0.00    +0.000 N 
ATOM      6  C   UNL     1      -7.281   1.404 127.154  0.00  0.00    +0.000 C 
ATOM      7  C   UNL     1      -6.452  -0.916 126.399  0.00  0.00    +0.000 C 
ATOM      8  O   UNL     1      -5.287  -1.265 126.061  0.00  0.00    +0.000 OA
ENDROOT
BRANCH   7   9
ATOM      9  C   UNL     1      -7.401  -1.960 126.939  0.00  0.00    +0.000 A 
ATOM     10  C   UNL     1      -7.127  -2.530 128.197  0.00  0.00    +0.000 A 
ATOM     11  F   UNL     1      -6.075  -2.148 128.941  0.00  0.00    +0.000 F 
ATOM     12  C   UNL     1      -7.924  -3.552 128.732  0.00  0.00    +0.000 A 
ATOM     13  C   UNL     1      -9.036  -4.022 128.046  0.00  0.00    +0.000 A 
ATOM     14  C   UNL     1      -9.335  -3.482 126.820  0.00  0.00    +0.000 A 
ATOM     15  C   UNL     1      -8.514  -2.505 126.246  0.00  0.00    +0.000 A 
ATOM     16  C   UNL     1      -9.013  -2.088 124.919  0.00  0.00    +0.000 C 
ENDBRANCH   7   9
BRANCH   6  17
ATOM     17  C   UNL     1      -6.572   1.024 128.447  0.00  0.00    +0.000 A 
ATOM     18  C   UNL     1      -5.185   1.132 128.433  0.00  0.00    +0.000 A 
ATOM     19  C   UNL     1      -4.453   1.084 129.621  0.00  0.00    +0.000 A 
ATOM     20  C   UNL     1      -5.068   0.826 130.852  0.00  0.00    +0.000 A 
ATOM     21  C   UNL     1      -6.451   0.615 130.835  0.00  0.00    +0.000 A 
ATOM     22  C   UNL     1      -7.204   0.719 129.672  0.00  0.00    +0.000 A 
BRANCH  20  23
ATOM     23  N   UNL     1      -4.365   1.061 132.029  0.00  0.00    +0.000 N 
ATOM     24  H   UNL     1      -4.074   0.238 132.552  0.00  0.00    +0.000 HD
BRANCH  23  25
ATOM     25  C   UNL     1      -4.262   2.336 132.727  0.00  0.00    +0.000 C 
ATOM     26  C   UNL     1      -2.833   2.819 133.012  0.00  0.00    +0.000 C 
ATOM     27  C   UNL     1      -2.971   4.330 133.141  0.00  0.00    +0.000 C 
ATOM     28  C   UNL     1      -4.219   4.729 132.354  0.00  0.00    +0.000 C 
ATOM     29  C   UNL     1      -4.924   3.454 131.935  0.00  0.00    +0.000 C 
ENDBRANCH  23  25
ENDBRANCH  20  23
ENDBRANCH   6  17
BRANCH   1  31
ATOM     30  N   UNL     1      -8.428   4.174 128.909  0.00  0.00    +0.000 N 
ATOM     31  C   UNL     1      -7.456   3.986 127.920  0.00  0.00    +0.000 C 
ATOM     32  O   UNL     1      -6.393   4.654 127.855  0.00  0.00    +0.000 OA
ATOM     33  H   UNL     1      -9.345   3.763 128.833  0.00  0.00    +0.000 HD
BRANCH  30  38
ATOM     34  C   UNL     1      -7.655   6.021 134.279  0.00  0.00    +0.000 C 
ATOM     35  C   UNL     1      -7.913   5.613 132.869  0.00  0.00    +0.000 A 
ATOM     36  C   UNL     1      -7.580   6.446 131.815  0.00  0.00    +0.000 A 
ATOM     37  C   UNL     1      -7.641   5.926 130.514  0.00  0.00    +0.000 A 
ATOM     38  C   UNL     1      -8.225   4.691 130.211  0.00  0.00    +0.000 A 
ATOM     39  C   UNL     1      -8.622   3.941 131.267  0.00  0.00    +0.000 A 
ATOM     40  C   UNL     1      -8.408   4.340 132.575  0.00  0.00    +0.000 A 
BRANCH  40  41
ATOM     41  C   UNL     1      -8.692   3.236 133.534  0.00  0.00    +0.000 C 
ATOM     42  F   UNL     1      -7.568   2.861 134.203  0.00  0.00    +0.000 F 
ATOM     43  F   UNL     1      -9.580   3.642 134.488  0.00  0.00    +0.000 F 
ATOM     44  F   UNL     1      -9.213   2.116 132.986  0.00  0.00    +0.000 F 
ENDBRANCH  40  41
ENDBRANCH  30  38
ENDBRANCH   1  31
TORSDOF 7
ENDMDL
MODEL 9
REMARK VINA RESULT:      -9.4      3.112      6.947
REMARK  Name = Avacopan
REMARK  9 active torsions:
REMARK  status: ('A' for Active; 'I' for Inactive)
REMARK    1  A    between atoms: C_1  and  C_2
REMARK    2  A    between atoms: C_5  and  N_6
REMARK    3  A    between atoms: C_7  and  C_9
REMARK    4  A    between atoms: C_14  and  C_15
REMARK    5  A    between atoms: C_18  and  N_19
REMARK    6  A    between atoms: N_19  and  C_20
REMARK    7  A    between atoms: C_27  and  C_29
REMARK    8  A    between atoms: C_35  and  C_36
REMARK    9  A    between atoms: C_38  and  C_39
REMARK                            x       y       z     vdW  Elec       q    Type
REMARK                         _______ _______ _______ _____ _____    ______ ____
ROOT
ATOM      1  C   UNL     1      -7.559  -0.891 125.955  0.00  0.00    +0.000 C 
ATOM      2  C   UNL     1      -9.145  -1.336 125.954  0.00  0.00    +0.000 C 
ATOM      3  C   UNL     1      -9.775  -0.135 125.345  0.00  0.00    +0.000 C 
ATOM      4  C   UNL     1      -9.616   1.326 125.121  0.00  0.00    +0.000 C 
ATOM      5  N   UNL     1      -8.220   1.635 124.912  0.00  0.00    +0.000 N 
ATOM      6  C   UNL     1      -7.209   0.725 125.577  0.00  0.00    +0.000 C 
ATOM      7  C   UNL     1      -7.994   3.006 124.668  0.00  0.00    +0.000 C 
ATOM      8  O   UNL     1      -8.758   3.850 125.213  0.00  0.00    +0.000 OA
ENDROOT
BRANCH   7   9
ATOM      9  C   UNL     1      -6.992   3.480 123.642  0.00  0.00    +0.000 A 
ATOM     10  C   UNL     1      -7.090   2.983 122.328  0.00  0.00    +0.000 A 
ATOM     11  F   UNL     1      -8.063   2.134 121.956  0.00  0.00    +0.000 F 
ATOM     12  C   UNL     1      -6.155   3.325 121.340  0.00  0.00    +0.000 A 
ATOM     13  C   UNL     1      -5.109   4.194 121.618  0.00  0.00    +0.000 A 
ATOM     14  C   UNL     1      -4.991   4.704 122.888  0.00  0.00    +0.000 A 
ATOM     15  C   UNL     1      -5.880   4.323 123.899  0.00  0.00    +0.000 A 
ATOM     16  C   UNL     1      -5.548   4.973 125.184  0.00  0.00    +0.000 C 
ENDBRANCH   7   9
BRANCH   6  17
ATOM     17  C   UNL     1      -6.311   1.598 126.445  0.00  0.00    +0.000 A 
ATOM     18  C   UNL     1      -6.923   2.203 127.538  0.00  0.00    +0.000 A 
ATOM     19  C   UNL     1      -6.161   2.788 128.550  0.00  0.00    +0.000 A 
ATOM     20  C   UNL     1      -4.767   2.879 128.460  0.00  0.00    +0.000 A 
ATOM     21  C   UNL     1      -4.174   2.359 127.304  0.00  0.00    +0.000 A 
ATOM     22  C   UNL     1      -4.910   1.719 126.315  0.00  0.00    +0.000 A 
BRANCH  20  23
ATOM     23  N   UNL     1      -4.030   3.208 129.593  0.00  0.00    +0.000 N 
ATOM     24  H   UNL     1      -3.906   2.469 130.281  0.00  0.00    +0.000 HD
BRANCH  23  25
ATOM     25  C   UNL     1      -3.678   4.555 130.025  0.00  0.00    +0.000 C 
ATOM     26  C   UNL     1      -2.752   4.634 131.247  0.00  0.00    +0.000 C 
ATOM     27  C   UNL     1      -2.068   5.989 131.107  0.00  0.00    +0.000 C 
ATOM     28  C   UNL     1      -2.100   6.348 129.622  0.00  0.00    +0.000 C 
ATOM     29  C   UNL     1      -2.967   5.322 128.919  0.00  0.00    +0.000 C 
ENDBRANCH  23  25
ENDBRANCH  20  23
ENDBRANCH   6  17
BRANCH   1  31
ATOM     30  N   UNL     1      -7.227  -1.478 128.419  0.00  0.00    +0.000 N 
ATOM     31  C   UNL     1      -6.720  -1.438 127.115  0.00  0.00    +0.000 C 
ATOM     32  O   UNL     1      -5.539  -1.751 126.818  0.00  0.00    +0.000 OA
ATOM     33  H   UNL     1      -8.106  -1.048 128.656  0.00  0.00    +0.000 HD
BRANCH  30  38
ATOM     34  C   UNL     1      -5.588  -4.691 132.872  0.00  0.00    +0.000 C 
ATOM     35  C   UNL     1      -5.924  -3.834 131.701  0.00  0.00    +0.000 A 
ATOM     36  C   UNL     1      -5.421  -4.118 130.442  0.00  0.00    +0.000 A 
ATOM     37  C   UNL     1      -5.941  -3.415 129.346  0.00  0.00    +0.000 A 
ATOM     38  C   UNL     1      -6.776  -2.299 129.480  0.00  0.00    +0.000 A 
ATOM     39  C   UNL     1      -7.176  -1.997 130.738  0.00  0.00    +0.000 A 
ATOM     40  C   UNL     1      -6.833  -2.780 131.827  0.00  0.00    +0.000 A 
BRANCH  40  41
ATOM     41  C   UNL     1      -7.605  -2.391 133.041  0.00  0.00    +0.000 C 
ATOM     42  F   UNL     1      -8.448  -1.356 132.779  0.00  0.00    +0.000 F 
ATOM     43  F   UNL     1      -8.392  -3.423 133.462  0.00  0.00    +0.000 F 
ATOM     44  F   UNL     1      -6.858  -2.027 134.106  0.00  0.00    +0.000 F 
ENDBRANCH  40  41
ENDBRANCH  30  38
ENDBRANCH   1  31
TORSDOF 7
ENDMDL
