MODEL 1
REMARK VINA RESULT:      -8.9      0.000      0.000
REMARK  Name = Avanafil
REMARK  10 active torsions:
REMARK  status: ('A' for Active; 'I' for Inactive)
REMARK    1  A    between atoms: C_1  and  O_2
REMARK    2  A    between atoms: O_2  and  C_3
REMARK    3  A    between atoms: C_7  and  C_8
REMARK    4  A    between atoms: C_8  and  N_9
REMARK    5  A    between atoms: N_9  and  C_10
REMARK    6  A    between atoms: C_11  and  C_23
REMARK    7  A    between atoms: C_20  and  C_21
REMARK    8  A    between atoms: C_21  and  O_22
REMARK    9  A    between atoms: N_25  and  C_26
REMARK   10  A    between atoms: C_26  and  C_27
REMARK                            x       y       z     vdW  Elec       q    Type
REMARK                         _______ _______ _______ _____ _____    ______ ____
ROOT
ATOM      1  C   UNL     1      -7.826   2.162 125.921  0.00  0.00    +0.000 A 
ATOM      2  C   UNL     1      -7.827   2.349 127.288  0.00  0.00    +0.000 A 
ATOM      3  C   UNL     1      -7.887   1.164 127.999  0.00  0.00    +0.000 A 
ATOM      4  N   UNL     1      -8.024  -0.084 127.450  0.00  0.00    +0.000 NA
ATOM      5  C   UNL     1      -8.044  -0.185 126.113  0.00  0.00    +0.000 A 
ATOM      6  N   UNL     1      -7.921   0.921 125.334  0.00  0.00    +0.000 NA
ATOM      7  N   UNL     1      -8.199  -1.426 125.540  0.00  0.00    +0.000 N 
ATOM      8  C   UNL     1      -9.252  -2.365 125.893  0.00  0.00    +0.000 C 
ATOM      9  C   UNL     1      -8.574  -3.731 125.787  0.00  0.00    +0.000 C 
ATOM     10  C   UNL     1      -7.639  -3.557 124.600  0.00  0.00    +0.000 C 
ATOM     11  C   UNL     1      -7.250  -2.048 124.614  0.00  0.00    +0.000 C 
ENDROOT
BRANCH   2  12
ATOM     12  C   UNL     1      -7.811   3.675 128.011  0.00  0.00    +0.000 C 
ATOM     13  O   UNL     1      -7.124   4.575 127.580  0.00  0.00    +0.000 OA
ATOM     14  N   UNL     1      -8.599   3.832 129.154  0.00  0.00    +0.000 N 
ATOM     15  H   UNL     1      -9.150   3.042 129.486  0.00  0.00    +0.000 HD
BRANCH  14  16
ATOM     16  C   UNL     1      -8.920   5.159 129.733  0.00  0.00    +0.000 C 
BRANCH  16  17
ATOM     17  C   UNL     1     -10.124   5.882 129.123  0.00  0.00    +0.000 A 
ATOM     18  N   UNL     1     -11.295   5.672 129.698  0.00  0.00    +0.000 NA
ATOM     19  C   UNL     1     -12.329   6.374 129.198  0.00  0.00    +0.000 A 
ATOM     20  C   UNL     1     -12.363   7.164 128.108  0.00  0.00    +0.000 A 
ATOM     21  C   UNL     1     -11.114   7.375 127.629  0.00  0.00    +0.000 A 
ATOM     22  N   UNL     1      -9.986   6.753 128.095  0.00  0.00    +0.000 NA
ENDBRANCH  16  17
ENDBRANCH  14  16
ENDBRANCH   2  12
BRANCH   1  23
ATOM     23  N   UNL     1      -7.803   3.262 125.038  0.00  0.00    +0.000 N 
ATOM     24  H   UNL     1      -8.646   3.148 124.481  0.00  0.00    +0.000 HD
BRANCH  23  25
ATOM     25  C   UNL     1      -6.619   3.355 124.155  0.00  0.00    +0.000 C 
BRANCH  25  30
ATOM     26  C   UNL     1      -7.760   3.990 119.994  0.00  0.00    +0.000 A 
ATOM     27  C   UNL     1      -6.432   4.214 120.432  0.00  0.00    +0.000 A 
ATOM     28 CL   UNL     1      -5.281   5.239 119.621  0.00  0.00    +0.000 Cl
ATOM     29  C   UNL     1      -6.091   3.940 121.768  0.00  0.00    +0.000 A 
ATOM     30  C   UNL     1      -7.036   3.455 122.695  0.00  0.00    +0.000 A 
ATOM     31  C   UNL     1      -8.358   3.278 122.254  0.00  0.00    +0.000 A 
ATOM     32  C   UNL     1      -8.713   3.518 120.921  0.00  0.00    +0.000 A 
BRANCH  26  34
ATOM     33  C   UNL     1      -9.749   4.359 118.769  0.00  0.00    +0.000 C 
ATOM     34  O   UNL     1      -8.355   4.578 118.895  0.00  0.00    +0.000 OA
ENDBRANCH  26  34
ENDBRANCH  25  30
ENDBRANCH  23  25
ENDBRANCH   1  23
BRANCH  11  35
ATOM     35  C   UNL     1      -7.381  -1.473 123.200  0.00  0.00    +0.000 C 
BRANCH  35  36
ATOM     36  O   UNL     1      -6.592  -0.296 123.036  0.00  0.00    +0.000 OA
ATOM     37  H   UNL     1      -6.360   0.021 123.925  0.00  0.00    +0.000 HD
ENDBRANCH  35  36
ENDBRANCH  11  35
TORSDOF 9
ENDMDL
MODEL 2
REMARK VINA RESULT:      -8.3      2.792      3.729
REMARK  Name = Avanafil
REMARK  10 active torsions:
REMARK  status: ('A' for Active; 'I' for Inactive)
REMARK    1  A    between atoms: C_1  and  O_2
REMARK    2  A    between atoms: O_2  and  C_3
REMARK    3  A    between atoms: C_7  and  C_8
REMARK    4  A    between atoms: C_8  and  N_9
REMARK    5  A    between atoms: N_9  and  C_10
REMARK    6  A    between atoms: C_11  and  C_23
REMARK    7  A    between atoms: C_20  and  C_21
REMARK    8  A    between atoms: C_21  and  O_22
REMARK    9  A    between atoms: N_25  and  C_26
REMARK   10  A    between atoms: C_26  and  C_27
REMARK                            x       y       z     vdW  Elec       q    Type
REMARK                         _______ _______ _______ _____ _____    ______ ____
ROOT
ATOM      1  C   UNL     1      -7.774   2.022 125.369  0.00  0.00    +0.000 A 
ATOM      2  C   UNL     1      -7.256   2.210 126.634  0.00  0.00    +0.000 A 
ATOM      3  C   UNL     1      -7.097   1.031 127.338  0.00  0.00    +0.000 A 
ATOM      4  N   UNL     1      -7.485  -0.210 126.904  0.00  0.00    +0.000 NA
ATOM      5  C   UNL     1      -8.007  -0.311 125.674  0.00  0.00    +0.000 A 
ATOM      6  N   UNL     1      -8.137   0.785 124.885  0.00  0.00    +0.000 NA
ATOM      7  N   UNL     1      -8.420  -1.545 125.225  0.00  0.00    +0.000 N 
ATOM      8  C   UNL     1      -9.305  -2.432 125.964  0.00  0.00    +0.000 C 
ATOM      9  C   UNL     1      -8.777  -3.828 125.638  0.00  0.00    +0.000 C 
ATOM     10  C   UNL     1      -8.346  -3.701 124.184  0.00  0.00    +0.000 C 
ATOM     11  C   UNL     1      -7.915  -2.213 124.023  0.00  0.00    +0.000 C 
ENDROOT
BRANCH   2  12
ATOM     12  C   UNL     1      -6.911   3.535 127.273  0.00  0.00    +0.000 C 
ATOM     13  O   UNL     1      -7.488   4.536 126.907  0.00  0.00    +0.000 OA
ATOM     14  N   UNL     1      -5.944   3.569 128.280  0.00  0.00    +0.000 N 
ATOM     15  H   UNL     1      -5.476   2.703 128.545  0.00  0.00    +0.000 HD
BRANCH  14  16
ATOM     16  C   UNL     1      -5.774   4.724 129.194  0.00  0.00    +0.000 C 
BRANCH  16  17
ATOM     17  C   UNL     1      -4.550   5.607 128.936  0.00  0.00    +0.000 A 
ATOM     18  N   UNL     1      -3.509   5.025 128.366  0.00  0.00    +0.000 NA
ATOM     19  C   UNL     1      -2.472   5.831 128.076  0.00  0.00    +0.000 A 
ATOM     20  C   UNL     1      -2.292   7.125 128.404  0.00  0.00    +0.000 A 
ATOM     21  C   UNL     1      -3.429   7.652 128.918  0.00  0.00    +0.000 A 
ATOM     22  N   UNL     1      -4.559   6.934 129.206  0.00  0.00    +0.000 NA
ENDBRANCH  16  17
ENDBRANCH  14  16
ENDBRANCH   2  12
BRANCH   1  23
ATOM     23  N   UNL     1      -8.035   3.118 124.520  0.00  0.00    +0.000 N 
ATOM     24  H   UNL     1      -8.669   3.701 125.061  0.00  0.00    +0.000 HD
BRANCH  23  25
ATOM     25  C   UNL     1      -8.638   2.790 123.210  0.00  0.00    +0.000 C 
BRANCH  25  30
ATOM     26  C   UNL     1      -6.086   4.517 120.124  0.00  0.00    +0.000 A 
ATOM     27  C   UNL     1      -5.564   4.159 121.391  0.00  0.00    +0.000 A 
ATOM     28 CL   UNL     1      -4.108   4.816 122.084  0.00  0.00    +0.000 Cl
ATOM     29  C   UNL     1      -6.406   3.549 122.338  0.00  0.00    +0.000 A 
ATOM     30  C   UNL     1      -7.765   3.290 122.068  0.00  0.00    +0.000 A 
ATOM     31  C   UNL     1      -8.276   3.689 120.822  0.00  0.00    +0.000 A 
ATOM     32  C   UNL     1      -7.449   4.271 119.854  0.00  0.00    +0.000 A 
BRANCH  26  34
ATOM     33  C   UNL     1      -6.148   5.531 117.989  0.00  0.00    +0.000 C 
ATOM     34  O   UNL     1      -5.552   5.464 119.272  0.00  0.00    +0.000 OA
ENDBRANCH  26  34
ENDBRANCH  25  30
ENDBRANCH  23  25
ENDBRANCH   1  23
BRANCH  11  35
ATOM     35  C   UNL     1      -8.540  -1.634 122.750  0.00  0.00    +0.000 C 
BRANCH  35  36
ATOM     36  O   UNL     1      -9.864  -1.157 122.985  0.00  0.00    +0.000 OA
ATOM     37  H   UNL     1     -10.116  -0.618 122.216  0.00  0.00    +0.000 HD
ENDBRANCH  35  36
ENDBRANCH  11  35
TORSDOF 9
ENDMDL
MODEL 3
REMARK VINA RESULT:      -8.1      3.516      7.979
REMARK  Name = Avanafil
REMARK  10 active torsions:
REMARK  status: ('A' for Active; 'I' for Inactive)
REMARK    1  A    between atoms: C_1  and  O_2
REMARK    2  A    between atoms: O_2  and  C_3
REMARK    3  A    between atoms: C_7  and  C_8
REMARK    4  A    between atoms: C_8  and  N_9
REMARK    5  A    between atoms: N_9  and  C_10
REMARK    6  A    between atoms: C_11  and  C_23
REMARK    7  A    between atoms: C_20  and  C_21
REMARK    8  A    between atoms: C_21  and  O_22
REMARK    9  A    between atoms: N_25  and  C_26
REMARK   10  A    between atoms: C_26  and  C_27
REMARK                            x       y       z     vdW  Elec       q    Type
REMARK                         _______ _______ _______ _____ _____    ______ ____
ROOT
ATOM      1  C   UNL     1      -8.598   4.124 129.200  0.00  0.00    +0.000 A 
ATOM      2  C   UNL     1      -8.956   3.344 130.280  0.00  0.00    +0.000 A 
ATOM      3  C   UNL     1     -10.106   3.782 130.910  0.00  0.00    +0.000 A 
ATOM      4  N   UNL     1     -10.803   4.918 130.589  0.00  0.00    +0.000 NA
ATOM      5  C   UNL     1     -10.379   5.641 129.543  0.00  0.00    +0.000 A 
ATOM      6  N   UNL     1      -9.297   5.248 128.823  0.00  0.00    +0.000 NA
ATOM      7  N   UNL     1     -11.052   6.795 129.214  0.00  0.00    +0.000 N 
ATOM      8  C   UNL     1     -11.372   7.854 130.158  0.00  0.00    +0.000 C 
ATOM      9  C   UNL     1     -12.740   8.355 129.696  0.00  0.00    +0.000 C 
ATOM     10  C   UNL     1     -12.647   8.253 128.180  0.00  0.00    +0.000 C 
ATOM     11  C   UNL     1     -11.680   7.060 127.917  0.00  0.00    +0.000 C 
ENDROOT
BRANCH   2  12
ATOM     12  C   UNL     1      -8.201   2.147 130.811  0.00  0.00    +0.000 C 
ATOM     13  O   UNL     1      -6.990   2.151 130.782  0.00  0.00    +0.000 OA
ATOM     14  N   UNL     1      -8.922   1.071 131.334  0.00  0.00    +0.000 N 
ATOM     15  H   UNL     1      -9.940   1.108 131.325  0.00  0.00    +0.000 HD
BRANCH  14  16
ATOM     16  C   UNL     1      -8.300   0.020 132.175  0.00  0.00    +0.000 C 
BRANCH  16  17
ATOM     17  C   UNL     1      -7.837  -1.239 131.438  0.00  0.00    +0.000 A 
ATOM     18  N   UNL     1      -8.123  -1.311 130.149  0.00  0.00    +0.000 NA
ATOM     19  C   UNL     1      -7.642  -2.386 129.499  0.00  0.00    +0.000 A 
ATOM     20  C   UNL     1      -7.020  -3.468 130.006  0.00  0.00    +0.000 A 
ATOM     21  C   UNL     1      -6.708  -3.277 131.309  0.00  0.00    +0.000 A 
ATOM     22  N   UNL     1      -7.103  -2.197 132.053  0.00  0.00    +0.000 NA
ENDBRANCH  16  17
ENDBRANCH  14  16
ENDBRANCH   2  12
BRANCH   1  23
ATOM     23  N   UNL     1      -7.431   3.845 128.457  0.00  0.00    +0.000 N 
ATOM     24  H   UNL     1      -6.778   4.568 128.747  0.00  0.00    +0.000 HD
BRANCH  23  25
ATOM     25  C   UNL     1      -7.584   3.858 126.986  0.00  0.00    +0.000 C 
BRANCH  25  30
ATOM     26  C   UNL     1      -8.910  -0.025 125.512  0.00  0.00    +0.000 A 
ATOM     27  C   UNL     1      -9.132   1.156 124.765  0.00  0.00    +0.000 A 
ATOM     28 CL   UNL     1     -10.362   1.341 123.545  0.00  0.00    +0.000 Cl
ATOM     29  C   UNL     1      -8.636   2.381 125.246  0.00  0.00    +0.000 A 
ATOM     30  C   UNL     1      -7.928   2.472 126.461  0.00  0.00    +0.000 A 
ATOM     31  C   UNL     1      -7.753   1.297 127.210  0.00  0.00    +0.000 A 
ATOM     32  C   UNL     1      -8.213   0.063 126.736  0.00  0.00    +0.000 A 
BRANCH  26  34
ATOM     33  C   UNL     1      -9.088  -2.319 126.057  0.00  0.00    +0.000 C 
ATOM     34  O   UNL     1      -9.653  -1.186 125.423  0.00  0.00    +0.000 OA
ENDBRANCH  26  34
ENDBRANCH  25  30
ENDBRANCH  23  25
ENDBRANCH   1  23
BRANCH  11  35
ATOM     35  C   UNL     1     -10.646   7.463 126.861  0.00  0.00    +0.000 C 
BRANCH  35  36
ATOM     36  O   UNL     1     -10.194   6.337 126.113  0.00  0.00    +0.000 OA
ATOM     37  H   UNL     1     -10.910   6.090 125.504  0.00  0.00    +0.000 HD
ENDBRANCH  35  36
ENDBRANCH  11  35
TORSDOF 9
ENDMDL
MODEL 4
REMARK VINA RESULT:      -8.1      4.220      9.033
REMARK  Name = Avanafil
REMARK  10 active torsions:
REMARK  status: ('A' for Active; 'I' for Inactive)
REMARK    1  A    between atoms: C_1  and  O_2
REMARK    2  A    between atoms: O_2  and  C_3
REMARK    3  A    between atoms: C_7  and  C_8
REMARK    4  A    between atoms: C_8  and  N_9
REMARK    5  A    between atoms: N_9  and  C_10
REMARK    6  A    between atoms: C_11  and  C_23
REMARK    7  A    between atoms: C_20  and  C_21
REMARK    8  A    between atoms: C_21  and  O_22
REMARK    9  A    between atoms: N_25  and  C_26
REMARK   10  A    between atoms: C_26  and  C_27
REMARK                            x       y       z     vdW  Elec       q    Type
REMARK                         _______ _______ _______ _____ _____    ______ ____
ROOT
ATOM      1  C   UNL     1      -7.420   3.965 128.499  0.00  0.00    +0.000 A 
ATOM      2  C   UNL     1      -7.130   2.942 127.619  0.00  0.00    +0.000 A 
ATOM      3  C   UNL     1      -5.789   2.873 127.290  0.00  0.00    +0.000 A 
ATOM      4  N   UNL     1      -4.825   3.759 127.697  0.00  0.00    +0.000 NA
ATOM      5  C   UNL     1      -5.188   4.744 128.530  0.00  0.00    +0.000 A 
ATOM      6  N   UNL     1      -6.472   4.848 128.960  0.00  0.00    +0.000 NA
ATOM      7  N   UNL     1      -4.241   5.655 128.936  0.00  0.00    +0.000 N 
ATOM      8  C   UNL     1      -3.362   6.381 128.033  0.00  0.00    +0.000 C 
ATOM      9  C   UNL     1      -2.047   6.482 128.806  0.00  0.00    +0.000 C 
ATOM     10  C   UNL     1      -2.509   6.670 130.244  0.00  0.00    +0.000 C 
ATOM     11  C   UNL     1      -3.870   5.916 130.329  0.00  0.00    +0.000 C 
ENDROOT
BRANCH   2  12
ATOM     12  C   UNL     1      -8.121   1.984 127.001  0.00  0.00    +0.000 C 
ATOM     13  O   UNL     1      -9.170   1.769 127.568  0.00  0.00    +0.000 OA
ATOM     14  N   UNL     1      -7.805   1.378 125.782  0.00  0.00    +0.000 N 
ATOM     15  H   UNL     1      -6.905   1.579 125.349  0.00  0.00    +0.000 HD
BRANCH  14  16
ATOM     16  C   UNL     1      -8.817   0.705 124.932  0.00  0.00    +0.000 C 
BRANCH  16  17
ATOM     17  C   UNL     1      -8.645  -0.806 124.759  0.00  0.00    +0.000 A 
ATOM     18  N   UNL     1      -7.793  -1.404 125.574  0.00  0.00    +0.000 NA
ATOM     19  C   UNL     1      -7.711  -2.742 125.460  0.00  0.00    +0.000 A 
ATOM     20  C   UNL     1      -8.280  -3.546 124.542  0.00  0.00    +0.000 A 
ATOM     21  C   UNL     1      -9.183  -2.863 123.800  0.00  0.00    +0.000 A 
ATOM     22  N   UNL     1      -9.384  -1.511 123.869  0.00  0.00    +0.000 NA
ENDBRANCH  16  17
ENDBRANCH  14  16
ENDBRANCH   2  12
BRANCH   1  23
ATOM     23  N   UNL     1      -8.746   4.206 128.919  0.00  0.00    +0.000 N 
ATOM     24  H   UNL     1      -9.210   4.549 128.082  0.00  0.00    +0.000 HD
BRANCH  23  25
ATOM     25  C   UNL     1      -8.905   5.179 130.022  0.00  0.00    +0.000 C 
BRANCH  25  30
ATOM     26  C   UNL     1     -11.964   8.112 128.992  0.00  0.00    +0.000 A 
ATOM     27  C   UNL     1     -11.815   7.644 130.320  0.00  0.00    +0.000 A 
ATOM     28 CL   UNL     1     -13.064   7.692 131.533  0.00  0.00    +0.000 Cl
ATOM     29  C   UNL     1     -10.778   6.744 130.623  0.00  0.00    +0.000 A 
ATOM     30  C   UNL     1      -9.881   6.282 129.639  0.00  0.00    +0.000 A 
ATOM     31  C   UNL     1     -10.069   6.725 128.319  0.00  0.00    +0.000 A 
ATOM     32  C   UNL     1     -11.076   7.643 128.001  0.00  0.00    +0.000 A 
BRANCH  26  34
ATOM     33  C   UNL     1     -13.435   9.956 128.837  0.00  0.00    +0.000 C 
ATOM     34  O   UNL     1     -13.121   8.632 128.446  0.00  0.00    +0.000 OA
ENDBRANCH  26  34
ENDBRANCH  25  30
ENDBRANCH  23  25
ENDBRANCH   1  23
BRANCH  11  35
ATOM     35  C   UNL     1      -4.903   6.803 131.033  0.00  0.00    +0.000 C 
BRANCH  35  36
ATOM     36  O   UNL     1      -5.511   7.720 130.126  0.00  0.00    +0.000 OA
ATOM     37  H   UNL     1      -5.174   7.514 129.238  0.00  0.00    +0.000 HD
ENDBRANCH  35  36
ENDBRANCH  11  35
TORSDOF 9
ENDMDL
MODEL 5
REMARK VINA RESULT:      -7.9      4.154      6.956
REMARK  Name = Avanafil
REMARK  10 active torsions:
REMARK  status: ('A' for Active; 'I' for Inactive)
REMARK    1  A    between atoms: C_1  and  O_2
REMARK    2  A    between atoms: O_2  and  C_3
REMARK    3  A    between atoms: C_7  and  C_8
REMARK    4  A    between atoms: C_8  and  N_9
REMARK    5  A    between atoms: N_9  and  C_10
REMARK    6  A    between atoms: C_11  and  C_23
REMARK    7  A    between atoms: C_20  and  C_21
REMARK    8  A    between atoms: C_21  and  O_22
REMARK    9  A    between atoms: N_25  and  C_26
REMARK   10  A    between atoms: C_26  and  C_27
REMARK                            x       y       z     vdW  Elec       q    Type
REMARK                         _______ _______ _______ _____ _____    ______ ____
ROOT
ATOM      1  C   UNL     1      -7.392   1.130 125.659  0.00  0.00    +0.000 A 
ATOM      2  C   UNL     1      -8.533   1.402 124.933  0.00  0.00    +0.000 A 
ATOM      3  C   UNL     1      -9.534   0.466 125.122  0.00  0.00    +0.000 A 
ATOM      4  N   UNL     1      -9.419  -0.677 125.870  0.00  0.00    +0.000 NA
ATOM      5  C   UNL     1      -8.269  -0.888 126.524  0.00  0.00    +0.000 A 
ATOM      6  N   UNL     1      -7.256   0.013 126.452  0.00  0.00    +0.000 NA
ATOM      7  N   UNL     1      -8.126  -2.038 127.266  0.00  0.00    +0.000 N 
ATOM      8  C   UNL     1      -8.395  -3.376 126.763  0.00  0.00    +0.000 C 
ATOM      9  C   UNL     1      -8.984  -4.108 127.969  0.00  0.00    +0.000 C 
ATOM     10  C   UNL     1      -8.195  -3.533 129.137  0.00  0.00    +0.000 C 
ATOM     11  C   UNL     1      -7.835  -2.081 128.701  0.00  0.00    +0.000 C 
ENDROOT
BRANCH   2  12
ATOM     12  C   UNL     1      -8.735   2.555 123.978  0.00  0.00    +0.000 C 
ATOM     13  O   UNL     1      -8.750   3.686 124.411  0.00  0.00    +0.000 OA
ATOM     14  N   UNL     1      -8.885   2.285 122.615  0.00  0.00    +0.000 N 
ATOM     15  H   UNL     1      -8.879   1.316 122.300  0.00  0.00    +0.000 HD
BRANCH  14  16
ATOM     16  C   UNL     1      -8.748   3.328 121.569  0.00  0.00    +0.000 C 
BRANCH  16  17
ATOM     17  C   UNL     1      -7.319   3.771 121.251  0.00  0.00    +0.000 A 
ATOM     18  N   UNL     1      -7.098   4.230 120.030  0.00  0.00    +0.000 NA
ATOM     19  C   UNL     1      -5.856   4.688 119.790  0.00  0.00    +0.000 A 
ATOM     20  C   UNL     1      -4.767   4.624 120.580  0.00  0.00    +0.000 A 
ATOM     21  C   UNL     1      -5.101   4.209 121.825  0.00  0.00    +0.000 A 
ATOM     22  N   UNL     1      -6.345   3.769 122.191  0.00  0.00    +0.000 NA
ENDBRANCH  16  17
ENDBRANCH  14  16
ENDBRANCH   2  12
BRANCH   1  23
ATOM     23  N   UNL     1      -6.255   1.961 125.563  0.00  0.00    +0.000 N 
ATOM     24  H   UNL     1      -6.200   2.186 124.573  0.00  0.00    +0.000 HD
BRANCH  23  25
ATOM     25  C   UNL     1      -4.981   1.365 126.021  0.00  0.00    +0.000 C 
BRANCH  25  30
ATOM     26  C   UNL     1      -3.012   4.400 128.456  0.00  0.00    +0.000 A 
ATOM     27  C   UNL     1      -4.270   3.866 128.826  0.00  0.00    +0.000 A 
ATOM     28 CL   UNL     1      -5.412   4.658 129.875  0.00  0.00    +0.000 Cl
ATOM     29  C   UNL     1      -4.844   2.846 128.047  0.00  0.00    +0.000 A 
ATOM     30  C   UNL     1      -4.207   2.340 126.896  0.00  0.00    +0.000 A 
ATOM     31  C   UNL     1      -2.979   2.910 126.520  0.00  0.00    +0.000 A 
ATOM     32  C   UNL     1      -2.376   3.906 127.297  0.00  0.00    +0.000 A 
BRANCH  26  34
ATOM     33  C   UNL     1      -2.994   6.732 128.069  0.00  0.00    +0.000 C 
ATOM     34  O   UNL     1      -2.520   5.635 128.829  0.00  0.00    +0.000 OA
ENDBRANCH  26  34
ENDBRANCH  25  30
ENDBRANCH  23  25
ENDBRANCH   1  23
BRANCH  11  35
ATOM     35  C   UNL     1      -6.354  -1.813 128.987  0.00  0.00    +0.000 C 
BRANCH  35  36
ATOM     36  O   UNL     1      -5.703  -2.970 129.508  0.00  0.00    +0.000 OA
ATOM     37  H   UNL     1      -6.334  -3.707 129.449  0.00  0.00    +0.000 HD
ENDBRANCH  35  36
ENDBRANCH  11  35
TORSDOF 9
ENDMDL
MODEL 6
REMARK VINA RESULT:      -7.9      2.827      7.948
REMARK  Name = Avanafil
REMARK  10 active torsions:
REMARK  status: ('A' for Active; 'I' for Inactive)
REMARK    1  A    between atoms: C_1  and  O_2
REMARK    2  A    between atoms: O_2  and  C_3
REMARK    3  A    between atoms: C_7  and  C_8
REMARK    4  A    between atoms: C_8  and  N_9
REMARK    5  A    between atoms: N_9  and  C_10
REMARK    6  A    between atoms: C_11  and  C_23
REMARK    7  A    between atoms: C_20  and  C_21
REMARK    8  A    between atoms: C_21  and  O_22
REMARK    9  A    between atoms: N_25  and  C_26
REMARK   10  A    between atoms: C_26  and  C_27
REMARK                            x       y       z     vdW  Elec       q    Type
REMARK                         _______ _______ _______ _____ _____    ______ ____
ROOT
ATOM      1  C   UNL     1      -7.937   2.689 127.676  0.00  0.00    +0.000 A 
ATOM      2  C   UNL     1      -7.665   3.508 126.599  0.00  0.00    +0.000 A 
ATOM      3  C   UNL     1      -8.014   4.828 126.818  0.00  0.00    +0.000 A 
ATOM      4  N   UNL     1      -8.651   5.305 127.934  0.00  0.00    +0.000 NA
ATOM      5  C   UNL     1      -8.908   4.443 128.928  0.00  0.00    +0.000 A 
ATOM      6  N   UNL     1      -8.538   3.141 128.828  0.00  0.00    +0.000 NA
ATOM      7  N   UNL     1      -9.562   4.896 130.050  0.00  0.00    +0.000 N 
ATOM      8  C   UNL     1     -10.805   5.653 130.025  0.00  0.00    +0.000 C 
ATOM      9  C   UNL     1     -10.657   6.637 131.184  0.00  0.00    +0.000 C 
ATOM     10  C   UNL     1      -9.912   5.822 132.232  0.00  0.00    +0.000 C 
ATOM     11  C   UNL     1      -9.036   4.825 131.415  0.00  0.00    +0.000 C 
ENDROOT
BRANCH   2  12
ATOM     12  C   UNL     1      -7.087   3.080 125.270  0.00  0.00    +0.000 C 
ATOM     13  O   UNL     1      -5.984   2.579 125.239  0.00  0.00    +0.000 OA
ATOM     14  N   UNL     1      -7.846   3.262 124.112  0.00  0.00    +0.000 N 
ATOM     15  H   UNL     1      -8.763   3.700 124.187  0.00  0.00    +0.000 HD
BRANCH  14  16
ATOM     16  C   UNL     1      -7.534   2.585 122.831  0.00  0.00    +0.000 C 
BRANCH  16  17
ATOM     17  C   UNL     1      -6.855   3.449 121.765  0.00  0.00    +0.000 A 
ATOM     18  N   UNL     1      -5.622   3.848 122.024  0.00  0.00    +0.000 NA
ATOM     19  C   UNL     1      -5.011   4.542 121.045  0.00  0.00    +0.000 A 
ATOM     20  C   UNL     1      -5.528   4.999 119.889  0.00  0.00    +0.000 A 
ATOM     21  C   UNL     1      -6.763   4.486 119.678  0.00  0.00    +0.000 A 
ATOM     22  N   UNL     1      -7.455   3.727 120.584  0.00  0.00    +0.000 NA
ENDBRANCH  16  17
ENDBRANCH  14  16
ENDBRANCH   2  12
BRANCH   1  23
ATOM     23  N   UNL     1      -7.676   1.303 127.617  0.00  0.00    +0.000 N 
ATOM     24  H   UNL     1      -6.764   1.244 127.173  0.00  0.00    +0.000 HD
BRANCH  23  25
ATOM     25  C   UNL     1      -8.661   0.493 126.867  0.00  0.00    +0.000 C 
BRANCH  25  30
ATOM     26  C   UNL     1      -6.847  -2.630 124.423  0.00  0.00    +0.000 A 
ATOM     27  C   UNL     1      -8.222  -2.315 124.307  0.00  0.00    +0.000 A 
ATOM     28 CL   UNL     1      -9.436  -3.393 123.674  0.00  0.00    +0.000 Cl
ATOM     29  C   UNL     1      -8.756  -1.261 125.069  0.00  0.00    +0.000 A 
ATOM     30  C   UNL     1      -7.963  -0.508 125.958  0.00  0.00    +0.000 A 
ATOM     31  C   UNL     1      -6.610  -0.861 126.092  0.00  0.00    +0.000 A 
ATOM     32  C   UNL     1      -6.051  -1.888 125.322  0.00  0.00    +0.000 A 
BRANCH  26  34
ATOM     33  C   UNL     1      -4.903  -3.782 123.729  0.00  0.00    +0.000 C 
ATOM     34  O   UNL     1      -6.268  -3.841 124.099  0.00  0.00    +0.000 OA
ENDBRANCH  26  34
ENDBRANCH  25  30
ENDBRANCH  23  25
ENDBRANCH   1  23
BRANCH  11  35
ATOM     35  C   UNL     1      -9.179   3.418 132.004  0.00  0.00    +0.000 C 
BRANCH  35  36
ATOM     36  O   UNL     1     -10.372   2.780 131.553  0.00  0.00    +0.000 OA
ATOM     37  H   UNL     1     -11.086   3.044 132.158  0.00  0.00    +0.000 HD
ENDBRANCH  35  36
ENDBRANCH  11  35
TORSDOF 9
ENDMDL
MODEL 7
REMARK VINA RESULT:      -7.9      3.850      8.838
REMARK  Name = Avanafil
REMARK  10 active torsions:
REMARK  status: ('A' for Active; 'I' for Inactive)
REMARK    1  A    between atoms: C_1  and  O_2
REMARK    2  A    between atoms: O_2  and  C_3
REMARK    3  A    between atoms: C_7  and  C_8
REMARK    4  A    between atoms: C_8  and  N_9
REMARK    5  A    between atoms: N_9  and  C_10
REMARK    6  A    between atoms: C_11  and  C_23
REMARK    7  A    between atoms: C_20  and  C_21
REMARK    8  A    between atoms: C_21  and  O_22
REMARK    9  A    between atoms: N_25  and  C_26
REMARK   10  A    between atoms: C_26  and  C_27
REMARK                            x       y       z     vdW  Elec       q    Type
REMARK                         _______ _______ _______ _____ _____    ______ ____
ROOT
ATOM      1  C   UNL     1      -6.960   4.112 127.827  0.00  0.00    +0.000 A 
ATOM      2  C   UNL     1      -6.852   4.190 126.454  0.00  0.00    +0.000 A 
ATOM      3  C   UNL     1      -5.645   4.719 126.033  0.00  0.00    +0.000 A 
ATOM      4  N   UNL     1      -4.666   5.213 126.855  0.00  0.00    +0.000 NA
ATOM      5  C   UNL     1      -4.855   5.129 128.179  0.00  0.00    +0.000 A 
ATOM      6  N   UNL     1      -5.980   4.561 128.683  0.00  0.00    +0.000 NA
ATOM      7  N   UNL     1      -3.893   5.634 129.022  0.00  0.00    +0.000 N 
ATOM      8  C   UNL     1      -3.334   6.973 128.918  0.00  0.00    +0.000 C 
ATOM      9  C   UNL     1      -1.870   6.790 129.316  0.00  0.00    +0.000 C 
ATOM     10  C   UNL     1      -1.942   5.734 130.409  0.00  0.00    +0.000 C 
ATOM     11  C   UNL     1      -3.181   4.862 130.043  0.00  0.00    +0.000 C 
ENDROOT
BRANCH   2  12
ATOM     12  C   UNL     1      -7.909   3.800 125.448  0.00  0.00    +0.000 C 
ATOM     13  O   UNL     1      -9.001   4.321 125.505  0.00  0.00    +0.000 OA
ATOM     14  N   UNL     1      -7.594   2.856 124.467  0.00  0.00    +0.000 N 
ATOM     15  H   UNL     1      -6.666   2.435 124.467  0.00  0.00    +0.000 HD
BRANCH  14  16
ATOM     16  C   UNL     1      -8.417   2.655 123.250  0.00  0.00    +0.000 C 
BRANCH  16  17
ATOM     17  C   UNL     1      -7.864   3.266 121.960  0.00  0.00    +0.000 A 
ATOM     18  N   UNL     1      -6.549   3.361 121.865  0.00  0.00    +0.000 NA
ATOM     19  C   UNL     1      -6.076   3.828 120.695  0.00  0.00    +0.000 A 
ATOM     20  C   UNL     1      -6.761   4.338 119.653  0.00  0.00    +0.000 A 
ATOM     21  C   UNL     1      -8.091   4.136 119.808  0.00  0.00    +0.000 A 
ATOM     22  N   UNL     1      -8.674   3.621 120.935  0.00  0.00    +0.000 NA
ENDBRANCH  16  17
ENDBRANCH  14  16
ENDBRANCH   2  12
BRANCH   1  23
ATOM     23  N   UNL     1      -8.138   3.628 128.436  0.00  0.00    +0.000 N 
ATOM     24  H   UNL     1      -8.868   3.843 127.762  0.00  0.00    +0.000 HD
BRANCH  23  25
ATOM     25  C   UNL     1      -8.471   4.216 129.752  0.00  0.00    +0.000 C 
BRANCH  25  30
ATOM     26  C   UNL     1     -12.004   6.771 129.687  0.00  0.00    +0.000 A 
ATOM     27  C   UNL     1     -10.886   7.046 128.864  0.00  0.00    +0.000 A 
ATOM     28 CL   UNL     1     -10.511   8.609 128.193  0.00  0.00    +0.000 Cl
ATOM     29  C   UNL     1      -9.790   6.164 128.870  0.00  0.00    +0.000 A 
ATOM     30  C   UNL     1      -9.766   5.012 129.681  0.00  0.00    +0.000 A 
ATOM     31  C   UNL     1     -10.866   4.776 130.521  0.00  0.00    +0.000 A 
ATOM     32  C   UNL     1     -11.979   5.625 130.510  0.00  0.00    +0.000 A 
BRANCH  26  34
ATOM     33  C   UNL     1     -12.977   7.911 131.515  0.00  0.00    +0.000 C 
ATOM     34  O   UNL     1     -12.936   7.696 130.116  0.00  0.00    +0.000 OA
ENDBRANCH  26  34
ENDBRANCH  25  30
ENDBRANCH  23  25
ENDBRANCH   1  23
BRANCH  11  35
ATOM     35  C   UNL     1      -4.041   4.646 131.292  0.00  0.00    +0.000 C 
BRANCH  35  36
ATOM     36  O   UNL     1      -4.072   5.810 132.115  0.00  0.00    +0.000 OA
ATOM     37  H   UNL     1      -3.443   6.447 131.737  0.00  0.00    +0.000 HD
ENDBRANCH  35  36
ENDBRANCH  11  35
TORSDOF 9
ENDMDL
MODEL 8
REMARK VINA RESULT:      -7.8      3.779      4.844
REMARK  Name = Avanafil
REMARK  10 active torsions:
REMARK  status: ('A' for Active; 'I' for Inactive)
REMARK    1  A    between atoms: C_1  and  O_2
REMARK    2  A    between atoms: O_2  and  C_3
REMARK    3  A    between atoms: C_7  and  C_8
REMARK    4  A    between atoms: C_8  and  N_9
REMARK    5  A    between atoms: N_9  and  C_10
REMARK    6  A    between atoms: C_11  and  C_23
REMARK    7  A    between atoms: C_20  and  C_21
REMARK    8  A    between atoms: C_21  and  O_22
REMARK    9  A    between atoms: N_25  and  C_26
REMARK   10  A    between atoms: C_26  and  C_27
REMARK                            x       y       z     vdW  Elec       q    Type
REMARK                         _______ _______ _______ _____ _____    ______ ____
ROOT
ATOM      1  C   UNL     1      -8.091   1.232 128.594  0.00  0.00    +0.000 A 
ATOM      2  C   UNL     1      -8.586   1.870 129.713  0.00  0.00    +0.000 A 
ATOM      3  C   UNL     1      -8.350   1.175 130.885  0.00  0.00    +0.000 A 
ATOM      4  N   UNL     1      -7.770  -0.065 130.968  0.00  0.00    +0.000 NA
ATOM      5  C   UNL     1      -7.338  -0.635 129.834  0.00  0.00    +0.000 A 
ATOM      6  N   UNL     1      -7.467   0.007 128.645  0.00  0.00    +0.000 NA
ATOM      7  N   UNL     1      -6.770  -1.886 129.892  0.00  0.00    +0.000 N 
ATOM      8  C   UNL     1      -7.376  -3.031 130.553  0.00  0.00    +0.000 C 
ATOM      9  C   UNL     1      -6.186  -3.782 131.148  0.00  0.00    +0.000 C 
ATOM     10  C   UNL     1      -5.101  -3.593 130.098  0.00  0.00    +0.000 C 
ATOM     11  C   UNL     1      -5.415  -2.214 129.442  0.00  0.00    +0.000 C 
ENDROOT
BRANCH   2  12
ATOM     12  C   UNL     1      -9.355   3.171 129.737  0.00  0.00    +0.000 C 
ATOM     13  O   UNL     1     -10.534   3.156 130.014  0.00  0.00    +0.000 OA
ATOM     14  N   UNL     1      -8.680   4.360 129.451  0.00  0.00    +0.000 N 
ATOM     15  H   UNL     1      -7.691   4.321 129.210  0.00  0.00    +0.000 HD
BRANCH  14  16
ATOM     16  C   UNL     1      -9.236   5.697 129.773  0.00  0.00    +0.000 C 
BRANCH  16  17
ATOM     17  C   UNL     1     -10.238   6.265 128.765  0.00  0.00    +0.000 A 
ATOM     18  N   UNL     1     -11.496   6.348 129.163  0.00  0.00    +0.000 NA
ATOM     19  C   UNL     1     -12.351   6.920 128.295  0.00  0.00    +0.000 A 
ATOM     20  C   UNL     1     -12.129   7.302 127.022  0.00  0.00    +0.000 A 
ATOM     21  C   UNL     1     -10.809   7.246 126.727  0.00  0.00    +0.000 A 
ATOM     22  N   UNL     1      -9.848   6.730 127.555  0.00  0.00    +0.000 NA
ENDBRANCH  16  17
ENDBRANCH  14  16
ENDBRANCH   2  12
BRANCH   1  23
ATOM     23  N   UNL     1      -8.271   1.782 127.307  0.00  0.00    +0.000 N 
ATOM     24  H   UNL     1      -8.601   2.726 127.487  0.00  0.00    +0.000 HD
BRANCH  23  25
ATOM     25  C   UNL     1      -9.225   1.068 126.429  0.00  0.00    +0.000 C 
BRANCH  25  30
ATOM     26  C   UNL     1      -7.112  -1.500 123.609  0.00  0.00    +0.000 A 
ATOM     27  C   UNL     1      -8.437  -1.791 124.013  0.00  0.00    +0.000 A 
ATOM     28 CL   UNL     1      -9.173  -3.367 123.936  0.00  0.00    +0.000 Cl
ATOM     29  C   UNL     1      -9.106  -0.905 124.878  0.00  0.00    +0.000 A 
ATOM     30  C   UNL     1      -8.491   0.266 125.365  0.00  0.00    +0.000 A 
ATOM     31  C   UNL     1      -7.162   0.517 124.986  0.00  0.00    +0.000 A 
ATOM     32  C   UNL     1      -6.488  -0.335 124.104  0.00  0.00    +0.000 A 
BRANCH  26  34
ATOM     33  C   UNL     1      -5.463  -3.111 124.133  0.00  0.00    +0.000 C 
ATOM     34  O   UNL     1      -6.194  -2.418 123.138  0.00  0.00    +0.000 OA
ENDBRANCH  26  34
ENDBRANCH  25  30
ENDBRANCH  23  25
ENDBRANCH   1  23
BRANCH  11  35
ATOM     35  C   UNL     1      -5.342  -2.345 127.917  0.00  0.00    +0.000 C 
BRANCH  35  36
ATOM     36  O   UNL     1      -5.027  -1.099 127.298  0.00  0.00    +0.000 OA
ATOM     37  H   UNL     1      -5.634  -0.990 126.546  0.00  0.00    +0.000 HD
ENDBRANCH  35  36
ENDBRANCH  11  35
TORSDOF 9
ENDMDL
MODEL 9
REMARK VINA RESULT:      -7.8      3.520      7.703
REMARK  Name = Avanafil
REMARK  10 active torsions:
REMARK  status: ('A' for Active; 'I' for Inactive)
REMARK    1  A    between atoms: C_1  and  O_2
REMARK    2  A    between atoms: O_2  and  C_3
REMARK    3  A    between atoms: C_7  and  C_8
REMARK    4  A    between atoms: C_8  and  N_9
REMARK    5  A    between atoms: N_9  and  C_10
REMARK    6  A    between atoms: C_11  and  C_23
REMARK    7  A    between atoms: C_20  and  C_21
REMARK    8  A    between atoms: C_21  and  O_22
REMARK    9  A    between atoms: N_25  and  C_26
REMARK   10  A    between atoms: C_26  and  C_27
REMARK                            x       y       z     vdW  Elec       q    Type
REMARK                         _______ _______ _______ _____ _____    ______ ____
ROOT
ATOM      1  C   UNL     1      -6.781   3.577 127.649  0.00  0.00    +0.000 A 
ATOM      2  C   UNL     1      -6.616   4.043 126.361  0.00  0.00    +0.000 A 
ATOM      3  C   UNL     1      -5.534   4.893 126.225  0.00  0.00    +0.000 A 
ATOM      4  N   UNL     1      -4.735   5.330 127.249  0.00  0.00    +0.000 NA
ATOM      5  C   UNL     1      -4.974   4.856 128.480  0.00  0.00    +0.000 A 
ATOM      6  N   UNL     1      -5.974   3.962 128.695  0.00  0.00    +0.000 NA
ATOM      7  N   UNL     1      -4.196   5.294 129.525  0.00  0.00    +0.000 N 
ATOM      8  C   UNL     1      -3.940   6.695 129.825  0.00  0.00    +0.000 C 
ATOM      9  C   UNL     1      -2.496   6.703 130.325  0.00  0.00    +0.000 C 
ATOM     10  C   UNL     1      -2.395   5.399 131.102  0.00  0.00    +0.000 C 
ATOM     11  C   UNL     1      -3.389   4.432 130.392  0.00  0.00    +0.000 C 
ENDROOT
BRANCH   2  12
ATOM     12  C   UNL     1      -7.504   3.738 125.177  0.00  0.00    +0.000 C 
ATOM     13  O   UNL     1      -8.639   4.161 125.164  0.00  0.00    +0.000 OA
ATOM     14  N   UNL     1      -6.987   2.986 124.120  0.00  0.00    +0.000 N 
ATOM     15  H   UNL     1      -6.030   2.640 124.181  0.00  0.00    +0.000 HD
BRANCH  14  16
ATOM     16  C   UNL     1      -7.635   2.918 122.788  0.00  0.00    +0.000 C 
BRANCH  16  17
ATOM     17  C   UNL     1      -6.929   3.676 121.661  0.00  0.00    +0.000 A 
ATOM     18  N   UNL     1      -5.701   4.097 121.908  0.00  0.00    +0.000 NA
ATOM     19  C   UNL     1      -5.066   4.692 120.882  0.00  0.00    +0.000 A 
ATOM     20  C   UNL     1      -5.554   5.037 119.675  0.00  0.00    +0.000 A 
ATOM     21  C   UNL     1      -6.786   4.507 119.486  0.00  0.00    +0.000 A 
ATOM     22  N   UNL     1      -7.501   3.840 120.444  0.00  0.00    +0.000 NA
ENDBRANCH  16  17
ENDBRANCH  14  16
ENDBRANCH   2  12
BRANCH   1  23
ATOM     23  N   UNL     1      -7.856   2.724 127.981  0.00  0.00    +0.000 N 
ATOM     24  H   UNL     1      -8.144   3.040 128.903  0.00  0.00    +0.000 HD
BRANCH  23  25
ATOM     25  C   UNL     1      -7.544   1.278 128.014  0.00  0.00    +0.000 C 
BRANCH  25  30
ATOM     26  C   UNL     1      -8.788  -0.541 124.251  0.00  0.00    +0.000 A 
ATOM     27  C   UNL     1      -7.512  -0.805 124.806  0.00  0.00    +0.000 A 
ATOM     28 CL   UNL     1      -6.134  -1.364 123.900  0.00  0.00    +0.000 Cl
ATOM     29  C   UNL     1      -7.172  -0.247 126.051  0.00  0.00    +0.000 A 
ATOM     30  C   UNL     1      -8.062   0.580 126.765  0.00  0.00    +0.000 A 
ATOM     31  C   UNL     1      -9.307   0.865 126.181  0.00  0.00    +0.000 A 
ATOM     32  C   UNL     1      -9.678   0.297 124.956  0.00  0.00    +0.000 A 
BRANCH  26  34
ATOM     33  C   UNL     1     -10.153   0.225 122.479  0.00  0.00    +0.000 C 
ATOM     34  O   UNL     1      -9.121  -0.642 122.915  0.00  0.00    +0.000 OA
ENDBRANCH  26  34
ENDBRANCH  25  30
ENDBRANCH  23  25
ENDBRANCH   1  23
BRANCH  11  35
ATOM     35  C   UNL     1      -4.249   3.721 131.441  0.00  0.00    +0.000 C 
BRANCH  35  36
ATOM     36  O   UNL     1      -4.092   4.306 132.732  0.00  0.00    +0.000 OA
ATOM     37  H   UNL     1      -4.294   5.253 132.646  0.00  0.00    +0.000 HD
ENDBRANCH  35  36
ENDBRANCH  11  35
TORSDOF 9
ENDMDL
