MODEL 1
REMARK VINA RESULT:      -9.4      0.000      0.000
REMARK  Name = Avapritinib
REMARK  6 active torsions:
REMARK  status: ('A' for Active; 'I' for Inactive)
REMARK    1  A    between atoms: C_1  and  N_2
REMARK    2  A    between atoms: C_4  and  C_7
REMARK    3  A    between atoms: C_23  and  C_26
REMARK    4  A    between atoms: C_26  and  C_27
REMARK    5  A    between atoms: C_26  and  N_28
REMARK    6  A    between atoms: C_26  and  C_29
REMARK                            x       y       z     vdW  Elec       q    Type
REMARK                         _______ _______ _______ _____ _____    ______ ____
ROOT
ATOM      1  C   UNL     1     -11.854   6.935 129.735  0.00  0.00    +0.000 A 
ATOM      2  C   UNL     1     -12.372   5.657 129.727  0.00  0.00    +0.000 A 
ATOM      3  N   UNL     1     -11.366   4.791 130.081  0.00  0.00    +0.000 N 
ATOM      4  N   UNL     1     -11.476   3.458 130.167  0.00  0.00    +0.000 NA
ATOM      5  C   UNL     1     -10.364   2.868 130.498  0.00  0.00    +0.000 A 
ATOM      6  N   UNL     1      -9.145   3.456 130.744  0.00  0.00    +0.000 NA
ATOM      7  C   UNL     1      -9.040   4.760 130.718  0.00  0.00    +0.000 A 
ATOM      8  N   UNL     1      -7.843   5.367 131.062  0.00  0.00    +0.000 N 
ATOM      9  C   UNL     1      -7.750   6.396 132.113  0.00  0.00    +0.000 C 
ATOM     10  C   UNL     1      -6.633   6.038 133.131  0.00  0.00    +0.000 C 
ATOM     11  N   UNL     1      -5.386   5.836 132.404  0.00  0.00    +0.000 N 
ATOM     12  C   UNL     1      -5.413   4.834 131.349  0.00  0.00    +0.000 C 
ATOM     13  C   UNL     1      -6.564   5.138 130.357  0.00  0.00    +0.000 C 
ATOM     14  C   UNL     1      -4.264   6.527 132.752  0.00  0.00    +0.000 A 
ATOM     15  N   UNL     1      -3.922   6.544 134.043  0.00  0.00    +0.000 NA
ATOM     16  C   UNL     1      -2.851   7.289 134.397  0.00  0.00    +0.000 A 
ATOM     17  C   UNL     1      -2.091   8.059 133.538  0.00  0.00    +0.000 A 
ATOM     18  C   UNL     1      -2.556   7.992 132.239  0.00  0.00    +0.000 A 
ATOM     19  N   UNL     1      -3.595   7.220 131.818  0.00  0.00    +0.000 NA
ATOM     20  C   UNL     1     -10.223   5.490 130.341  0.00  0.00    +0.000 A 
ATOM     21  C   UNL     1     -10.491   6.831 130.120  0.00  0.00    +0.000 A 
ENDROOT
BRANCH   1  25
ATOM     22  C   UNL     1     -13.847  11.513 129.803  0.00  0.00    +0.000 C 
ATOM     23  N   UNL     1     -13.404  10.193 129.416  0.00  0.00    +0.000 N 
ATOM     24  C   UNL     1     -12.610   9.344 130.137  0.00  0.00    +0.000 A 
ATOM     25  C   UNL     1     -12.540   8.178 129.409  0.00  0.00    +0.000 A 
ATOM     26  C   UNL     1     -13.301   8.435 128.252  0.00  0.00    +0.000 A 
ATOM     27  N   UNL     1     -13.833   9.665 128.254  0.00  0.00    +0.000 NA
ENDBRANCH   1  25
BRANCH  17  28
ATOM     28  C   UNL     1      -0.877   8.891 133.965  0.00  0.00    +0.000 C 
ATOM     29  C   UNL     1      -0.585   8.710 135.476  0.00  0.00    +0.000 C 
BRANCH  28  30
ATOM     30  C   UNL     1      -1.079  10.409 133.711  0.00  0.00    +0.000 A 
ATOM     31  C   UNL     1      -2.263  11.046 134.152  0.00  0.00    +0.000 A 
ATOM     32  C   UNL     1      -2.550  12.362 133.794  0.00  0.00    +0.000 A 
ATOM     33  C   UNL     1      -1.627  13.083 133.051  0.00  0.00    +0.000 A 
ATOM     34  F   UNL     1      -1.903  14.346 132.703  0.00  0.00    +0.000 F 
ATOM     35  C   UNL     1      -0.430  12.508 132.647  0.00  0.00    +0.000 A 
ATOM     36  C   UNL     1      -0.163  11.175 132.962  0.00  0.00    +0.000 A 
ENDBRANCH  28  30
BRANCH  28  37
ATOM     37  N   UNL     1       0.322   8.408 133.245  0.00  0.00    +0.000 NA
ATOM     38  H   UNL     1       0.343   7.392 133.223  0.00  0.00    +0.000 HD
ATOM     39  H   UNL     1       1.155   8.681 133.768  0.00  0.00    +0.000 HD
ENDBRANCH  28  37
ENDBRANCH  17  28
TORSDOF 4
ENDMDL
MODEL 2
REMARK VINA RESULT:      -9.1      6.263     11.017
REMARK  Name = Avapritinib
REMARK  6 active torsions:
REMARK  status: ('A' for Active; 'I' for Inactive)
REMARK    1  A    between atoms: C_1  and  N_2
REMARK    2  A    between atoms: C_4  and  C_7
REMARK    3  A    between atoms: C_23  and  C_26
REMARK    4  A    between atoms: C_26  and  C_27
REMARK    5  A    between atoms: C_26  and  N_28
REMARK    6  A    between atoms: C_26  and  C_29
REMARK                            x       y       z     vdW  Elec       q    Type
REMARK                         _______ _______ _______ _____ _____    ______ ____
ROOT
ATOM      1  C   UNL     1      -4.631   6.325 134.492  0.00  0.00    +0.000 A 
ATOM      2  C   UNL     1      -3.395   6.897 134.708  0.00  0.00    +0.000 A 
ATOM      3  N   UNL     1      -2.643   6.722 133.571  0.00  0.00    +0.000 N 
ATOM      4  N   UNL     1      -1.377   7.125 133.402  0.00  0.00    +0.000 NA
ATOM      5  C   UNL     1      -0.886   6.810 132.238  0.00  0.00    +0.000 A 
ATOM      6  N   UNL     1      -1.512   6.128 131.222  0.00  0.00    +0.000 NA
ATOM      7  C   UNL     1      -2.767   5.779 131.355  0.00  0.00    +0.000 A 
ATOM      8  N   UNL     1      -3.436   5.181 130.299  0.00  0.00    +0.000 N 
ATOM      9  C   UNL     1      -4.698   5.716 129.758  0.00  0.00    +0.000 C 
ATOM     10  C   UNL     1      -4.606   5.875 128.215  0.00  0.00    +0.000 C 
ATOM     11  N   UNL     1      -4.221   4.594 127.636  0.00  0.00    +0.000 N 
ATOM     12  C   UNL     1      -2.984   4.010 128.133  0.00  0.00    +0.000 C 
ATOM     13  C   UNL     1      -3.031   3.902 129.678  0.00  0.00    +0.000 C 
ATOM     14  C   UNL     1      -4.974   4.027 126.650  0.00  0.00    +0.000 A 
ATOM     15  N   UNL     1      -5.317   4.796 125.614  0.00  0.00    +0.000 NA
ATOM     16  C   UNL     1      -6.123   4.255 124.674  0.00  0.00    +0.000 A 
ATOM     17  C   UNL     1      -6.647   2.977 124.706  0.00  0.00    +0.000 A 
ATOM     18  C   UNL     1      -6.254   2.288 125.837  0.00  0.00    +0.000 A 
ATOM     19  N   UNL     1      -5.405   2.764 126.788  0.00  0.00    +0.000 NA
ATOM     20  C   UNL     1      -3.382   6.074 132.624  0.00  0.00    +0.000 A 
ATOM     21  C   UNL     1      -4.623   5.799 133.172  0.00  0.00    +0.000 A 
ENDROOT
BRANCH   1  25
ATOM     22  C   UNL     1      -7.611   6.506 138.494  0.00  0.00    +0.000 C 
ATOM     23  N   UNL     1      -7.079   6.341 137.161  0.00  0.00    +0.000 N 
ATOM     24  C   UNL     1      -5.828   6.679 136.723  0.00  0.00    +0.000 A 
ATOM     25  C   UNL     1      -5.753   6.249 135.417  0.00  0.00    +0.000 A 
ATOM     26  C   UNL     1      -7.019   5.690 135.154  0.00  0.00    +0.000 A 
ATOM     27  N   UNL     1      -7.832   5.742 136.218  0.00  0.00    +0.000 NA
ENDBRANCH   1  25
BRANCH  17  28
ATOM     28  C   UNL     1      -7.556   2.385 123.623  0.00  0.00    +0.000 C 
ATOM     29  C   UNL     1      -7.237   0.886 123.391  0.00  0.00    +0.000 C 
BRANCH  28  30
ATOM     30  C   UNL     1      -7.401   3.108 122.258  0.00  0.00    +0.000 A 
ATOM     31  C   UNL     1      -8.552   3.474 121.520  0.00  0.00    +0.000 A 
ATOM     32  C   UNL     1      -8.448   3.970 120.221  0.00  0.00    +0.000 A 
ATOM     33  C   UNL     1      -7.193   4.173 119.668  0.00  0.00    +0.000 A 
ATOM     34  F   UNL     1      -7.092   4.645 118.419  0.00  0.00    +0.000 F 
ATOM     35  C   UNL     1      -6.041   3.878 120.383  0.00  0.00    +0.000 A 
ATOM     36  C   UNL     1      -6.143   3.335 121.665  0.00  0.00    +0.000 A 
ENDBRANCH  28  30
BRANCH  28  37
ATOM     37  N   UNL     1      -8.962   2.450 124.078  0.00  0.00    +0.000 NA
ATOM     38  H   UNL     1      -9.596   2.188 123.328  0.00  0.00    +0.000 HD
ATOM     39  H   UNL     1      -9.195   3.420 124.297  0.00  0.00    +0.000 HD
ENDBRANCH  28  37
ENDBRANCH  17  28
TORSDOF 4
ENDMDL
MODEL 3
REMARK VINA RESULT:      -9.0      5.234      6.515
REMARK  Name = Avapritinib
REMARK  6 active torsions:
REMARK  status: ('A' for Active; 'I' for Inactive)
REMARK    1  A    between atoms: C_1  and  N_2
REMARK    2  A    between atoms: C_4  and  C_7
REMARK    3  A    between atoms: C_23  and  C_26
REMARK    4  A    between atoms: C_26  and  C_27
REMARK    5  A    between atoms: C_26  and  N_28
REMARK    6  A    between atoms: C_26  and  C_29
REMARK                            x       y       z     vdW  Elec       q    Type
REMARK                         _______ _______ _______ _____ _____    ______ ____
ROOT
ATOM      1  C   UNL     1      -6.070   3.359 123.448  0.00  0.00    +0.000 A 
ATOM      2  C   UNL     1      -6.983   2.327 123.486  0.00  0.00    +0.000 A 
ATOM      3  N   UNL     1      -7.035   1.855 124.775  0.00  0.00    +0.000 N 
ATOM      4  N   UNL     1      -7.795   0.840 125.206  0.00  0.00    +0.000 NA
ATOM      5  C   UNL     1      -7.636   0.576 126.470  0.00  0.00    +0.000 A 
ATOM      6  N   UNL     1      -6.795   1.204 127.358  0.00  0.00    +0.000 NA
ATOM      7  C   UNL     1      -6.090   2.234 126.961  0.00  0.00    +0.000 A 
ATOM      8  N   UNL     1      -5.316   2.936 127.871  0.00  0.00    +0.000 N 
ATOM      9  C   UNL     1      -5.450   4.391 128.067  0.00  0.00    +0.000 C 
ATOM     10  C   UNL     1      -5.623   4.724 129.575  0.00  0.00    +0.000 C 
ATOM     11  N   UNL     1      -4.512   4.138 130.313  0.00  0.00    +0.000 N 
ATOM     12  C   UNL     1      -4.323   2.703 130.158  0.00  0.00    +0.000 C 
ATOM     13  C   UNL     1      -4.213   2.342 128.655  0.00  0.00    +0.000 C 
ATOM     14  C   UNL     1      -3.744   4.910 131.134  0.00  0.00    +0.000 A 
ATOM     15  N   UNL     1      -4.372   5.700 132.007  0.00  0.00    +0.000 NA
ATOM     16  C   UNL     1      -3.613   6.519 132.769  0.00  0.00    +0.000 A 
ATOM     17  C   UNL     1      -2.237   6.627 132.704  0.00  0.00    +0.000 A 
ATOM     18  C   UNL     1      -1.700   5.790 131.745  0.00  0.00    +0.000 A 
ATOM     19  N   UNL     1      -2.410   4.911 130.986  0.00  0.00    +0.000 NA
ATOM     20  C   UNL     1      -6.194   2.581 125.567  0.00  0.00    +0.000 A 
ATOM     21  C   UNL     1      -5.565   3.519 124.766  0.00  0.00    +0.000 A 
ENDROOT
BRANCH   1  25
ATOM     22  C   UNL     1      -5.625   5.422 118.922  0.00  0.00    +0.000 C 
ATOM     23  N   UNL     1      -5.472   5.081 120.318  0.00  0.00    +0.000 N 
ATOM     24  C   UNL     1      -6.253   4.231 121.051  0.00  0.00    +0.000 A 
ATOM     25  C   UNL     1      -5.667   4.153 122.295  0.00  0.00    +0.000 A 
ATOM     26  C   UNL     1      -4.555   5.015 122.218  0.00  0.00    +0.000 A 
ATOM     27  N   UNL     1      -4.431   5.583 121.011  0.00  0.00    +0.000 NA
ENDBRANCH   1  25
BRANCH  17  28
ATOM     28  C   UNL     1      -1.398   7.560 133.584  0.00  0.00    +0.000 C 
ATOM     29  C   UNL     1      -1.358   7.051 135.048  0.00  0.00    +0.000 C 
BRANCH  28  30
ATOM     30  C   UNL     1      -1.954   9.008 133.612  0.00  0.00    +0.000 A 
ATOM     31  C   UNL     1      -1.932   9.795 132.436  0.00  0.00    +0.000 A 
ATOM     32  C   UNL     1      -2.265  11.148 132.467  0.00  0.00    +0.000 A 
ATOM     33  C   UNL     1      -2.694  11.717 133.657  0.00  0.00    +0.000 A 
ATOM     34  F   UNL     1      -3.011  13.017 133.689  0.00  0.00    +0.000 F 
ATOM     35  C   UNL     1      -2.782  10.962 134.818  0.00  0.00    +0.000 A 
ATOM     36  C   UNL     1      -2.400   9.620 134.801  0.00  0.00    +0.000 A 
ENDBRANCH  28  30
BRANCH  28  37
ATOM     37  N   UNL     1      -0.000   7.559 133.100  0.00  0.00    +0.000 NA
ATOM     38  H   UNL     1       0.539   8.291 133.556  0.00  0.00    +0.000 HD
ATOM     39  H   UNL     1       0.007   7.799 132.109  0.00  0.00    +0.000 HD
ENDBRANCH  28  37
ENDBRANCH  17  28
TORSDOF 4
ENDMDL
MODEL 4
REMARK VINA RESULT:      -8.9      1.461      2.004
REMARK  Name = Avapritinib
REMARK  6 active torsions:
REMARK  status: ('A' for Active; 'I' for Inactive)
REMARK    1  A    between atoms: C_1  and  N_2
REMARK    2  A    between atoms: C_4  and  C_7
REMARK    3  A    between atoms: C_23  and  C_26
REMARK    4  A    between atoms: C_26  and  C_27
REMARK    5  A    between atoms: C_26  and  N_28
REMARK    6  A    between atoms: C_26  and  C_29
REMARK                            x       y       z     vdW  Elec       q    Type
REMARK                         _______ _______ _______ _____ _____    ______ ____
ROOT
ATOM      1  C   UNL     1     -10.769   5.521 130.226  0.00  0.00    +0.000 A 
ATOM      2  C   UNL     1     -11.026   4.170 130.325  0.00  0.00    +0.000 A 
ATOM      3  N   UNL     1      -9.894   3.558 130.806  0.00  0.00    +0.000 N 
ATOM      4  N   UNL     1      -9.747   2.244 131.021  0.00  0.00    +0.000 NA
ATOM      5  C   UNL     1      -8.563   1.921 131.455  0.00  0.00    +0.000 A 
ATOM      6  N   UNL     1      -7.500   2.760 131.692  0.00  0.00    +0.000 NA
ATOM      7  C   UNL     1      -7.650   4.052 131.539  0.00  0.00    +0.000 A 
ATOM      8  N   UNL     1      -6.617   4.914 131.870  0.00  0.00    +0.000 N 
ATOM      9  C   UNL     1      -6.791   6.031 132.815  0.00  0.00    +0.000 C 
ATOM     10  C   UNL     1      -5.689   5.997 133.910  0.00  0.00    +0.000 C 
ATOM     11  N   UNL     1      -4.385   5.984 133.259  0.00  0.00    +0.000 N 
ATOM     12  C   UNL     1      -4.152   4.905 132.309  0.00  0.00    +0.000 C 
ATOM     13  C   UNL     1      -5.277   4.883 131.245  0.00  0.00    +0.000 C 
ATOM     14  C   UNL     1      -3.442   6.914 133.582  0.00  0.00    +0.000 A 
ATOM     15  N   UNL     1      -3.190   7.116 134.877  0.00  0.00    +0.000 NA
ATOM     16  C   UNL     1      -2.309   8.089 135.200  0.00  0.00    +0.000 A 
ATOM     17  C   UNL     1      -1.662   8.915 134.300  0.00  0.00    +0.000 A 
ATOM     18  C   UNL     1      -2.025   8.639 132.996  0.00  0.00    +0.000 A 
ATOM     19  N   UNL     1      -2.867   7.640 132.612  0.00  0.00    +0.000 NA
ATOM     20  C   UNL     1      -8.928   4.493 131.041  0.00  0.00    +0.000 A 
ATOM     21  C   UNL     1      -9.437   5.727 130.676  0.00  0.00    +0.000 A 
ENDROOT
BRANCH   1  25
ATOM     22  C   UNL     1     -13.144   9.832 129.384  0.00  0.00    +0.000 C 
ATOM     23  N   UNL     1     -12.703   8.456 129.354  0.00  0.00    +0.000 N 
ATOM     24  C   UNL     1     -11.623   7.920 130.000  0.00  0.00    +0.000 A 
ATOM     25  C   UNL     1     -11.663   6.567 129.749  0.00  0.00    +0.000 A 
ATOM     26  C   UNL     1     -12.788   6.392 128.918  0.00  0.00    +0.000 A 
ATOM     27  N   UNL     1     -13.428   7.544 128.676  0.00  0.00    +0.000 NA
ENDBRANCH   1  25
BRANCH  17  28
ATOM     28  C   UNL     1      -0.662  10.008 134.691  0.00  0.00    +0.000 C 
ATOM     29  C   UNL     1      -1.259  10.941 135.776  0.00  0.00    +0.000 C 
BRANCH  28  30
ATOM     30  C   UNL     1      -0.256  10.899 133.487  0.00  0.00    +0.000 A 
ATOM     31  C   UNL     1       1.085  10.903 133.034  0.00  0.00    +0.000 A 
ATOM     32  C   UNL     1       1.518  11.812 132.070  0.00  0.00    +0.000 A 
ATOM     33  C   UNL     1       0.603  12.680 131.493  0.00  0.00    +0.000 A 
ATOM     34  F   UNL     1       1.018  13.557 130.570  0.00  0.00    +0.000 F 
ATOM     35  C   UNL     1      -0.732  12.667 131.872  0.00  0.00    +0.000 A 
ATOM     36  C   UNL     1      -1.157  11.792 132.873  0.00  0.00    +0.000 A 
ENDBRANCH  28  30
BRANCH  28  37
ATOM     37  N   UNL     1       0.536   9.381 135.289  0.00  0.00    +0.000 NA
ATOM     38  H   UNL     1       0.316   8.455 135.650  0.00  0.00    +0.000 HD
ATOM     39  H   UNL     1       0.822   9.923 136.105  0.00  0.00    +0.000 HD
ENDBRANCH  28  37
ENDBRANCH  17  28
TORSDOF 4
ENDMDL
MODEL 5
REMARK VINA RESULT:      -8.9      5.417     11.121
REMARK  Name = Avapritinib
REMARK  6 active torsions:
REMARK  status: ('A' for Active; 'I' for Inactive)
REMARK    1  A    between atoms: C_1  and  N_2
REMARK    2  A    between atoms: C_4  and  C_7
REMARK    3  A    between atoms: C_23  and  C_26
REMARK    4  A    between atoms: C_26  and  C_27
REMARK    5  A    between atoms: C_26  and  N_28
REMARK    6  A    between atoms: C_26  and  C_29
REMARK                            x       y       z     vdW  Elec       q    Type
REMARK                         _______ _______ _______ _____ _____    ______ ____
ROOT
ATOM      1  C   UNL     1      -3.844   6.485 133.654  0.00  0.00    +0.000 A 
ATOM      2  C   UNL     1      -4.530   6.460 134.850  0.00  0.00    +0.000 A 
ATOM      3  N   UNL     1      -5.757   5.886 134.621  0.00  0.00    +0.000 N 
ATOM      4  N   UNL     1      -6.717   5.702 135.538  0.00  0.00    +0.000 NA
ATOM      5  C   UNL     1      -7.796   5.159 135.053  0.00  0.00    +0.000 A 
ATOM      6  N   UNL     1      -8.034   4.786 133.752  0.00  0.00    +0.000 NA
ATOM      7  C   UNL     1      -7.083   4.909 132.860  0.00  0.00    +0.000 A 
ATOM      8  N   UNL     1      -7.278   4.444 131.569  0.00  0.00    +0.000 N 
ATOM      9  C   UNL     1      -6.362   3.484 130.928  0.00  0.00    +0.000 C 
ATOM     10  C   UNL     1      -7.154   2.284 130.340  0.00  0.00    +0.000 C 
ATOM     11  N   UNL     1      -8.181   2.796 129.442  0.00  0.00    +0.000 N 
ATOM     12  C   UNL     1      -9.116   3.753 130.016  0.00  0.00    +0.000 C 
ATOM     13  C   UNL     1      -8.342   4.928 130.664  0.00  0.00    +0.000 C 
ATOM     14  C   UNL     1      -8.264   2.346 128.158  0.00  0.00    +0.000 A 
ATOM     15  N   UNL     1      -8.249   1.025 127.963  0.00  0.00    +0.000 NA
ATOM     16  C   UNL     1      -8.258   0.581 126.686  0.00  0.00    +0.000 A 
ATOM     17  C   UNL     1      -8.254   1.380 125.559  0.00  0.00    +0.000 A 
ATOM     18  C   UNL     1      -8.234   2.724 125.882  0.00  0.00    +0.000 A 
ATOM     19  N   UNL     1      -8.276   3.227 127.146  0.00  0.00    +0.000 NA
ATOM     20  C   UNL     1      -5.859   5.520 133.310  0.00  0.00    +0.000 A 
ATOM     21  C   UNL     1      -4.687   5.894 132.676  0.00  0.00    +0.000 A 
ENDROOT
BRANCH   1  25
ATOM     22  C   UNL     1       0.288   9.284 133.486  0.00  0.00    +0.000 C 
ATOM     23  N   UNL     1      -0.683   8.225 133.334  0.00  0.00    +0.000 N 
ATOM     24  C   UNL     1      -1.921   8.151 133.912  0.00  0.00    +0.000 A 
ATOM     25  C   UNL     1      -2.511   7.017 133.401  0.00  0.00    +0.000 A 
ATOM     26  C   UNL     1      -1.537   6.462 132.547  0.00  0.00    +0.000 A 
ATOM     27  N   UNL     1      -0.419   7.199 132.502  0.00  0.00    +0.000 NA
ENDBRANCH   1  25
BRANCH  17  28
ATOM     28  C   UNL     1      -8.269   0.851 124.121  0.00  0.00    +0.000 C 
ATOM     29  C   UNL     1      -7.243  -0.297 123.943  0.00  0.00    +0.000 C 
BRANCH  28  30
ATOM     30  C   UNL     1      -7.921   1.949 123.081  0.00  0.00    +0.000 A 
ATOM     31  C   UNL     1      -8.953   2.572 122.341  0.00  0.00    +0.000 A 
ATOM     32  C   UNL     1      -8.664   3.435 121.286  0.00  0.00    +0.000 A 
ATOM     33  C   UNL     1      -7.343   3.745 121.001  0.00  0.00    +0.000 A 
ATOM     34  F   UNL     1      -7.063   4.571 119.985  0.00  0.00    +0.000 F 
ATOM     35  C   UNL     1      -6.305   3.196 121.741  0.00  0.00    +0.000 A 
ATOM     36  C   UNL     1      -6.591   2.292 122.766  0.00  0.00    +0.000 A 
ENDBRANCH  28  30
BRANCH  28  37
ATOM     37  N   UNL     1      -9.600   0.275 123.828  0.00  0.00    +0.000 NA
ATOM     38  H   UNL     1      -9.747   0.200 122.825  0.00  0.00    +0.000 HD
ATOM     39  H   UNL     1     -10.320   0.920 124.156  0.00  0.00    +0.000 HD
ENDBRANCH  28  37
ENDBRANCH  17  28
TORSDOF 4
ENDMDL
MODEL 6
REMARK VINA RESULT:      -8.8      6.874     11.529
REMARK  Name = Avapritinib
REMARK  6 active torsions:
REMARK  status: ('A' for Active; 'I' for Inactive)
REMARK    1  A    between atoms: C_1  and  N_2
REMARK    2  A    between atoms: C_4  and  C_7
REMARK    3  A    between atoms: C_23  and  C_26
REMARK    4  A    between atoms: C_26  and  C_27
REMARK    5  A    between atoms: C_26  and  N_28
REMARK    6  A    between atoms: C_26  and  C_29
REMARK                            x       y       z     vdW  Elec       q    Type
REMARK                         _______ _______ _______ _____ _____    ______ ____
ROOT
ATOM      1  C   UNL     1      -7.078  -4.542 134.805  0.00  0.00    +0.000 A 
ATOM      2  C   UNL     1      -6.196  -5.349 134.118  0.00  0.00    +0.000 A 
ATOM      3  N   UNL     1      -5.934  -4.754 132.907  0.00  0.00    +0.000 N 
ATOM      4  N   UNL     1      -5.134  -5.246 131.952  0.00  0.00    +0.000 NA
ATOM      5  C   UNL     1      -5.079  -4.497 130.888  0.00  0.00    +0.000 A 
ATOM      6  N   UNL     1      -5.740  -3.313 130.663  0.00  0.00    +0.000 NA
ATOM      7  C   UNL     1      -6.479  -2.794 131.611  0.00  0.00    +0.000 A 
ATOM      8  N   UNL     1      -7.069  -1.554 131.431  0.00  0.00    +0.000 N 
ATOM      9  C   UNL     1      -6.870  -0.439 132.375  0.00  0.00    +0.000 C 
ATOM     10  C   UNL     1      -6.432   0.845 131.617  0.00  0.00    +0.000 C 
ATOM     11  N   UNL     1      -7.413   1.131 130.578  0.00  0.00    +0.000 N 
ATOM     12  C   UNL     1      -7.658   0.066 129.616  0.00  0.00    +0.000 C 
ATOM     13  C   UNL     1      -8.034  -1.241 130.356  0.00  0.00    +0.000 C 
ATOM     14  C   UNL     1      -8.010   2.354 130.509  0.00  0.00    +0.000 A 
ATOM     15  N   UNL     1      -7.223   3.432 130.561  0.00  0.00    +0.000 NA
ATOM     16  C   UNL     1      -7.821   4.644 130.566  0.00  0.00    +0.000 A 
ATOM     17  C   UNL     1      -9.185   4.865 130.550  0.00  0.00    +0.000 A 
ATOM     18  C   UNL     1      -9.898   3.682 130.532  0.00  0.00    +0.000 A 
ATOM     19  N   UNL     1      -9.349   2.438 130.475  0.00  0.00    +0.000 NA
ATOM     20  C   UNL     1      -6.609  -3.572 132.817  0.00  0.00    +0.000 A 
ATOM     21  C   UNL     1      -7.345  -3.417 133.980  0.00  0.00    +0.000 A 
ENDROOT
BRANCH   1  25
ATOM     22  C   UNL     1      -9.488  -4.133 139.159  0.00  0.00    +0.000 C 
ATOM     23  N   UNL     1      -8.726  -4.613 138.030  0.00  0.00    +0.000 N 
ATOM     24  C   UNL     1      -8.512  -3.969 136.842  0.00  0.00    +0.000 A 
ATOM     25  C   UNL     1      -7.656  -4.771 136.122  0.00  0.00    +0.000 A 
ATOM     26  C   UNL     1      -7.435  -5.889 136.951  0.00  0.00    +0.000 A 
ATOM     27  N   UNL     1      -8.085  -5.795 138.119  0.00  0.00    +0.000 NA
ENDBRANCH   1  25
BRANCH  17  28
ATOM     28  C   UNL     1      -9.838   6.251 130.552  0.00  0.00    +0.000 C 
ATOM     29  C   UNL     1     -10.666   6.471 131.844  0.00  0.00    +0.000 C 
BRANCH  28  30
ATOM     30  C   UNL     1     -10.796   6.458 129.347  0.00  0.00    +0.000 A 
ATOM     31  C   UNL     1     -10.274   6.844 128.090  0.00  0.00    +0.000 A 
ATOM     32  C   UNL     1     -11.116   7.200 127.038  0.00  0.00    +0.000 A 
ATOM     33  C   UNL     1     -12.490   7.107 127.204  0.00  0.00    +0.000 A 
ATOM     34  F   UNL     1     -13.300   7.453 126.196  0.00  0.00    +0.000 F 
ATOM     35  C   UNL     1     -13.037   6.679 128.406  0.00  0.00    +0.000 A 
ATOM     36  C   UNL     1     -12.196   6.371 129.477  0.00  0.00    +0.000 A 
ENDBRANCH  28  30
BRANCH  28  37
ATOM     37  N   UNL     1      -8.782   7.287 130.548  0.00  0.00    +0.000 NA
ATOM     38  H   UNL     1      -9.005   8.027 129.886  0.00  0.00    +0.000 HD
ATOM     39  H   UNL     1      -7.915   6.874 130.204  0.00  0.00    +0.000 HD
ENDBRANCH  28  37
ENDBRANCH  17  28
TORSDOF 4
ENDMDL
MODEL 7
REMARK VINA RESULT:      -8.7      5.877     11.788
REMARK  Name = Avapritinib
REMARK  6 active torsions:
REMARK  status: ('A' for Active; 'I' for Inactive)
REMARK    1  A    between atoms: C_1  and  N_2
REMARK    2  A    between atoms: C_4  and  C_7
REMARK    3  A    between atoms: C_23  and  C_26
REMARK    4  A    between atoms: C_26  and  C_27
REMARK    5  A    between atoms: C_26  and  N_28
REMARK    6  A    between atoms: C_26  and  C_29
REMARK                            x       y       z     vdW  Elec       q    Type
REMARK                         _______ _______ _______ _____ _____    ______ ____
ROOT
ATOM      1  C   UNL     1      -3.913   6.468 133.650  0.00  0.00    +0.000 A 
ATOM      2  C   UNL     1      -4.615   6.445 134.836  0.00  0.00    +0.000 A 
ATOM      3  N   UNL     1      -5.835   5.861 134.594  0.00  0.00    +0.000 N 
ATOM      4  N   UNL     1      -6.806   5.676 135.499  0.00  0.00    +0.000 NA
ATOM      5  C   UNL     1      -7.875   5.122 135.003  0.00  0.00    +0.000 A 
ATOM      6  N   UNL     1      -8.092   4.738 133.701  0.00  0.00    +0.000 NA
ATOM      7  C   UNL     1      -7.130   4.862 132.821  0.00  0.00    +0.000 A 
ATOM      8  N   UNL     1      -7.303   4.387 131.531  0.00  0.00    +0.000 N 
ATOM      9  C   UNL     1      -6.371   3.430 130.909  0.00  0.00    +0.000 C 
ATOM     10  C   UNL     1      -7.146   2.220 130.318  0.00  0.00    +0.000 C 
ATOM     11  N   UNL     1      -8.164   2.719 129.403  0.00  0.00    +0.000 N 
ATOM     12  C   UNL     1      -9.114   3.673 129.957  0.00  0.00    +0.000 C 
ATOM     13  C   UNL     1      -8.358   4.858 130.608  0.00  0.00    +0.000 C 
ATOM     14  C   UNL     1      -8.226   2.260 128.121  0.00  0.00    +0.000 A 
ATOM     15  N   UNL     1      -8.199   0.939 127.934  0.00  0.00    +0.000 NA
ATOM     16  C   UNL     1      -8.187   0.486 126.661  0.00  0.00    +0.000 A 
ATOM     17  C   UNL     1      -8.173   1.278 125.529  0.00  0.00    +0.000 A 
ATOM     18  C   UNL     1      -8.167   2.623 125.842  0.00  0.00    +0.000 A 
ATOM     19  N   UNL     1      -8.230   3.134 127.102  0.00  0.00    +0.000 NA
ATOM     20  C   UNL     1      -5.916   5.486 133.285  0.00  0.00    +0.000 A 
ATOM     21  C   UNL     1      -4.738   5.864 132.664  0.00  0.00    +0.000 A 
ENDROOT
BRANCH   1  25
ATOM     22  C   UNL     1       0.154   9.353 133.391  0.00  0.00    +0.000 C 
ATOM     23  N   UNL     1      -0.781   8.256 133.308  0.00  0.00    +0.000 N 
ATOM     24  C   UNL     1      -2.048   8.209 133.821  0.00  0.00    +0.000 A 
ATOM     25  C   UNL     1      -2.581   7.007 133.412  0.00  0.00    +0.000 A 
ATOM     26  C   UNL     1      -1.546   6.390 132.681  0.00  0.00    +0.000 A 
ATOM     27  N   UNL     1      -0.445   7.151 132.614  0.00  0.00    +0.000 NA
ENDBRANCH   1  25
BRANCH  17  28
ATOM     28  C   UNL     1      -8.165   0.739 124.094  0.00  0.00    +0.000 C 
ATOM     29  C   UNL     1      -9.578   0.822 123.463  0.00  0.00    +0.000 C 
BRANCH  28  30
ATOM     30  C   UNL     1      -7.710  -0.743 124.019  0.00  0.00    +0.000 A 
ATOM     31  C   UNL     1      -8.676  -1.777 124.004  0.00  0.00    +0.000 A 
ATOM     32  C   UNL     1      -8.302  -3.115 124.107  0.00  0.00    +0.000 A 
ATOM     33  C   UNL     1      -6.956  -3.444 124.155  0.00  0.00    +0.000 A 
ATOM     34  F   UNL     1      -6.595  -4.729 124.258  0.00  0.00    +0.000 F 
ATOM     35  C   UNL     1      -5.978  -2.460 124.116  0.00  0.00    +0.000 A 
ATOM     36  C   UNL     1      -6.352  -1.116 124.064  0.00  0.00    +0.000 A 
ENDBRANCH  28  30
BRANCH  28  37
ATOM     37  N   UNL     1      -7.283   1.586 123.262  0.00  0.00    +0.000 NA
ATOM     38  H   UNL     1      -6.753   2.234 123.841  0.00  0.00    +0.000 HD
ATOM     39  H   UNL     1      -7.860   2.176 122.662  0.00  0.00    +0.000 HD
ENDBRANCH  28  37
ENDBRANCH  17  28
TORSDOF 4
ENDMDL
MODEL 8
REMARK VINA RESULT:      -8.7      5.974      7.585
REMARK  Name = Avapritinib
REMARK  6 active torsions:
REMARK  status: ('A' for Active; 'I' for Inactive)
REMARK    1  A    between atoms: C_1  and  N_2
REMARK    2  A    between atoms: C_4  and  C_7
REMARK    3  A    between atoms: C_23  and  C_26
REMARK    4  A    between atoms: C_26  and  C_27
REMARK    5  A    between atoms: C_26  and  N_28
REMARK    6  A    between atoms: C_26  and  C_29
REMARK                            x       y       z     vdW  Elec       q    Type
REMARK                         _______ _______ _______ _____ _____    ______ ____
ROOT
ATOM      1  C   UNL     1      -7.785   3.065 122.397  0.00  0.00    +0.000 A 
ATOM      2  C   UNL     1      -9.015   2.478 122.189  0.00  0.00    +0.000 A 
ATOM      3  N   UNL     1      -9.413   1.901 123.371  0.00  0.00    +0.000 N 
ATOM      4  N   UNL     1     -10.549   1.217 123.563  0.00  0.00    +0.000 NA
ATOM      5  C   UNL     1     -10.673   0.751 124.773  0.00  0.00    +0.000 A 
ATOM      6  N   UNL     1      -9.786   0.880 125.815  0.00  0.00    +0.000 NA
ATOM      7  C   UNL     1      -8.699   1.593 125.654  0.00  0.00    +0.000 A 
ATOM      8  N   UNL     1      -7.849   1.812 126.726  0.00  0.00    +0.000 N 
ATOM      9  C   UNL     1      -7.453   3.164 127.158  0.00  0.00    +0.000 C 
ATOM     10  C   UNL     1      -7.690   3.341 128.683  0.00  0.00    +0.000 C 
ATOM     11  N   UNL     1      -6.990   2.276 129.391  0.00  0.00    +0.000 N 
ATOM     12  C   UNL     1      -7.334   0.915 129.006  0.00  0.00    +0.000 C 
ATOM     13  C   UNL     1      -7.165   0.737 127.476  0.00  0.00    +0.000 C 
ATOM     14  C   UNL     1      -6.107   2.573 130.386  0.00  0.00    +0.000 A 
ATOM     15  N   UNL     1      -6.504   3.426 131.332  0.00  0.00    +0.000 NA
ATOM     16  C   UNL     1      -5.604   3.776 132.278  0.00  0.00    +0.000 A 
ATOM     17  C   UNL     1      -4.293   3.344 132.335  0.00  0.00    +0.000 A 
ATOM     18  C   UNL     1      -3.985   2.495 131.289  0.00  0.00    +0.000 A 
ATOM     19  N   UNL     1      -4.863   2.071 130.340  0.00  0.00    +0.000 NA
ATOM     20  C   UNL     1      -8.476   2.131 124.336  0.00  0.00    +0.000 A 
ATOM     21  C   UNL     1      -7.440   2.842 123.756  0.00  0.00    +0.000 A 
ENDROOT
BRANCH   1  25
ATOM     22  C   UNL     1      -5.978   5.320 118.325  0.00  0.00    +0.000 C 
ATOM     23  N   UNL     1      -6.163   4.790 119.656  0.00  0.00    +0.000 N 
ATOM     24  C   UNL     1      -7.293   4.211 120.165  0.00  0.00    +0.000 A 
ATOM     25  C   UNL     1      -6.963   3.779 121.430  0.00  0.00    +0.000 A 
ATOM     26  C   UNL     1      -5.620   4.172 121.600  0.00  0.00    +0.000 A 
ATOM     27  N   UNL     1      -5.127   4.788 120.517  0.00  0.00    +0.000 NA
ENDBRANCH   1  25
BRANCH  17  28
ATOM     28  C   UNL     1      -3.292   3.752 133.422  0.00  0.00    +0.000 C 
ATOM     29  C   UNL     1      -3.985   3.844 134.806  0.00  0.00    +0.000 C 
BRANCH  28  30
ATOM     30  C   UNL     1      -2.637   5.130 133.139  0.00  0.00    +0.000 A 
ATOM     31  C   UNL     1      -1.402   5.195 132.452  0.00  0.00    +0.000 A 
ATOM     32  C   UNL     1      -0.707   6.397 132.331  0.00  0.00    +0.000 A 
ATOM     33  C   UNL     1      -1.269   7.562 132.830  0.00  0.00    +0.000 A 
ATOM     34  F   UNL     1      -0.601   8.717 132.718  0.00  0.00    +0.000 F 
ATOM     35  C   UNL     1      -2.505   7.546 133.461  0.00  0.00    +0.000 A 
ATOM     36  C   UNL     1      -3.179   6.335 133.628  0.00  0.00    +0.000 A 
ENDBRANCH  28  30
BRANCH  28  37
ATOM     37  N   UNL     1      -2.252   2.707 133.543  0.00  0.00    +0.000 NA
ATOM     38  H   UNL     1      -1.451   2.927 132.956  0.00  0.00    +0.000 HD
ATOM     39  H   UNL     1      -2.619   1.829 133.173  0.00  0.00    +0.000 HD
ENDBRANCH  28  37
ENDBRANCH  17  28
TORSDOF 4
ENDMDL
MODEL 9
REMARK VINA RESULT:      -8.6      6.426     11.597
REMARK  Name = Avapritinib
REMARK  6 active torsions:
REMARK  status: ('A' for Active; 'I' for Inactive)
REMARK    1  A    between atoms: C_1  and  N_2
REMARK    2  A    between atoms: C_4  and  C_7
REMARK    3  A    between atoms: C_23  and  C_26
REMARK    4  A    between atoms: C_26  and  C_27
REMARK    5  A    between atoms: C_26  and  N_28
REMARK    6  A    between atoms: C_26  and  C_29
REMARK                            x       y       z     vdW  Elec       q    Type
REMARK                         _______ _______ _______ _____ _____    ______ ____
ROOT
ATOM      1  C   UNL     1      -4.194   3.158 134.980  0.00  0.00    +0.000 A 
ATOM      2  C   UNL     1      -3.675   4.348 135.445  0.00  0.00    +0.000 A 
ATOM      3  N   UNL     1      -3.516   5.189 134.370  0.00  0.00    +0.000 N 
ATOM      4  N   UNL     1      -3.019   6.432 134.417  0.00  0.00    +0.000 NA
ATOM      5  C   UNL     1      -2.951   7.005 133.251  0.00  0.00    +0.000 A 
ATOM      6  N   UNL     1      -3.315   6.476 132.035  0.00  0.00    +0.000 NA
ATOM      7  C   UNL     1      -3.854   5.285 131.984  0.00  0.00    +0.000 A 
ATOM      8  N   UNL     1      -4.316   4.783 130.778  0.00  0.00    +0.000 N 
ATOM      9  C   UNL     1      -5.698   4.304 130.597  0.00  0.00    +0.000 C 
ATOM     10  C   UNL     1      -6.345   4.966 129.350  0.00  0.00    +0.000 C 
ATOM     11  N   UNL     1      -5.490   4.723 128.195  0.00  0.00    +0.000 N 
ATOM     12  C   UNL     1      -4.109   5.170 128.313  0.00  0.00    +0.000 C 
ATOM     13  C   UNL     1      -3.465   4.570 129.588  0.00  0.00    +0.000 C 
ATOM     14  C   UNL     1      -5.999   4.154 127.066  0.00  0.00    +0.000 A 
ATOM     15  N   UNL     1      -7.128   4.664 126.569  0.00  0.00    +0.000 NA
ATOM     16  C   UNL     1      -7.671   4.054 125.492  0.00  0.00    +0.000 A 
ATOM     17  C   UNL     1      -7.170   2.925 124.874  0.00  0.00    +0.000 A 
ATOM     18  C   UNL     1      -6.023   2.466 125.492  0.00  0.00    +0.000 A 
ATOM     19  N   UNL     1      -5.406   3.068 126.545  0.00  0.00    +0.000 NA
ATOM     20  C   UNL     1      -3.949   4.571 133.232  0.00  0.00    +0.000 A 
ATOM     21  C   UNL     1      -4.364   3.296 133.577  0.00  0.00    +0.000 A 
ENDROOT
BRANCH   1  25
ATOM     22  C   UNL     1      -5.972  -1.228 136.574  0.00  0.00    +0.000 C 
ATOM     23  N   UNL     1      -5.269   0.029 136.455  0.00  0.00    +0.000 N 
ATOM     24  C   UNL     1      -5.214   0.844 135.357  0.00  0.00    +0.000 A 
ATOM     25  C   UNL     1      -4.513   1.962 135.748  0.00  0.00    +0.000 A 
ATOM     26  C   UNL     1      -4.164   1.712 137.090  0.00  0.00    +0.000 A 
ATOM     27  N   UNL     1      -4.627   0.532 137.527  0.00  0.00    +0.000 NA
ENDBRANCH   1  25
BRANCH  17  28
ATOM     28  C   UNL     1      -7.803   2.254 123.650  0.00  0.00    +0.000 C 
ATOM     29  C   UNL     1      -7.232   0.828 123.443  0.00  0.00    +0.000 C 
BRANCH  28  30
ATOM     30  C   UNL     1      -7.550   3.048 122.340  0.00  0.00    +0.000 A 
ATOM     31  C   UNL     1      -8.631   3.352 121.480  0.00  0.00    +0.000 A 
ATOM     32  C   UNL     1      -8.417   3.912 120.222  0.00  0.00    +0.000 A 
ATOM     33  C   UNL     1      -7.127   4.243 119.835  0.00  0.00    +0.000 A 
ATOM     34  F   UNL     1      -6.919   4.778 118.625  0.00  0.00    +0.000 F 
ATOM     35  C   UNL     1      -6.047   4.012 120.675  0.00  0.00    +0.000 A 
ATOM     36  C   UNL     1      -6.254   3.404 121.915  0.00  0.00    +0.000 A 
ENDBRANCH  28  30
BRANCH  28  37
ATOM     37  N   UNL     1      -9.256   2.095 123.878  0.00  0.00    +0.000 NA
ATOM     38  H   UNL     1      -9.784   2.741 123.296  0.00  0.00    +0.000 HD
ATOM     39  H   UNL     1      -9.471   2.366 124.838  0.00  0.00    +0.000 HD
ENDBRANCH  28  37
ENDBRANCH  17  28
TORSDOF 4
ENDMDL
