MODEL 1
REMARK VINA RESULT:      -9.1      0.000      0.000
REMARK  Name = Avatrombopag
REMARK  7 active torsions:
REMARK  status: ('A' for Active; 'I' for Inactive)
REMARK    1  A    between atoms: O_1  and  C_2
REMARK    2  A    between atoms: C_2  and  C_4
REMARK    3  A    between atoms: N_7  and  C_10
REMARK    4  A    between atoms: C_14  and  C_17
REMARK    5  A    between atoms: C_22  and  C_23
REMARK    6  A    between atoms: C_29  and  N_31
REMARK    7  A    between atoms: N_34  and  C_37
REMARK                            x       y       z     vdW  Elec       q    Type
REMARK                         _______ _______ _______ _____ _____    ______ ____
ROOT
ATOM      1  C   UNL     1      -6.609  -2.347 130.396  0.00  0.00    +0.000 C 
ATOM      2  O   UNL     1      -5.544  -2.710 129.937  0.00  0.00    +0.000 OA
ATOM      3  N   UNL     1      -7.562  -1.599 129.690  0.00  0.00    +0.000 N 
ATOM      4  C   UNL     1      -7.363  -1.332 128.344  0.00  0.00    +0.000 A 
ATOM      5  N   UNL     1      -6.956  -2.166 127.424  0.00  0.00    +0.000 NA
ATOM      6  C   UNL     1      -6.835  -1.503 126.216  0.00  0.00    +0.000 A 
ATOM      7  C   UNL     1      -7.166  -0.150 126.212  0.00  0.00    +0.000 A 
ATOM      8  S   UNL     1      -7.737   0.252 127.807  0.00  0.00    +0.000 S 
ATOM      9  H   UNL     1      -8.294  -1.081 130.143  0.00  0.00    +0.000 HD
ENDROOT
BRANCH   1  14
ATOM     10  C   UNL     1      -7.435  -3.008 134.637  0.00  0.00    +0.000 A 
ATOM     11  C   UNL     1      -6.727  -3.972 133.894  0.00  0.00    +0.000 A 
ATOM     12 CL   UNL     1      -6.221  -5.484 134.577  0.00  0.00    +0.000 Cl
ATOM     13  C   UNL     1      -6.454  -3.792 132.520  0.00  0.00    +0.000 A 
ATOM     14  C   UNL     1      -6.873  -2.646 131.858  0.00  0.00    +0.000 A 
ATOM     15  C   UNL     1      -7.587  -1.739 132.644  0.00  0.00    +0.000 A 
ATOM     16  N   UNL     1      -7.885  -1.903 133.985  0.00  0.00    +0.000 NA
BRANCH  10  20
ATOM     17  C   UNL     1      -8.725  -2.429 138.619  0.00  0.00    +0.000 C 
ATOM     18  C   UNL     1      -9.603  -2.935 137.458  0.00  0.00    +0.000 C 
ATOM     19  C   UNL     1      -8.829  -3.841 136.498  0.00  0.00    +0.000 C 
ATOM     20  N   UNL     1      -7.673  -3.111 136.001  0.00  0.00    +0.000 N 
ATOM     21  C   UNL     1      -6.694  -2.765 137.022  0.00  0.00    +0.000 C 
ATOM     22  C   UNL     1      -7.375  -1.903 138.091  0.00  0.00    +0.000 C 
BRANCH  17  23
ATOM     23  C   UNL     1      -8.978  -3.383 139.784  0.00  0.00    +0.000 C 
ATOM     24  O   UNL     1      -9.866  -4.230 139.703  0.00  0.00    +0.000 OA
BRANCH  23  25
ATOM     25  O   UNL     1      -8.179  -3.359 140.854  0.00  0.00    +0.000 OA
ATOM     26  H   UNL     1      -7.836  -4.198 141.192  0.00  0.00    +0.000 HD
ENDBRANCH  23  25
ENDBRANCH  17  23
ENDBRANCH  10  20
ENDBRANCH   1  14
BRANCH   6  27
ATOM     27  C   UNL     1      -6.307  -2.203 125.003  0.00  0.00    +0.000 A 
ATOM     28  C   UNL     1      -5.306  -3.150 125.046  0.00  0.00    +0.000 A 
ATOM     29  C   UNL     1      -4.929  -3.588 123.748  0.00  0.00    +0.000 A 
ATOM     30 CL   UNL     1      -3.707  -4.754 123.492  0.00  0.00    +0.000 Cl
ATOM     31  C   UNL     1      -5.635  -2.942 122.759  0.00  0.00    +0.000 A 
ATOM     32  S   UNL     1      -6.803  -1.865 123.409  0.00  0.00    +0.000 S 
ENDBRANCH   6  27
BRANCH   7  33
ATOM     33  N   UNL     1      -7.167   0.735 125.163  0.00  0.00    +0.000 N 
ATOM     34  C   UNL     1      -8.423   0.971 124.426  0.00  0.00    +0.000 C 
ATOM     35  C   UNL     1      -8.759   2.481 124.250  0.00  0.00    +0.000 C 
ATOM     36  N   UNL     1      -7.635   3.363 123.854  0.00  0.00    +0.000 NA
ATOM     37  C   UNL     1      -6.545   3.163 124.832  0.00  0.00    +0.000 C 
ATOM     38  C   UNL     1      -6.058   1.712 125.030  0.00  0.00    +0.000 C 
BRANCH  36  39
ATOM     39  C   UNL     1      -7.236   3.227 122.431  0.00  0.00    +0.000 C 
ATOM     40  C   UNL     1      -8.338   3.745 121.488  0.00  0.00    +0.000 C 
ATOM     41  C   UNL     1      -7.884   3.783 120.032  0.00  0.00    +0.000 C 
ATOM     42  C   UNL     1      -6.607   4.596 119.857  0.00  0.00    +0.000 C 
ATOM     43  C   UNL     1      -5.484   3.961 120.637  0.00  0.00    +0.000 C 
ATOM     44  C   UNL     1      -5.869   3.826 122.079  0.00  0.00    +0.000 C 
ENDBRANCH  36  39
ENDBRANCH   7  33
TORSDOF 7
ENDMDL
MODEL 2
REMARK VINA RESULT:      -9.0      6.660      8.235
REMARK  Name = Avatrombopag
REMARK  7 active torsions:
REMARK  status: ('A' for Active; 'I' for Inactive)
REMARK    1  A    between atoms: O_1  and  C_2
REMARK    2  A    between atoms: C_2  and  C_4
REMARK    3  A    between atoms: N_7  and  C_10
REMARK    4  A    between atoms: C_14  and  C_17
REMARK    5  A    between atoms: C_22  and  C_23
REMARK    6  A    between atoms: C_29  and  N_31
REMARK    7  A    between atoms: N_34  and  C_37
REMARK                            x       y       z     vdW  Elec       q    Type
REMARK                         _______ _______ _______ _____ _____    ______ ____
ROOT
ATOM      1  C   UNL     1      -6.181   2.754 133.800  0.00  0.00    +0.000 C 
ATOM      2  O   UNL     1      -5.027   2.430 133.596  0.00  0.00    +0.000 OA
ATOM      3  N   UNL     1      -7.281   2.254 133.090  0.00  0.00    +0.000 N 
ATOM      4  C   UNL     1      -7.094   1.239 132.163  0.00  0.00    +0.000 A 
ATOM      5  N   UNL     1      -6.368   0.162 132.305  0.00  0.00    +0.000 NA
ATOM      6  C   UNL     1      -6.399  -0.576 131.136  0.00  0.00    +0.000 A 
ATOM      7  C   UNL     1      -7.169  -0.063 130.095  0.00  0.00    +0.000 A 
ATOM      8  S   UNL     1      -7.948   1.379 130.684  0.00  0.00    +0.000 S 
ATOM      9  H   UNL     1      -8.174   2.713 133.073  0.00  0.00    +0.000 HD
ENDROOT
BRANCH   1  14
ATOM     10  C   UNL     1      -7.016   5.986 136.623  0.00  0.00    +0.000 A 
ATOM     11  C   UNL     1      -5.970   5.078 136.874  0.00  0.00    +0.000 A 
ATOM     12 CL   UNL     1      -5.023   5.132 138.325  0.00  0.00    +0.000 Cl
ATOM     13  C   UNL     1      -5.683   4.017 135.987  0.00  0.00    +0.000 A 
ATOM     14  C   UNL     1      -6.425   3.842 134.827  0.00  0.00    +0.000 A 
ATOM     15  C   UNL     1      -7.461   4.762 134.645  0.00  0.00    +0.000 A 
ATOM     16  N   UNL     1      -7.775   5.795 135.510  0.00  0.00    +0.000 NA
BRANCH  10  20
ATOM     17  C   UNL     1      -8.361   9.667 138.202  0.00  0.00    +0.000 C 
ATOM     18  C   UNL     1      -9.246   8.436 137.922  0.00  0.00    +0.000 C 
ATOM     19  C   UNL     1      -8.521   7.122 138.219  0.00  0.00    +0.000 C 
ATOM     20  N   UNL     1      -7.298   7.078 137.431  0.00  0.00    +0.000 N 
ATOM     21  C   UNL     1      -6.321   8.102 137.777  0.00  0.00    +0.000 C 
ATOM     22  C   UNL     1      -6.961   9.482 137.584  0.00  0.00    +0.000 C 
BRANCH  17  23
ATOM     23  C   UNL     1      -8.720  10.130 139.612  0.00  0.00    +0.000 C 
ATOM     24  O   UNL     1      -9.736  10.795 139.801  0.00  0.00    +0.000 OA
BRANCH  23  25
ATOM     25  O   UNL     1      -7.980   9.736 140.654  0.00  0.00    +0.000 OA
ATOM     26  H   UNL     1      -7.072   9.446 140.491  0.00  0.00    +0.000 HD
ENDBRANCH  23  25
ENDBRANCH  17  23
ENDBRANCH  10  20
ENDBRANCH   1  14
BRANCH   6  27
ATOM     27  C   UNL     1      -5.583  -1.823 130.993  0.00  0.00    +0.000 A 
ATOM     28  C   UNL     1      -4.533  -1.949 130.108  0.00  0.00    +0.000 A 
ATOM     29  C   UNL     1      -3.990  -3.262 130.107  0.00  0.00    +0.000 A 
ATOM     30 CL   UNL     1      -2.684  -3.714 129.104  0.00  0.00    +0.000 Cl
ATOM     31  C   UNL     1      -4.661  -4.099 130.969  0.00  0.00    +0.000 A 
ATOM     32  S   UNL     1      -5.893  -3.273 131.832  0.00  0.00    +0.000 S 
ENDBRANCH   6  27
BRANCH   7  33
ATOM     33  N   UNL     1      -7.399  -0.594 128.851  0.00  0.00    +0.000 N 
ATOM     34  C   UNL     1      -6.686  -0.030 127.688  0.00  0.00    +0.000 C 
ATOM     35  C   UNL     1      -6.003  -1.111 126.801  0.00  0.00    +0.000 C 
ATOM     36  N   UNL     1      -6.805  -2.323 126.506  0.00  0.00    +0.000 NA
ATOM     37  C   UNL     1      -7.251  -2.887 127.796  0.00  0.00    +0.000 C 
ATOM     38  C   UNL     1      -8.025  -1.934 128.731  0.00  0.00    +0.000 C 
BRANCH  36  39
ATOM     39  C   UNL     1      -7.882  -2.103 125.508  0.00  0.00    +0.000 C 
ATOM     40  C   UNL     1      -7.403  -1.199 124.357  0.00  0.00    +0.000 C 
ATOM     41  C   UNL     1      -8.429  -1.102 123.231  0.00  0.00    +0.000 C 
ATOM     42  C   UNL     1      -8.821  -2.477 122.702  0.00  0.00    +0.000 C 
ATOM     43  C   UNL     1      -9.468  -3.283 123.801  0.00  0.00    +0.000 C 
ATOM     44  C   UNL     1      -8.549  -3.378 124.980  0.00  0.00    +0.000 C 
ENDBRANCH  36  39
ENDBRANCH   7  33
TORSDOF 7
ENDMDL
MODEL 3
REMARK VINA RESULT:      -9.0      9.873     11.734
REMARK  Name = Avatrombopag
REMARK  7 active torsions:
REMARK  status: ('A' for Active; 'I' for Inactive)
REMARK    1  A    between atoms: O_1  and  C_2
REMARK    2  A    between atoms: C_2  and  C_4
REMARK    3  A    between atoms: N_7  and  C_10
REMARK    4  A    between atoms: C_14  and  C_17
REMARK    5  A    between atoms: C_22  and  C_23
REMARK    6  A    between atoms: C_29  and  N_31
REMARK    7  A    between atoms: N_34  and  C_37
REMARK                            x       y       z     vdW  Elec       q    Type
REMARK                         _______ _______ _______ _____ _____    ______ ____
ROOT
ATOM      1  C   UNL     1      -3.180   6.323 131.846  0.00  0.00    +0.000 C 
ATOM      2  O   UNL     1      -3.608   5.539 132.669  0.00  0.00    +0.000 OA
ATOM      3  N   UNL     1      -3.422   6.235 130.467  0.00  0.00    +0.000 N 
ATOM      4  C   UNL     1      -4.292   5.269 129.985  0.00  0.00    +0.000 A 
ATOM      5  N   UNL     1      -5.459   4.941 130.472  0.00  0.00    +0.000 NA
ATOM      6  C   UNL     1      -5.993   3.898 129.738  0.00  0.00    +0.000 A 
ATOM      7  C   UNL     1      -5.230   3.434 128.669  0.00  0.00    +0.000 A 
ATOM      8  S   UNL     1      -3.814   4.442 128.561  0.00  0.00    +0.000 S 
ATOM      9  H   UNL     1      -2.858   6.708 129.783  0.00  0.00    +0.000 HD
ENDROOT
BRANCH   1  14
ATOM     10  C   UNL     1      -0.352   9.307 133.331  0.00  0.00    +0.000 A 
ATOM     11  C   UNL     1      -1.672   9.678 133.014  0.00  0.00    +0.000 A 
ATOM     12 CL   UNL     1      -2.224  11.319 133.113  0.00  0.00    +0.000 Cl
ATOM     13  C   UNL     1      -2.606   8.739 132.522  0.00  0.00    +0.000 A 
ATOM     14  C   UNL     1      -2.248   7.411 132.342  0.00  0.00    +0.000 A 
ATOM     15  C   UNL     1      -0.920   7.110 132.654  0.00  0.00    +0.000 A 
ATOM     16  N   UNL     1       0.018   8.016 133.116  0.00  0.00    +0.000 NA
BRANCH  10  20
ATOM     17  C   UNL     1       1.626  12.546 135.187  0.00  0.00    +0.000 C 
ATOM     18  C   UNL     1       0.788  11.476 135.911  0.00  0.00    +0.000 C 
ATOM     19  C   UNL     1       0.946  10.091 135.281  0.00  0.00    +0.000 C 
ATOM     20  N   UNL     1       0.583  10.177 133.874  0.00  0.00    +0.000 N 
ATOM     21  C   UNL     1       1.458  11.027 133.077  0.00  0.00    +0.000 C 
ATOM     22  C   UNL     1       1.437  12.445 133.660  0.00  0.00    +0.000 C 
BRANCH  17  23
ATOM     23  C   UNL     1       2.930  12.662 135.973  0.00  0.00    +0.000 C 
ATOM     24  O   UNL     1       2.942  13.229 137.063  0.00  0.00    +0.000 OA
BRANCH  23  25
ATOM     25  O   UNL     1       4.039  12.069 135.521  0.00  0.00    +0.000 OA
ATOM     26  H   UNL     1       4.020  11.665 134.642  0.00  0.00    +0.000 HD
ENDBRANCH  23  25
ENDBRANCH  17  23
ENDBRANCH  10  20
ENDBRANCH   1  14
BRANCH   6  27
ATOM     27  C   UNL     1      -7.292   3.267 130.130  0.00  0.00    +0.000 A 
ATOM     28  C   UNL     1      -8.523   3.831 129.868  0.00  0.00    +0.000 A 
ATOM     29  C   UNL     1      -9.587   3.075 130.427  0.00  0.00    +0.000 A 
ATOM     30 CL   UNL     1     -11.224   3.537 130.270  0.00  0.00    +0.000 Cl
ATOM     31  C   UNL     1      -9.132   1.976 131.119  0.00  0.00    +0.000 A 
ATOM     32  S   UNL     1      -7.425   1.822 131.024  0.00  0.00    +0.000 S 
ENDBRANCH   6  27
BRANCH   7  33
ATOM     33  N   UNL     1      -5.524   2.443 127.766  0.00  0.00    +0.000 N 
ATOM     34  C   UNL     1      -5.203   1.044 128.109  0.00  0.00    +0.000 C 
ATOM     35  C   UNL     1      -6.394   0.067 127.884  0.00  0.00    +0.000 C 
ATOM     36  N   UNL     1      -7.154   0.235 126.623  0.00  0.00    +0.000 NA
ATOM     37  C   UNL     1      -7.592   1.645 126.551  0.00  0.00    +0.000 C 
ATOM     38  C   UNL     1      -6.485   2.714 126.670  0.00  0.00    +0.000 C 
BRANCH  36  39
ATOM     39  C   UNL     1      -6.443  -0.265 125.420  0.00  0.00    +0.000 C 
ATOM     40  C   UNL     1      -5.791  -1.635 125.684  0.00  0.00    +0.000 C 
ATOM     41  C   UNL     1      -5.206  -2.252 124.417  0.00  0.00    +0.000 C 
ATOM     42  C   UNL     1      -6.247  -2.362 123.309  0.00  0.00    +0.000 C 
ATOM     43  C   UNL     1      -6.736  -0.987 122.927  0.00  0.00    +0.000 C 
ATOM     44  C   UNL     1      -7.274  -0.278 124.132  0.00  0.00    +0.000 C 
ENDBRANCH  36  39
ENDBRANCH   7  33
TORSDOF 7
ENDMDL
MODEL 4
REMARK VINA RESULT:      -8.8      9.861     11.689
REMARK  Name = Avatrombopag
REMARK  7 active torsions:
REMARK  status: ('A' for Active; 'I' for Inactive)
REMARK    1  A    between atoms: O_1  and  C_2
REMARK    2  A    between atoms: C_2  and  C_4
REMARK    3  A    between atoms: N_7  and  C_10
REMARK    4  A    between atoms: C_14  and  C_17
REMARK    5  A    between atoms: C_22  and  C_23
REMARK    6  A    between atoms: C_29  and  N_31
REMARK    7  A    between atoms: N_34  and  C_37
REMARK                            x       y       z     vdW  Elec       q    Type
REMARK                         _______ _______ _______ _____ _____    ______ ____
ROOT
ATOM      1  C   UNL     1      -3.406   6.677 131.815  0.00  0.00    +0.000 C 
ATOM      2  O   UNL     1      -3.760   5.808 132.587  0.00  0.00    +0.000 OA
ATOM      3  N   UNL     1      -3.802   6.752 130.472  0.00  0.00    +0.000 N 
ATOM      4  C   UNL     1      -4.744   5.859 129.984  0.00  0.00    +0.000 A 
ATOM      5  N   UNL     1      -5.858   5.492 130.561  0.00  0.00    +0.000 NA
ATOM      6  C   UNL     1      -6.496   4.547 129.778  0.00  0.00    +0.000 A 
ATOM      7  C   UNL     1      -5.869   4.201 128.584  0.00  0.00    +0.000 A 
ATOM      8  S   UNL     1      -4.449   5.197 128.431  0.00  0.00    +0.000 S 
ATOM      9  H   UNL     1      -3.306   7.294 129.787  0.00  0.00    +0.000 HD
ENDROOT
BRANCH   1  14
ATOM     10  C   UNL     1      -0.369   9.431 133.333  0.00  0.00    +0.000 A 
ATOM     11  C   UNL     1      -1.656   9.903 133.010  0.00  0.00    +0.000 A 
ATOM     12 CL   UNL     1      -2.082  11.580 133.114  0.00  0.00    +0.000 Cl
ATOM     13  C   UNL     1      -2.655   9.040 132.507  0.00  0.00    +0.000 A 
ATOM     14  C   UNL     1      -2.397   7.688 132.322  0.00  0.00    +0.000 A 
ATOM     15  C   UNL     1      -1.098   7.286 132.641  0.00  0.00    +0.000 A 
ATOM     16  N   UNL     1      -0.097   8.116 133.114  0.00  0.00    +0.000 NA
BRANCH  10  20
ATOM     17  C   UNL     1       1.833  12.487 135.247  0.00  0.00    +0.000 C 
ATOM     18  C   UNL     1       0.937  11.452 135.954  0.00  0.00    +0.000 C 
ATOM     19  C   UNL     1       0.999  10.077 135.285  0.00  0.00    +0.000 C 
ATOM     20  N   UNL     1       0.625  10.225 133.886  0.00  0.00    +0.000 N 
ATOM     21  C   UNL     1       1.543  11.039 133.100  0.00  0.00    +0.000 C 
ATOM     22  C   UNL     1       1.619  12.439 133.721  0.00  0.00    +0.000 C 
BRANCH  17  23
ATOM     23  C   UNL     1       3.150  12.499 136.018  0.00  0.00    +0.000 C 
ATOM     24  O   UNL     1       3.206  13.013 137.133  0.00  0.00    +0.000 OA
BRANCH  23  25
ATOM     25  O   UNL     1       4.221  11.871 135.522  0.00  0.00    +0.000 OA
ATOM     26  H   UNL     1       4.938  11.635 136.128  0.00  0.00    +0.000 HD
ENDBRANCH  23  25
ENDBRANCH  17  23
ENDBRANCH  10  20
ENDBRANCH   1  14
BRANCH   6  27
ATOM     27  C   UNL     1      -7.760   3.891 130.241  0.00  0.00    +0.000 A 
ATOM     28  C   UNL     1      -7.798   2.651 130.842  0.00  0.00    +0.000 A 
ATOM     29  C   UNL     1      -9.128   2.223 131.098  0.00  0.00    +0.000 A 
ATOM     30 CL   UNL     1      -9.484   0.721 131.829  0.00  0.00    +0.000 Cl
ATOM     31  C   UNL     1     -10.059   3.137 130.659  0.00  0.00    +0.000 A 
ATOM     32  S   UNL     1      -9.318   4.542 130.010  0.00  0.00    +0.000 S 
ENDBRANCH   6  27
BRANCH   7  33
ATOM     33  N   UNL     1      -6.286   3.324 127.613  0.00  0.00    +0.000 N 
ATOM     34  C   UNL     1      -7.007   3.849 126.437  0.00  0.00    +0.000 C 
ATOM     35  C   UNL     1      -6.431   3.338 125.084  0.00  0.00    +0.000 C 
ATOM     36  N   UNL     1      -6.100   1.895 125.013  0.00  0.00    +0.000 NA
ATOM     37  C   UNL     1      -5.189   1.590 126.136  0.00  0.00    +0.000 C 
ATOM     38  C   UNL     1      -5.689   1.968 127.547  0.00  0.00    +0.000 C 
BRANCH  36  39
ATOM     39  C   UNL     1      -7.287   1.009 124.908  0.00  0.00    +0.000 C 
ATOM     40  C   UNL     1      -8.139   1.360 123.674  0.00  0.00    +0.000 C 
ATOM     41  C   UNL     1      -9.264   0.355 123.443  0.00  0.00    +0.000 C 
ATOM     42  C   UNL     1      -8.737  -1.071 123.338  0.00  0.00    +0.000 C 
ATOM     43  C   UNL     1      -8.071  -1.467 124.632  0.00  0.00    +0.000 C 
ATOM     44  C   UNL     1      -6.986  -0.493 124.973  0.00  0.00    +0.000 C 
ENDBRANCH  36  39
ENDBRANCH   7  33
TORSDOF 7
ENDMDL
MODEL 5
REMARK VINA RESULT:      -8.7     10.897     12.690
REMARK  Name = Avatrombopag
REMARK  7 active torsions:
REMARK  status: ('A' for Active; 'I' for Inactive)
REMARK    1  A    between atoms: O_1  and  C_2
REMARK    2  A    between atoms: C_2  and  C_4
REMARK    3  A    between atoms: N_7  and  C_10
REMARK    4  A    between atoms: C_14  and  C_17
REMARK    5  A    between atoms: C_22  and  C_23
REMARK    6  A    between atoms: C_29  and  N_31
REMARK    7  A    between atoms: N_34  and  C_37
REMARK                            x       y       z     vdW  Elec       q    Type
REMARK                         _______ _______ _______ _____ _____    ______ ____
ROOT
ATOM      1  C   UNL     1      -3.095   7.796 132.485  0.00  0.00    +0.000 C 
ATOM      2  O   UNL     1      -3.446   6.952 133.285  0.00  0.00    +0.000 OA
ATOM      3  N   UNL     1      -3.371   7.749 131.111  0.00  0.00    +0.000 N 
ATOM      4  C   UNL     1      -4.190   6.747 130.611  0.00  0.00    +0.000 A 
ATOM      5  N   UNL     1      -5.318   6.323 131.115  0.00  0.00    +0.000 NA
ATOM      6  C   UNL     1      -5.804   5.277 130.351  0.00  0.00    +0.000 A 
ATOM      7  C   UNL     1      -5.045   4.910 129.243  0.00  0.00    +0.000 A 
ATOM      8  S   UNL     1      -3.702   6.014 129.141  0.00  0.00    +0.000 S 
ATOM      9  H   UNL     1      -2.861   8.286 130.433  0.00  0.00    +0.000 HD
ENDROOT
BRANCH   1  14
ATOM     10  C   UNL     1      -0.531  10.922 134.147  0.00  0.00    +0.000 A 
ATOM     11  C   UNL     1      -1.375  11.203 133.056  0.00  0.00    +0.000 A 
ATOM     12 CL   UNL     1      -1.390  12.748 132.268  0.00  0.00    +0.000 Cl
ATOM     13  C   UNL     1      -2.207  10.211 132.490  0.00  0.00    +0.000 A 
ATOM     14  C   UNL     1      -2.222   8.922 133.002  0.00  0.00    +0.000 A 
ATOM     15  C   UNL     1      -1.348   8.701 134.070  0.00  0.00    +0.000 A 
ATOM     16  N   UNL     1      -0.509   9.649 134.626  0.00  0.00    +0.000 NA
BRANCH  10  20
ATOM     17  C   UNL     1       1.510  14.447 135.271  0.00  0.00    +0.000 C 
ATOM     18  C   UNL     1       0.001  14.190 135.450  0.00  0.00    +0.000 C 
ATOM     19  C   UNL     1      -0.300  12.733 135.809  0.00  0.00    +0.000 C 
ATOM     20  N   UNL     1       0.258  11.875 134.775  0.00  0.00    +0.000 N 
ATOM     21  C   UNL     1       1.711  11.918 134.676  0.00  0.00    +0.000 C 
ATOM     22  C   UNL     1       2.145  13.359 134.382  0.00  0.00    +0.000 C 
BRANCH  17  23
ATOM     23  C   UNL     1       2.007  14.983 136.611  0.00  0.00    +0.000 C 
ATOM     24  O   UNL     1       1.750  16.138 136.944  0.00  0.00    +0.000 OA
BRANCH  23  25
ATOM     25  O   UNL     1       2.643  14.173 137.462  0.00  0.00    +0.000 OA
ATOM     26  H   UNL     1       3.017  13.348 137.121  0.00  0.00    +0.000 HD
ENDBRANCH  23  25
ENDBRANCH  17  23
ENDBRANCH  10  20
ENDBRANCH   1  14
BRANCH   6  27
ATOM     27  C   UNL     1      -7.047   4.546 130.750  0.00  0.00    +0.000 A 
ATOM     28  C   UNL     1      -8.303   4.862 130.278  0.00  0.00    +0.000 A 
ATOM     29  C   UNL     1      -9.317   4.074 130.886  0.00  0.00    +0.000 A 
ATOM     30 CL   UNL     1     -10.971   4.251 130.500  0.00  0.00    +0.000 Cl
ATOM     31  C   UNL     1      -8.804   3.204 131.820  0.00  0.00    +0.000 A 
ATOM     32  S   UNL     1      -7.092   3.290 131.902  0.00  0.00    +0.000 S 
ENDBRANCH   6  27
BRANCH   7  33
ATOM     33  N   UNL     1      -5.299   3.939 128.306  0.00  0.00    +0.000 N 
ATOM     34  C   UNL     1      -6.225   4.240 127.197  0.00  0.00    +0.000 C 
ATOM     35  C   UNL     1      -5.649   3.872 125.798  0.00  0.00    +0.000 C 
ATOM     36  N   UNL     1      -4.963   2.562 125.693  0.00  0.00    +0.000 NA
ATOM     37  C   UNL     1      -3.916   2.522 126.735  0.00  0.00    +0.000 C 
ATOM     38  C   UNL     1      -4.380   2.782 128.184  0.00  0.00    +0.000 C 
BRANCH  36  39
ATOM     39  C   UNL     1      -5.886   1.399 125.683  0.00  0.00    +0.000 C 
ATOM     40  C   UNL     1      -6.782   1.407 124.431  0.00  0.00    +0.000 C 
ATOM     41  C   UNL     1      -7.613   0.133 124.305  0.00  0.00    +0.000 C 
ATOM     42  C   UNL     1      -6.740  -1.117 124.328  0.00  0.00    +0.000 C 
ATOM     43  C   UNL     1      -6.014  -1.210 125.647  0.00  0.00    +0.000 C 
ATOM     44  C   UNL     1      -5.215   0.035 125.884  0.00  0.00    +0.000 C 
ENDBRANCH  36  39
ENDBRANCH   7  33
TORSDOF 7
ENDMDL
MODEL 6
REMARK VINA RESULT:      -8.6      8.752     10.708
REMARK  Name = Avatrombopag
REMARK  7 active torsions:
REMARK  status: ('A' for Active; 'I' for Inactive)
REMARK    1  A    between atoms: O_1  and  C_2
REMARK    2  A    between atoms: C_2  and  C_4
REMARK    3  A    between atoms: N_7  and  C_10
REMARK    4  A    between atoms: C_14  and  C_17
REMARK    5  A    between atoms: C_22  and  C_23
REMARK    6  A    between atoms: C_29  and  N_31
REMARK    7  A    between atoms: N_34  and  C_37
REMARK                            x       y       z     vdW  Elec       q    Type
REMARK                         _______ _______ _______ _____ _____    ______ ____
ROOT
ATOM      1  C   UNL     1      -3.021   4.947 131.450  0.00  0.00    +0.000 C 
ATOM      2  O   UNL     1      -2.254   4.007 131.527  0.00  0.00    +0.000 OA
ATOM      3  N   UNL     1      -4.260   4.908 130.796  0.00  0.00    +0.000 N 
ATOM      4  C   UNL     1      -4.728   3.706 130.286  0.00  0.00    +0.000 A 
ATOM      5  N   UNL     1      -4.707   2.538 130.872  0.00  0.00    +0.000 NA
ATOM      6  C   UNL     1      -5.220   1.580 130.015  0.00  0.00    +0.000 A 
ATOM      7  C   UNL     1      -5.648   2.026 128.767  0.00  0.00    +0.000 A 
ATOM      8  S   UNL     1      -5.461   3.757 128.738  0.00  0.00    +0.000 S 
ATOM      9  H   UNL     1      -4.750   5.735 130.505  0.00  0.00    +0.000 HD
ENDROOT
BRANCH   1  14
ATOM     10  C   UNL     1      -1.806   8.865 132.962  0.00  0.00    +0.000 A 
ATOM     11  C   UNL     1      -1.090   7.710 133.331  0.00  0.00    +0.000 A 
ATOM     12 CL   UNL     1       0.236   7.756 134.447  0.00  0.00    +0.000 Cl
ATOM     13  C   UNL     1      -1.465   6.429 132.868  0.00  0.00    +0.000 A 
ATOM     14  C   UNL     1      -2.554   6.271 132.022  0.00  0.00    +0.000 A 
ATOM     15  C   UNL     1      -3.234   7.451 131.709  0.00  0.00    +0.000 A 
ATOM     16  N   UNL     1      -2.899   8.713 132.168  0.00  0.00    +0.000 NA
BRANCH  10  20
ATOM     17  C   UNL     1      -1.381  13.051 133.342  0.00  0.00    +0.000 C 
ATOM     18  C   UNL     1      -2.595  12.228 133.815  0.00  0.00    +0.000 C 
ATOM     19  C   UNL     1      -2.188  10.860 134.367  0.00  0.00    +0.000 C 
ATOM     20  N   UNL     1      -1.441  10.150 133.340  0.00  0.00    +0.000 N 
ATOM     21  C   UNL     1      -0.174  10.771 132.977  0.00  0.00    +0.000 C 
ATOM     22  C   UNL     1      -0.447  12.191 132.467  0.00  0.00    +0.000 C 
BRANCH  17  23
ATOM     23  C   UNL     1      -1.010  13.962 134.511  0.00  0.00    +0.000 C 
ATOM     24  O   UNL     1      -1.872  14.651 135.051  0.00  0.00    +0.000 OA
BRANCH  23  25
ATOM     25  O   UNL     1       0.231  13.943 135.006  0.00  0.00    +0.000 OA
ATOM     26  H   UNL     1       0.368  13.584 135.894  0.00  0.00    +0.000 HD
ENDBRANCH  23  25
ENDBRANCH  17  23
ENDBRANCH  10  20
ENDBRANCH   1  14
BRANCH   6  27
ATOM     27  C   UNL     1      -5.239   0.134 130.401  0.00  0.00    +0.000 A 
ATOM     28  C   UNL     1      -4.287  -0.776 129.994  0.00  0.00    +0.000 A 
ATOM     29  C   UNL     1      -4.592  -2.095 130.423  0.00  0.00    +0.000 A 
ATOM     30 CL   UNL     1      -3.593  -3.432 130.059  0.00  0.00    +0.000 Cl
ATOM     31  C   UNL     1      -5.778  -2.152 131.119  0.00  0.00    +0.000 A 
ATOM     32  S   UNL     1      -6.478  -0.597 131.315  0.00  0.00    +0.000 S 
ENDBRANCH   6  27
BRANCH   7  33
ATOM     33  N   UNL     1      -6.218   1.309 127.744  0.00  0.00    +0.000 N 
ATOM     34  C   UNL     1      -7.608   0.837 127.888  0.00  0.00    +0.000 C 
ATOM     35  C   UNL     1      -8.504   1.177 126.661  0.00  0.00    +0.000 C 
ATOM     36  N   UNL     1      -7.906   0.942 125.325  0.00  0.00    +0.000 NA
ATOM     37  C   UNL     1      -6.623   1.673 125.275  0.00  0.00    +0.000 C 
ATOM     38  C   UNL     1      -5.607   1.353 126.393  0.00  0.00    +0.000 C 
BRANCH  36  39
ATOM     39  C   UNL     1      -7.830  -0.490 124.944  0.00  0.00    +0.000 C 
ATOM     40  C   UNL     1      -9.062  -1.269 125.441  0.00  0.00    +0.000 C 
ATOM     41  C   UNL     1      -9.096  -2.700 124.912  0.00  0.00    +0.000 C 
ATOM     42  C   UNL     1      -9.017  -2.743 123.391  0.00  0.00    +0.000 C 
ATOM     43  C   UNL     1      -7.710  -2.148 122.928  0.00  0.00    +0.000 C 
ATOM     44  C   UNL     1      -7.562  -0.754 123.457  0.00  0.00    +0.000 C 
ENDBRANCH  36  39
ENDBRANCH   7  33
TORSDOF 7
ENDMDL
MODEL 7
REMARK VINA RESULT:      -8.6      9.510     11.552
REMARK  Name = Avatrombopag
REMARK  7 active torsions:
REMARK  status: ('A' for Active; 'I' for Inactive)
REMARK    1  A    between atoms: O_1  and  C_2
REMARK    2  A    between atoms: C_2  and  C_4
REMARK    3  A    between atoms: N_7  and  C_10
REMARK    4  A    between atoms: C_14  and  C_17
REMARK    5  A    between atoms: C_22  and  C_23
REMARK    6  A    between atoms: C_29  and  N_31
REMARK    7  A    between atoms: N_34  and  C_37
REMARK                            x       y       z     vdW  Elec       q    Type
REMARK                         _______ _______ _______ _____ _____    ______ ____
ROOT
ATOM      1  C   UNL     1      -3.104   5.718 132.384  0.00  0.00    +0.000 C 
ATOM      2  O   UNL     1      -3.177   4.752 133.117  0.00  0.00    +0.000 OA
ATOM      3  N   UNL     1      -3.625   5.768 131.084  0.00  0.00    +0.000 N 
ATOM      4  C   UNL     1      -4.378   4.705 130.607  0.00  0.00    +0.000 A 
ATOM      5  N   UNL     1      -5.321   4.057 131.239  0.00  0.00    +0.000 NA
ATOM      6  C   UNL     1      -5.794   3.031 130.442  0.00  0.00    +0.000 A 
ATOM      7  C   UNL     1      -5.214   2.903 129.182  0.00  0.00    +0.000 A 
ATOM      8  S   UNL     1      -4.081   4.211 128.993  0.00  0.00    +0.000 S 
ATOM      9  H   UNL     1      -3.331   6.445 130.403  0.00  0.00    +0.000 HD
ENDROOT
BRANCH   1  14
ATOM     10  C   UNL     1      -0.932   9.280 133.692  0.00  0.00    +0.000 A 
ATOM     11  C   UNL     1      -0.481   7.999 134.063  0.00  0.00    +0.000 A 
ATOM     12 CL   UNL     1       0.884   7.761 135.105  0.00  0.00    +0.000 Cl
ATOM     13  C   UNL     1      -1.167   6.830 133.665  0.00  0.00    +0.000 A 
ATOM     14  C   UNL     1      -2.312   6.911 132.884  0.00  0.00    +0.000 A 
ATOM     15  C   UNL     1      -2.719   8.209 132.566  0.00  0.00    +0.000 A 
ATOM     16  N   UNL     1      -2.076   9.368 132.962  0.00  0.00    +0.000 NA
BRANCH  10  20
ATOM     17  C   UNL     1       1.973  12.218 134.573  0.00  0.00    +0.000 C 
ATOM     18  C   UNL     1       1.697  11.623 133.179  0.00  0.00    +0.000 C 
ATOM     19  C   UNL     1       0.210  11.342 132.953  0.00  0.00    +0.000 C 
ATOM     20  N   UNL     1      -0.260  10.453 134.005  0.00  0.00    +0.000 N 
ATOM     21  C   UNL     1      -0.211  11.025 135.344  0.00  0.00    +0.000 C 
ATOM     22  C   UNL     1       1.237  11.415 135.664  0.00  0.00    +0.000 C 
BRANCH  17  23
ATOM     23  C   UNL     1       2.019  13.733 134.381  0.00  0.00    +0.000 C 
ATOM     24  O   UNL     1       1.456  14.472 135.186  0.00  0.00    +0.000 OA
BRANCH  23  25
ATOM     25  O   UNL     1       2.746  14.260 133.392  0.00  0.00    +0.000 OA
ATOM     26  H   UNL     1       3.704  14.126 133.402  0.00  0.00    +0.000 HD
ENDBRANCH  23  25
ENDBRANCH  17  23
ENDBRANCH  10  20
ENDBRANCH   1  14
BRANCH   6  27
ATOM     27  C   UNL     1      -6.826   2.074 130.951  0.00  0.00    +0.000 A 
ATOM     28  C   UNL     1      -6.528   0.973 131.725  0.00  0.00    +0.000 A 
ATOM     29  C   UNL     1      -7.677   0.183 131.995  0.00  0.00    +0.000 A 
ATOM     30 CL   UNL     1      -7.609  -1.248 132.925  0.00  0.00    +0.000 Cl
ATOM     31  C   UNL     1      -8.806   0.691 131.396  0.00  0.00    +0.000 A 
ATOM     32  S   UNL     1      -8.485   2.164 130.574  0.00  0.00    +0.000 S 
ENDBRANCH   6  27
BRANCH   7  33
ATOM     33  N   UNL     1      -5.506   2.004 128.186  0.00  0.00    +0.000 N 
ATOM     34  C   UNL     1      -5.131   0.588 128.367  0.00  0.00    +0.000 C 
ATOM     35  C   UNL     1      -6.299  -0.399 128.072  0.00  0.00    +0.000 C 
ATOM     36  N   UNL     1      -7.103  -0.123 126.858  0.00  0.00    +0.000 NA
ATOM     37  C   UNL     1      -7.586   1.271 126.950  0.00  0.00    +0.000 C 
ATOM     38  C   UNL     1      -6.509   2.358 127.152  0.00  0.00    +0.000 C 
BRANCH  36  39
ATOM     39  C   UNL     1      -6.414  -0.468 125.589  0.00  0.00    +0.000 C 
ATOM     40  C   UNL     1      -5.816  -1.886 125.644  0.00  0.00    +0.000 C 
ATOM     41  C   UNL     1      -5.259  -2.332 124.295  0.00  0.00    +0.000 C 
ATOM     42  C   UNL     1      -6.306  -2.237 123.191  0.00  0.00    +0.000 C 
ATOM     43  C   UNL     1      -6.741  -0.804 123.019  0.00  0.00    +0.000 C 
ATOM     44  C   UNL     1      -7.248  -0.259 124.319  0.00  0.00    +0.000 C 
ENDBRANCH  36  39
ENDBRANCH   7  33
TORSDOF 7
ENDMDL
MODEL 8
REMARK VINA RESULT:      -8.5      8.869     10.993
REMARK  Name = Avatrombopag
REMARK  7 active torsions:
REMARK  status: ('A' for Active; 'I' for Inactive)
REMARK    1  A    between atoms: O_1  and  C_2
REMARK    2  A    between atoms: C_2  and  C_4
REMARK    3  A    between atoms: N_7  and  C_10
REMARK    4  A    between atoms: C_14  and  C_17
REMARK    5  A    between atoms: C_22  and  C_23
REMARK    6  A    between atoms: C_29  and  N_31
REMARK    7  A    between atoms: N_34  and  C_37
REMARK                            x       y       z     vdW  Elec       q    Type
REMARK                         _______ _______ _______ _____ _____    ______ ____
ROOT
ATOM      1  C   UNL     1      -3.717   6.391 129.869  0.00  0.00    +0.000 C 
ATOM      2  O   UNL     1      -4.614   6.943 129.263  0.00  0.00    +0.000 OA
ATOM      3  N   UNL     1      -3.382   5.037 129.728  0.00  0.00    +0.000 N 
ATOM      4  C   UNL     1      -4.019   4.271 128.763  0.00  0.00    +0.000 A 
ATOM      5  N   UNL     1      -4.268   4.605 127.525  0.00  0.00    +0.000 NA
ATOM      6  C   UNL     1      -4.965   3.587 126.900  0.00  0.00    +0.000 A 
ATOM      7  C   UNL     1      -5.239   2.457 127.667  0.00  0.00    +0.000 A 
ATOM      8  S   UNL     1      -4.491   2.688 129.222  0.00  0.00    +0.000 S 
ATOM      9  H   UNL     1      -2.841   4.535 130.409  0.00  0.00    +0.000 HD
ENDROOT
BRANCH   1  14
ATOM     10  C   UNL     1      -1.690   8.917 132.805  0.00  0.00    +0.000 A 
ATOM     11  C   UNL     1      -1.266   7.590 132.598  0.00  0.00    +0.000 A 
ATOM     12 CL   UNL     1       0.004   6.865 133.530  0.00  0.00    +0.000 Cl
ATOM     13  C   UNL     1      -1.908   6.746 131.664  0.00  0.00    +0.000 A 
ATOM     14  C   UNL     1      -2.979   7.206 130.912  0.00  0.00    +0.000 A 
ATOM     15  C   UNL     1      -3.365   8.523 131.178  0.00  0.00    +0.000 A 
ATOM     16  N   UNL     1      -2.766   9.361 132.102  0.00  0.00    +0.000 NA
BRANCH  10  20
ATOM     17  C   UNL     1       1.093  11.000 135.207  0.00  0.00    +0.000 C 
ATOM     18  C   UNL     1       1.026  11.048 133.668  0.00  0.00    +0.000 C 
ATOM     19  C   UNL     1      -0.412  11.003 133.149  0.00  0.00    +0.000 C 
ATOM     20  N   UNL     1      -1.054   9.803 133.664  0.00  0.00    +0.000 N 
ATOM     21  C   UNL     1      -1.204   9.774 135.112  0.00  0.00    +0.000 C 
ATOM     22  C   UNL     1       0.183   9.883 135.756  0.00  0.00    +0.000 C 
BRANCH  17  23
ATOM     23  C   UNL     1       1.193  12.452 135.669  0.00  0.00    +0.000 C 
ATOM     24  O   UNL     1       0.531  12.839 136.629  0.00  0.00    +0.000 OA
BRANCH  23  25
ATOM     25  O   UNL     1       2.068  13.279 135.088  0.00  0.00    +0.000 OA
ATOM     26  H   UNL     1       2.828  13.581 135.604  0.00  0.00    +0.000 HD
ENDBRANCH  23  25
ENDBRANCH  17  23
ENDBRANCH  10  20
ENDBRANCH   1  14
BRANCH   6  27
ATOM     27  C   UNL     1      -5.453   3.740 125.493  0.00  0.00    +0.000 A 
ATOM     28  C   UNL     1      -4.650   4.142 124.447  0.00  0.00    +0.000 A 
ATOM     29  C   UNL     1      -5.381   4.294 123.239  0.00  0.00    +0.000 A 
ATOM     30 CL   UNL     1      -4.648   4.790 121.779  0.00  0.00    +0.000 Cl
ATOM     31  C   UNL     1      -6.721   4.030 123.410  0.00  0.00    +0.000 A 
ATOM     32  S   UNL     1      -7.074   3.525 125.012  0.00  0.00    +0.000 S 
ENDBRANCH   6  27
BRANCH   7  33
ATOM     33  N   UNL     1      -5.881   1.301 127.300  0.00  0.00    +0.000 N 
ATOM     34  C   UNL     1      -5.098   0.211 126.686  0.00  0.00    +0.000 C 
ATOM     35  C   UNL     1      -5.348  -1.175 127.348  0.00  0.00    +0.000 C 
ATOM     36  N   UNL     1      -6.759  -1.519 127.643  0.00  0.00    +0.000 NA
ATOM     37  C   UNL     1      -7.325  -0.422 128.457  0.00  0.00    +0.000 C 
ATOM     38  C   UNL     1      -7.220   0.998 127.861  0.00  0.00    +0.000 C 
BRANCH  36  39
ATOM     39  C   UNL     1      -7.552  -1.885 126.443  0.00  0.00    +0.000 C 
ATOM     40  C   UNL     1      -6.673  -2.567 125.378  0.00  0.00    +0.000 C 
ATOM     41  C   UNL     1      -7.494  -3.113 124.212  0.00  0.00    +0.000 C 
ATOM     42  C   UNL     1      -8.589  -4.061 124.686  0.00  0.00    +0.000 C 
ATOM     43  C   UNL     1      -9.555  -3.323 125.578  0.00  0.00    +0.000 C 
ATOM     44  C   UNL     1      -8.822  -2.697 126.725  0.00  0.00    +0.000 C 
ENDBRANCH  36  39
ENDBRANCH   7  33
TORSDOF 7
ENDMDL
MODEL 9
REMARK VINA RESULT:      -8.4      7.997      9.970
REMARK  Name = Avatrombopag
REMARK  7 active torsions:
REMARK  status: ('A' for Active; 'I' for Inactive)
REMARK    1  A    between atoms: O_1  and  C_2
REMARK    2  A    between atoms: C_2  and  C_4
REMARK    3  A    between atoms: N_7  and  C_10
REMARK    4  A    between atoms: C_14  and  C_17
REMARK    5  A    between atoms: C_22  and  C_23
REMARK    6  A    between atoms: C_29  and  N_31
REMARK    7  A    between atoms: N_34  and  C_37
REMARK                            x       y       z     vdW  Elec       q    Type
REMARK                         _______ _______ _______ _____ _____    ______ ____
ROOT
ATOM      1  C   UNL     1      -4.741   5.330 129.672  0.00  0.00    +0.000 C 
ATOM      2  O   UNL     1      -5.802   5.760 129.266  0.00  0.00    +0.000 OA
ATOM      3  N   UNL     1      -4.190   4.097 129.296  0.00  0.00    +0.000 N 
ATOM      4  C   UNL     1      -4.811   3.340 128.315  0.00  0.00    +0.000 A 
ATOM      5  N   UNL     1      -5.295   3.763 127.177  0.00  0.00    +0.000 NA
ATOM      6  C   UNL     1      -5.879   2.709 126.499  0.00  0.00    +0.000 A 
ATOM      7  C   UNL     1      -5.827   1.463 127.121  0.00  0.00    +0.000 A 
ATOM      8  S   UNL     1      -4.914   1.652 128.592  0.00  0.00    +0.000 S 
ATOM      9  H   UNL     1      -3.472   3.636 129.827  0.00  0.00    +0.000 HD
ENDROOT
BRANCH   1  14
ATOM     10  C   UNL     1      -2.627   7.835 132.565  0.00  0.00    +0.000 A 
ATOM     11  C   UNL     1      -2.930   6.495 132.875  0.00  0.00    +0.000 A 
ATOM     12 CL   UNL     1      -2.566   5.794 134.419  0.00  0.00    +0.000 Cl
ATOM     13  C   UNL     1      -3.622   5.664 131.966  0.00  0.00    +0.000 A 
ATOM     14  C   UNL     1      -4.019   6.146 130.727  0.00  0.00    +0.000 A 
ATOM     15  C   UNL     1      -3.708   7.486 130.487  0.00  0.00    +0.000 A 
ATOM     16  N   UNL     1      -3.051   8.326 131.370  0.00  0.00    +0.000 NA
BRANCH  10  20
ATOM     17  C   UNL     1      -0.712  11.125 134.398  0.00  0.00    +0.000 C 
ATOM     18  C   UNL     1      -2.227  10.845 134.420  0.00  0.00    +0.000 C 
ATOM     19  C   UNL     1      -2.539   9.350 134.514  0.00  0.00    +0.000 C 
ATOM     20  N   UNL     1      -1.897   8.671 133.398  0.00  0.00    +0.000 N 
ATOM     21  C   UNL     1      -0.442   8.727 133.416  0.00  0.00    +0.000 C 
ATOM     22  C   UNL     1      -0.002  10.195 133.394  0.00  0.00    +0.000 C 
BRANCH  17  23
ATOM     23  C   UNL     1      -0.321  11.435 135.841  0.00  0.00    +0.000 C 
ATOM     24  O   UNL     1      -1.152  11.905 136.615  0.00  0.00    +0.000 OA
BRANCH  23  25
ATOM     25  O   UNL     1       0.896  11.111 136.289  0.00  0.00    +0.000 OA
ATOM     26  H   UNL     1       1.205  11.513 137.113  0.00  0.00    +0.000 HD
ENDBRANCH  23  25
ENDBRANCH  17  23
ENDBRANCH  10  20
ENDBRANCH   1  14
BRANCH   6  27
ATOM     27  C   UNL     1      -6.587   2.928 125.199  0.00  0.00    +0.000 A 
ATOM     28  C   UNL     1      -5.936   3.157 124.006  0.00  0.00    +0.000 A 
ATOM     29  C   UNL     1      -6.842   3.424 122.945  0.00  0.00    +0.000 A 
ATOM     30 CL   UNL     1      -6.320   3.753 121.353  0.00  0.00    +0.000 Cl
ATOM     31  C   UNL     1      -8.151   3.417 123.370  0.00  0.00    +0.000 A 
ATOM     32  S   UNL     1      -8.281   3.010 125.032  0.00  0.00    +0.000 S 
ENDBRANCH   6  27
BRANCH   7  33
ATOM     33  N   UNL     1      -6.295   0.254 126.670  0.00  0.00    +0.000 N 
ATOM     34  C   UNL     1      -5.325  -0.800 126.313  0.00  0.00    +0.000 C 
ATOM     35  C   UNL     1      -5.646  -2.177 126.965  0.00  0.00    +0.000 C 
ATOM     36  N   UNL     1      -7.065  -2.605 126.933  0.00  0.00    +0.000 NA
ATOM     37  C   UNL     1      -7.871  -1.523 127.535  0.00  0.00    +0.000 C 
ATOM     38  C   UNL     1      -7.710  -0.120 126.913  0.00  0.00    +0.000 C 
BRANCH  36  39
ATOM     39  C   UNL     1      -7.525  -3.065 125.599  0.00  0.00    +0.000 C 
ATOM     40  C   UNL     1      -9.062  -3.051 125.501  0.00  0.00    +0.000 C 
ATOM     41  C   UNL     1      -9.555  -3.347 124.087  0.00  0.00    +0.000 C 
ATOM     42  C   UNL     1      -8.946  -2.395 123.064  0.00  0.00    +0.000 C 
ATOM     43  C   UNL     1      -7.447  -2.563 123.036  0.00  0.00    +0.000 C 
ATOM     44  C   UNL     1      -6.879  -2.349 124.406  0.00  0.00    +0.000 C 
ENDBRANCH  36  39
ENDBRANCH   7  33
TORSDOF 7
ENDMDL
