MODEL 1
REMARK VINA RESULT:      -6.3      0.000      0.000
REMARK  Name = Avibactam
REMARK  4 active torsions:
REMARK  status: ('A' for Active; 'I' for Inactive)
REMARK    1  A    between atoms: C_2  and  C_4
REMARK    2  A    between atoms: N_12  and  O_13
REMARK    3  A    between atoms: O_13  and  S_14
REMARK    4  A    between atoms: S_14  and  O_15
REMARK                            x       y       z     vdW  Elec       q    Type
REMARK                         _______ _______ _______ _____ _____    ______ ____
ROOT
ATOM      1  C   UNL     1      -8.853   4.396 131.674  0.00  0.00    +0.000 C 
ATOM      2  C   UNL     1      -8.639   5.621 132.619  0.00  0.00    +0.000 C 
ATOM      3  C   UNL     1      -8.220   6.599 131.607  0.00  0.00    +0.000 C 
ATOM      4  C   UNL     1      -9.638   6.811 131.008  0.00  0.00    +0.000 C 
ATOM      5  C   UNL     1     -10.727   5.592 130.974  0.00  0.00    +0.000 C 
ATOM      6  N   UNL     1      -9.765   4.745 130.439  0.00  0.00    +0.000 N 
ATOM      7  C   UNL     1      -9.488   5.695 129.235  0.00  0.00    +0.000 C 
ATOM      8  O   UNL     1      -9.046   5.356 128.152  0.00  0.00    +0.000 OA
ATOM      9  N   UNL     1      -9.655   7.112 129.675  0.00  0.00    +0.000 N 
ENDROOT
BRANCH   1  11
ATOM     10  N   UNL     1      -9.686   3.885 133.885  0.00  0.00    +0.000 N 
ATOM     11  C   UNL     1      -9.465   3.389 132.650  0.00  0.00    +0.000 C 
ATOM     12  O   UNL     1      -9.738   2.223 132.375  0.00  0.00    +0.000 OA
ATOM     13  H   UNL     1     -10.117   3.273 134.562  0.00  0.00    +0.000 HD
ATOM     14  H   UNL     1      -9.384   4.814 134.136  0.00  0.00    +0.000 HD
ENDBRANCH   1  11
BRANCH   9  15
ATOM     15  O   UNL     1     -11.010   7.812 129.720  0.00  0.00    +0.000 OA
BRANCH  15  16
ATOM     16  S   UNL     1     -11.750   8.089 128.147  0.00  0.00    +0.000 S 
ATOM     17  O   UNL     1     -12.887   8.941 128.340  0.00  0.00    +0.000 OA
ATOM     18  O   UNL     1     -10.722   8.394 127.150  0.00  0.00    +0.000 OA
BRANCH  16  19
ATOM     19  O   UNL     1     -12.377   6.662 127.606  0.00  0.00    +0.000 OA
ATOM     20  H   UNL     1     -13.356   6.726 127.476  0.00  0.00    +0.000 HD
ENDBRANCH  16  19
ENDBRANCH  15  16
ENDBRANCH   9  15
TORSDOF 4
ENDMDL
MODEL 2
REMARK VINA RESULT:      -6.1      3.148      5.687
REMARK  Name = Avibactam
REMARK  4 active torsions:
REMARK  status: ('A' for Active; 'I' for Inactive)
REMARK    1  A    between atoms: C_2  and  C_4
REMARK    2  A    between atoms: N_12  and  O_13
REMARK    3  A    between atoms: O_13  and  S_14
REMARK    4  A    between atoms: S_14  and  O_15
REMARK                            x       y       z     vdW  Elec       q    Type
REMARK                         _______ _______ _______ _____ _____    ______ ____
ROOT
ATOM      1  C   UNL     1     -12.258   7.240 129.131  0.00  0.00    +0.000 C 
ATOM      2  C   UNL     1     -12.705   8.102 130.354  0.00  0.00    +0.000 C 
ATOM      3  C   UNL     1     -12.748   7.034 131.361  0.00  0.00    +0.000 C 
ATOM      4  C   UNL     1     -11.207   6.910 131.514  0.00  0.00    +0.000 C 
ATOM      5  C   UNL     1     -10.212   7.186 130.246  0.00  0.00    +0.000 C 
ATOM      6  N   UNL     1     -10.994   6.358 129.450  0.00  0.00    +0.000 N 
ATOM      7  C   UNL     1     -10.844   5.151 130.425  0.00  0.00    +0.000 C 
ATOM      8  O   UNL     1     -10.941   3.977 130.117  0.00  0.00    +0.000 OA
ATOM      9  N   UNL     1     -10.764   5.656 131.827  0.00  0.00    +0.000 N 
ENDROOT
BRANCH   1  11
ATOM     10  N   UNL     1     -12.642   9.500 128.361  0.00  0.00    +0.000 N 
ATOM     11  C   UNL     1     -12.022   8.333 128.086  0.00  0.00    +0.000 C 
ATOM     12  O   UNL     1     -11.341   8.199 127.072  0.00  0.00    +0.000 OA
ATOM     13  H   UNL     1     -12.496  10.266 127.721  0.00  0.00    +0.000 HD
ATOM     14  H   UNL     1     -13.269   9.585 129.147  0.00  0.00    +0.000 HD
ENDBRANCH   1  11
BRANCH   9  15
ATOM     15  O   UNL     1      -9.463   6.136 132.463  0.00  0.00    +0.000 OA
BRANCH  15  16
ATOM     16  S   UNL     1      -8.618   4.923 133.420  0.00  0.00    +0.000 S 
ATOM     17  O   UNL     1      -7.929   4.051 132.514  0.00  0.00    +0.000 OA
ATOM     18  O   UNL     1      -7.932   5.556 134.548  0.00  0.00    +0.000 OA
BRANCH  16  19
ATOM     19  O   UNL     1      -9.739   3.966 134.159  0.00  0.00    +0.000 OA
ATOM     20  H   UNL     1     -10.040   3.238 133.560  0.00  0.00    +0.000 HD
ENDBRANCH  16  19
ENDBRANCH  15  16
ENDBRANCH   9  15
TORSDOF 4
ENDMDL
MODEL 3
REMARK VINA RESULT:      -5.8      1.698      2.164
REMARK  Name = Avibactam
REMARK  4 active torsions:
REMARK  status: ('A' for Active; 'I' for Inactive)
REMARK    1  A    between atoms: C_2  and  C_4
REMARK    2  A    between atoms: N_12  and  O_13
REMARK    3  A    between atoms: O_13  and  S_14
REMARK    4  A    between atoms: S_14  and  O_15
REMARK                            x       y       z     vdW  Elec       q    Type
REMARK                         _______ _______ _______ _____ _____    ______ ____
ROOT
ATOM      1  C   UNL     1      -8.787   5.064 132.243  0.00  0.00    +0.000 C 
ATOM      2  C   UNL     1      -8.048   6.357 131.771  0.00  0.00    +0.000 C 
ATOM      3  C   UNL     1      -8.488   6.353 130.370  0.00  0.00    +0.000 C 
ATOM      4  C   UNL     1      -9.939   6.820 130.668  0.00  0.00    +0.000 C 
ATOM      5  C   UNL     1     -10.690   6.395 132.057  0.00  0.00    +0.000 C 
ATOM      6  N   UNL     1     -10.313   5.073 131.860  0.00  0.00    +0.000 N 
ATOM      7  C   UNL     1     -10.986   5.011 130.455  0.00  0.00    +0.000 C 
ATOM      8  O   UNL     1     -11.388   4.001 129.906  0.00  0.00    +0.000 OA
ATOM      9  N   UNL     1     -10.880   6.347 129.797  0.00  0.00    +0.000 N 
ENDROOT
BRANCH   1  11
ATOM     10  N   UNL     1      -9.133   4.146 134.453  0.00  0.00    +0.000 N 
ATOM     11  C   UNL     1      -8.509   5.113 133.747  0.00  0.00    +0.000 C 
ATOM     12  O   UNL     1      -7.794   5.944 134.302  0.00  0.00    +0.000 OA
ATOM     13  H   UNL     1      -8.961   4.112 135.447  0.00  0.00    +0.000 HD
ATOM     14  H   UNL     1      -9.786   3.517 134.012  0.00  0.00    +0.000 HD
ENDBRANCH   1  11
BRANCH   9  15
ATOM     15  O   UNL     1     -11.871   7.478 130.054  0.00  0.00    +0.000 OA
BRANCH  15  16
ATOM     16  S   UNL     1     -12.343   8.386 128.621  0.00  0.00    +0.000 S 
ATOM     17  O   UNL     1     -11.176   8.558 127.806  0.00  0.00    +0.000 OA
ATOM     18  O   UNL     1     -13.591   7.852 128.072  0.00  0.00    +0.000 OA
BRANCH  16  19
ATOM     19  O   UNL     1     -12.766   9.912 129.084  0.00  0.00    +0.000 OA
ATOM     20  H   UNL     1     -12.654  10.556 128.341  0.00  0.00    +0.000 HD
ENDBRANCH  16  19
ENDBRANCH  15  16
ENDBRANCH   9  15
TORSDOF 4
ENDMDL
MODEL 4
REMARK VINA RESULT:      -5.6      3.409      4.811
REMARK  Name = Avibactam
REMARK  4 active torsions:
REMARK  status: ('A' for Active; 'I' for Inactive)
REMARK    1  A    between atoms: C_2  and  C_4
REMARK    2  A    between atoms: N_12  and  O_13
REMARK    3  A    between atoms: O_13  and  S_14
REMARK    4  A    between atoms: S_14  and  O_15
REMARK                            x       y       z     vdW  Elec       q    Type
REMARK                         _______ _______ _______ _____ _____    ______ ____
ROOT
ATOM      1  C   UNL     1     -10.798   5.577 131.010  0.00  0.00    +0.000 C 
ATOM      2  C   UNL     1     -10.497   6.140 132.436  0.00  0.00    +0.000 C 
ATOM      3  C   UNL     1      -9.160   5.560 132.615  0.00  0.00    +0.000 C 
ATOM      4  C   UNL     1      -8.441   6.541 131.648  0.00  0.00    +0.000 C 
ATOM      5  C   UNL     1      -9.210   7.145 130.338  0.00  0.00    +0.000 C 
ATOM      6  N   UNL     1      -9.632   5.867 129.994  0.00  0.00    +0.000 N 
ATOM      7  C   UNL     1      -8.176   5.312 129.965  0.00  0.00    +0.000 C 
ATOM      8  O   UNL     1      -7.798   4.349 129.323  0.00  0.00    +0.000 OA
ATOM      9  N   UNL     1      -7.360   6.013 131.001  0.00  0.00    +0.000 N 
ENDROOT
BRANCH   1  11
ATOM     10  N   UNL     1     -12.476   6.230 129.395  0.00  0.00    +0.000 N 
ATOM     11  C   UNL     1     -12.111   6.297 130.693  0.00  0.00    +0.000 C 
ATOM     12  O   UNL     1     -12.797   6.899 131.515  0.00  0.00    +0.000 OA
ATOM     13  H   UNL     1     -13.349   6.662 129.135  0.00  0.00    +0.000 HD
ATOM     14  H   UNL     1     -11.872   5.810 128.704  0.00  0.00    +0.000 HD
ENDBRANCH   1  11
BRANCH   9  15
ATOM     15  O   UNL     1      -6.689   7.361 130.755  0.00  0.00    +0.000 OA
BRANCH  15  16
ATOM     16  S   UNL     1      -4.979   7.269 130.343  0.00  0.00    +0.000 S 
ATOM     17  O   UNL     1      -4.231   7.271 131.566  0.00  0.00    +0.000 OA
ATOM     18  O   UNL     1      -4.760   6.255 129.311  0.00  0.00    +0.000 OA
BRANCH  16  19
ATOM     19  O   UNL     1      -4.549   8.669 129.582  0.00  0.00    +0.000 OA
ATOM     20  H   UNL     1      -4.639   9.448 130.186  0.00  0.00    +0.000 HD
ENDBRANCH  16  19
ENDBRANCH  15  16
ENDBRANCH   9  15
TORSDOF 4
ENDMDL
MODEL 5
REMARK VINA RESULT:      -5.5      6.846      8.052
REMARK  Name = Avibactam
REMARK  4 active torsions:
REMARK  status: ('A' for Active; 'I' for Inactive)
REMARK    1  A    between atoms: C_2  and  C_4
REMARK    2  A    between atoms: N_12  and  O_13
REMARK    3  A    between atoms: O_13  and  S_14
REMARK    4  A    between atoms: S_14  and  O_15
REMARK                            x       y       z     vdW  Elec       q    Type
REMARK                         _______ _______ _______ _____ _____    ______ ____
ROOT
ATOM      1  C   UNL     1      -8.177  -1.037 124.102  0.00  0.00    +0.000 C 
ATOM      2  C   UNL     1      -6.790  -0.341 123.930  0.00  0.00    +0.000 C 
ATOM      3  C   UNL     1      -7.263   0.951 123.415  0.00  0.00    +0.000 C 
ATOM      4  C   UNL     1      -7.793   1.470 124.780  0.00  0.00    +0.000 C 
ATOM      5  C   UNL     1      -8.405   0.439 125.891  0.00  0.00    +0.000 C 
ATOM      6  N   UNL     1      -9.195  -0.151 124.912  0.00  0.00    +0.000 N 
ATOM      7  C   UNL     1      -9.861   1.204 124.526  0.00  0.00    +0.000 C 
ATOM      8  O   UNL     1     -10.958   1.333 124.013  0.00  0.00    +0.000 OA
ATOM      9  N   UNL     1      -8.869   2.308 124.692  0.00  0.00    +0.000 N 
ENDROOT
BRANCH   1  11
ATOM     10  N   UNL     1      -6.425  -2.516 124.869  0.00  0.00    +0.000 N 
ATOM     11  C   UNL     1      -7.760  -2.330 124.807  0.00  0.00    +0.000 C 
ATOM     12  O   UNL     1      -8.539  -3.153 125.281  0.00  0.00    +0.000 OA
ATOM     13  H   UNL     1      -6.092  -3.338 125.350  0.00  0.00    +0.000 HD
ATOM     14  H   UNL     1      -5.788  -1.885 124.407  0.00  0.00    +0.000 HD
ENDBRANCH   1  11
BRANCH   9  15
ATOM     15  O   UNL     1      -8.606   2.992 126.030  0.00  0.00    +0.000 OA
BRANCH  15  16
ATOM     16  S   UNL     1      -7.872   4.588 125.911  0.00  0.00    +0.000 S 
ATOM     17  O   UNL     1      -8.925   5.560 125.936  0.00  0.00    +0.000 OA
ATOM     18  O   UNL     1      -6.719   4.683 126.808  0.00  0.00    +0.000 OA
BRANCH  16  19
ATOM     19  O   UNL     1      -7.190   4.739 124.416  0.00  0.00    +0.000 OA
ATOM     20  H   UNL     1      -6.515   4.034 124.257  0.00  0.00    +0.000 HD
ENDBRANCH  16  19
ENDBRANCH  15  16
ENDBRANCH   9  15
TORSDOF 4
ENDMDL
MODEL 6
REMARK VINA RESULT:      -5.3      8.096      8.956
REMARK  Name = Avibactam
REMARK  4 active torsions:
REMARK  status: ('A' for Active; 'I' for Inactive)
REMARK    1  A    between atoms: C_2  and  C_4
REMARK    2  A    between atoms: N_12  and  O_13
REMARK    3  A    between atoms: O_13  and  S_14
REMARK    4  A    between atoms: S_14  and  O_15
REMARK                            x       y       z     vdW  Elec       q    Type
REMARK                         _______ _______ _______ _____ _____    ______ ____
ROOT
ATOM      1  C   UNL     1      -7.172  -2.561 126.757  0.00  0.00    +0.000 C 
ATOM      2  C   UNL     1      -5.812  -1.951 126.290  0.00  0.00    +0.000 C 
ATOM      3  C   UNL     1      -6.053  -1.982 124.841  0.00  0.00    +0.000 C 
ATOM      4  C   UNL     1      -7.042  -0.785 124.829  0.00  0.00    +0.000 C 
ATOM      5  C   UNL     1      -8.028  -0.496 126.100  0.00  0.00    +0.000 C 
ATOM      6  N   UNL     1      -8.408  -1.832 126.113  0.00  0.00    +0.000 N 
ATOM      7  C   UNL     1      -8.875  -1.791 124.626  0.00  0.00    +0.000 C 
ATOM      8  O   UNL     1      -9.707  -2.526 124.125  0.00  0.00    +0.000 OA
ATOM      9  N   UNL     1      -8.005  -0.851 123.860  0.00  0.00    +0.000 N 
ENDROOT
BRANCH   1  11
ATOM     10  N   UNL     1      -5.788  -2.204 128.708  0.00  0.00    +0.000 N 
ATOM     11  C   UNL     1      -7.053  -2.389 128.273  0.00  0.00    +0.000 C 
ATOM     12  O   UNL     1      -7.997  -2.415 129.059  0.00  0.00    +0.000 OA
ATOM     13  H   UNL     1      -5.654  -2.055 129.697  0.00  0.00    +0.000 HD
ATOM     14  H   UNL     1      -5.005  -2.267 128.076  0.00  0.00    +0.000 HD
ENDBRANCH   1  11
BRANCH   9  15
ATOM     15  O   UNL     1      -8.246   0.655 123.818  0.00  0.00    +0.000 OA
BRANCH  15  16
ATOM     16  S   UNL     1      -9.799   1.135 123.140  0.00  0.00    +0.000 S 
ATOM     17  O   UNL     1     -10.728   1.271 124.224  0.00  0.00    +0.000 OA
ATOM     18  O   UNL     1      -9.613   2.198 122.151  0.00  0.00    +0.000 OA
BRANCH  16  19
ATOM     19  O   UNL     1     -10.383  -0.115 122.235  0.00  0.00    +0.000 OA
ATOM     20  H   UNL     1     -10.819   0.213 121.410  0.00  0.00    +0.000 HD
ENDBRANCH  16  19
ENDBRANCH  15  16
ENDBRANCH   9  15
TORSDOF 4
ENDMDL
MODEL 7
REMARK VINA RESULT:      -5.3      2.906      5.616
REMARK  Name = Avibactam
REMARK  4 active torsions:
REMARK  status: ('A' for Active; 'I' for Inactive)
REMARK    1  A    between atoms: C_2  and  C_4
REMARK    2  A    between atoms: N_12  and  O_13
REMARK    3  A    between atoms: O_13  and  S_14
REMARK    4  A    between atoms: S_14  and  O_15
REMARK                            x       y       z     vdW  Elec       q    Type
REMARK                         _______ _______ _______ _____ _____    ______ ____
ROOT
ATOM      1  C   UNL     1     -11.135   7.913 129.674  0.00  0.00    +0.000 C 
ATOM      2  C   UNL     1     -11.113   7.094 128.344  0.00  0.00    +0.000 C 
ATOM      3  C   UNL     1      -9.866   6.353 128.572  0.00  0.00    +0.000 C 
ATOM      4  C   UNL     1     -10.462   5.377 129.623  0.00  0.00    +0.000 C 
ATOM      5  C   UNL     1     -11.656   5.854 130.632  0.00  0.00    +0.000 C 
ATOM      6  N   UNL     1     -10.938   7.003 130.942  0.00  0.00    +0.000 N 
ATOM      7  C   UNL     1      -9.689   6.190 131.399  0.00  0.00    +0.000 C 
ATOM      8  O   UNL     1      -8.844   6.574 132.187  0.00  0.00    +0.000 OA
ATOM      9  N   UNL     1      -9.576   4.951 130.573  0.00  0.00    +0.000 N 
ENDROOT
BRANCH   1  11
ATOM     10  N   UNL     1     -13.174   8.298 128.434  0.00  0.00    +0.000 N 
ATOM     11  C   UNL     1     -12.510   8.576 129.575  0.00  0.00    +0.000 C 
ATOM     12  O   UNL     1     -13.000   9.307 130.433  0.00  0.00    +0.000 OA
ATOM     13  H   UNL     1     -14.100   8.685 128.328  0.00  0.00    +0.000 HD
ATOM     14  H   UNL     1     -12.740   7.769 127.693  0.00  0.00    +0.000 HD
ENDBRANCH   1  11
BRANCH   9  15
ATOM     15  O   UNL     1     -10.339   3.669 130.892  0.00  0.00    +0.000 OA
BRANCH  15  16
ATOM     16  S   UNL     1      -9.544   2.607 132.050  0.00  0.00    +0.000 S 
ATOM     17  O   UNL     1     -10.221   1.343 132.024  0.00  0.00    +0.000 OA
ATOM     18  O   UNL     1      -8.090   2.702 131.910  0.00  0.00    +0.000 OA
BRANCH  16  19
ATOM     19  O   UNL     1      -9.808   3.197 133.568  0.00  0.00    +0.000 OA
ATOM     20  H   UNL     1     -10.749   3.067 133.845  0.00  0.00    +0.000 HD
ENDBRANCH  16  19
ENDBRANCH  15  16
ENDBRANCH   9  15
TORSDOF 4
ENDMDL
MODEL 8
REMARK VINA RESULT:      -5.2      8.995     10.583
REMARK  Name = Avibactam
REMARK  4 active torsions:
REMARK  status: ('A' for Active; 'I' for Inactive)
REMARK    1  A    between atoms: C_2  and  C_4
REMARK    2  A    between atoms: N_12  and  O_13
REMARK    3  A    between atoms: O_13  and  S_14
REMARK    4  A    between atoms: S_14  and  O_15
REMARK                            x       y       z     vdW  Elec       q    Type
REMARK                         _______ _______ _______ _____ _____    ______ ____
ROOT
ATOM      1  C   UNL     1      -8.532  -0.774 123.356  0.00  0.00    +0.000 C 
ATOM      2  C   UNL     1      -9.278  -2.134 123.176  0.00  0.00    +0.000 C 
ATOM      3  C   UNL     1      -8.255  -3.016 123.753  0.00  0.00    +0.000 C 
ATOM      4  C   UNL     1      -8.528  -2.613 125.229  0.00  0.00    +0.000 C 
ATOM      5  C   UNL     1      -9.019  -1.102 125.611  0.00  0.00    +0.000 C 
ATOM      6  N   UNL     1      -8.005  -0.571 124.824  0.00  0.00    +0.000 N 
ATOM      7  C   UNL     1      -6.895  -1.344 125.599  0.00  0.00    +0.000 C 
ATOM      8  O   UNL     1      -5.728  -1.008 125.688  0.00  0.00    +0.000 OA
ATOM      9  N   UNL     1      -7.433  -2.664 126.045  0.00  0.00    +0.000 N 
ENDROOT
BRANCH   1  11
ATOM     10  N   UNL     1      -9.293   1.505 123.090  0.00  0.00    +0.000 N 
ATOM     11  C   UNL     1      -9.627   0.208 122.933  0.00  0.00    +0.000 C 
ATOM     12  O   UNL     1     -10.727  -0.117 122.491  0.00  0.00    +0.000 OA
ATOM     13  H   UNL     1      -9.967   2.198 122.798  0.00  0.00    +0.000 HD
ATOM     14  H   UNL     1      -8.426   1.772 123.531  0.00  0.00    +0.000 HD
ENDBRANCH   1  11
BRANCH   9  15
ATOM     15  O   UNL     1      -8.239  -2.840 127.328  0.00  0.00    +0.000 OA
BRANCH  15  16
ATOM     16  S   UNL     1      -7.381  -2.406 128.804  0.00  0.00    +0.000 S 
ATOM     17  O   UNL     1      -6.020  -2.835 128.664  0.00  0.00    +0.000 OA
ATOM     18  O   UNL     1      -7.718  -1.038 129.201  0.00  0.00    +0.000 OA
BRANCH  16  19
ATOM     19  O   UNL     1      -7.985  -3.310 130.045  0.00  0.00    +0.000 OA
ATOM     20  H   UNL     1      -8.954  -3.476 129.930  0.00  0.00    +0.000 HD
ENDBRANCH  16  19
ENDBRANCH  15  16
ENDBRANCH   9  15
TORSDOF 4
ENDMDL
MODEL 9
REMARK VINA RESULT:      -5.1      5.889      7.213
REMARK  Name = Avibactam
REMARK  4 active torsions:
REMARK  status: ('A' for Active; 'I' for Inactive)
REMARK    1  A    between atoms: C_2  and  C_4
REMARK    2  A    between atoms: N_12  and  O_13
REMARK    3  A    between atoms: O_13  and  S_14
REMARK    4  A    between atoms: S_14  and  O_15
REMARK                            x       y       z     vdW  Elec       q    Type
REMARK                         _______ _______ _______ _____ _____    ______ ____
ROOT
ATOM      1  C   UNL     1      -3.405   4.252 128.427  0.00  0.00    +0.000 C 
ATOM      2  C   UNL     1      -2.473   4.105 127.183  0.00  0.00    +0.000 C 
ATOM      3  C   UNL     1      -3.094   2.912 126.593  0.00  0.00    +0.000 C 
ATOM      4  C   UNL     1      -4.351   3.648 126.054  0.00  0.00    +0.000 C 
ATOM      5  C   UNL     1      -4.976   4.934 126.847  0.00  0.00    +0.000 C 
ATOM      6  N   UNL     1      -4.930   4.224 128.040  0.00  0.00    +0.000 N 
ATOM      7  C   UNL     1      -5.789   3.057 127.466  0.00  0.00    +0.000 C 
ATOM      8  O   UNL     1      -6.476   2.294 128.121  0.00  0.00    +0.000 OA
ATOM      9  N   UNL     1      -5.485   2.886 126.014  0.00  0.00    +0.000 N 
ENDROOT
BRANCH   1  11
ATOM     10  N   UNL     1      -2.047   6.238 128.189  0.00  0.00    +0.000 N 
ATOM     11  C   UNL     1      -2.918   5.589 128.990  0.00  0.00    +0.000 C 
ATOM     12  O   UNL     1      -3.260   6.061 130.072  0.00  0.00    +0.000 OA
ATOM     13  H   UNL     1      -1.716   7.140 128.497  0.00  0.00    +0.000 HD
ATOM     14  H   UNL     1      -1.700   5.813 127.342  0.00  0.00    +0.000 HD
ENDBRANCH   1  11
BRANCH   9  15
ATOM     15  O   UNL     1      -6.156   3.715 124.923  0.00  0.00    +0.000 OA
BRANCH  15  16
ATOM     16  S   UNL     1      -7.891   3.458 124.764  0.00  0.00    +0.000 S 
ATOM     17  O   UNL     1      -8.154   2.071 125.013  0.00  0.00    +0.000 OA
ATOM     18  O   UNL     1      -8.626   4.516 125.458  0.00  0.00    +0.000 OA
BRANCH  16  19
ATOM     19  O   UNL     1      -8.311   3.692 123.185  0.00  0.00    +0.000 OA
ATOM     20  H   UNL     1      -8.988   4.408 123.096  0.00  0.00    +0.000 HD
ENDBRANCH  16  19
ENDBRANCH  15  16
ENDBRANCH   9  15
TORSDOF 4
ENDMDL
