MODEL 1
REMARK VINA RESULT:      -7.0      0.000      0.000
REMARK  Name = Avobenzone
REMARK  10 active torsions:
REMARK  status: ('A' for Active; 'I' for Inactive)
REMARK    1  A    between atoms: C_1  and  O_2
REMARK    2  A    between atoms: O_2  and  C_3
REMARK    3  A    between atoms: C_6  and  C_9
REMARK    4  A    between atoms: C_9  and  C_11
REMARK    5  A    between atoms: C_11  and  C_12
REMARK    6  A    between atoms: C_12  and  C_14
REMARK    7  A    between atoms: C_17  and  C_20
REMARK    8  A    between atoms: C_20  and  C_21
REMARK    9  A    between atoms: C_20  and  C_22
REMARK   10  A    between atoms: C_20  and  C_23
REMARK                            x       y       z     vdW  Elec       q    Type
REMARK                         _______ _______ _______ _____ _____    ______ ____
ROOT
ATOM      1  C   UNL     1      -8.801   5.344 133.316  0.00  0.00    +0.000 C 
ATOM      2  O   UNL     1      -7.896   5.966 133.874  0.00  0.00    +0.000 OA
ENDROOT
BRANCH   1   3
ATOM      3  C   UNL     1      -9.529   6.083 132.274  0.00  0.00    +0.000 A 
ATOM      4  C   UNL     1     -10.926   6.071 132.311  0.00  0.00    +0.000 A 
ATOM      5  C   UNL     1     -11.653   6.577 131.238  0.00  0.00    +0.000 A 
ATOM      6  C   UNL     1     -11.000   7.178 130.149  0.00  0.00    +0.000 A 
ATOM      7  C   UNL     1      -9.593   7.172 130.137  0.00  0.00    +0.000 A 
ATOM      8  C   UNL     1      -8.857   6.633 131.188  0.00  0.00    +0.000 A 
BRANCH   6   9
ATOM      9  C   UNL     1     -11.818   7.871 129.052  0.00  0.00    +0.000 C 
ATOM     10  C   UNL     1     -12.649   9.026 129.641  0.00  0.00    +0.000 C 
ATOM     11  C   UNL     1     -10.848   8.433 127.991  0.00  0.00    +0.000 C 
ATOM     12  C   UNL     1     -12.778   6.897 128.341  0.00  0.00    +0.000 C 
ENDBRANCH   6   9
ENDBRANCH   1   3
BRANCH   1  13
ATOM     13  C   UNL     1      -9.198   3.914 133.618  0.00  0.00    +0.000 C 
BRANCH  13  14
ATOM     14  C   UNL     1      -8.370   2.871 132.893  0.00  0.00    +0.000 C 
ATOM     15  O   UNL     1      -7.946   1.843 133.423  0.00  0.00    +0.000 OA
BRANCH  14  19
ATOM     16  C   UNL     1      -7.246   3.652 128.825  0.00  0.00    +0.000 A 
ATOM     17  C   UNL     1      -6.327   3.788 129.865  0.00  0.00    +0.000 A 
ATOM     18  C   UNL     1      -6.697   3.467 131.170  0.00  0.00    +0.000 A 
ATOM     19  C   UNL     1      -8.012   3.079 131.464  0.00  0.00    +0.000 A 
ATOM     20  C   UNL     1      -8.933   2.947 130.424  0.00  0.00    +0.000 A 
ATOM     21  C   UNL     1      -8.546   3.231 129.110  0.00  0.00    +0.000 A 
BRANCH  16  23
ATOM     22  C   UNL     1      -7.698   4.055 126.532  0.00  0.00    +0.000 C 
ATOM     23  O   UNL     1      -6.746   3.854 127.570  0.00  0.00    +0.000 OA
ENDBRANCH  16  23
ENDBRANCH  14  19
ENDBRANCH  13  14
ENDBRANCH   1  13
TORSDOF 6
ENDMDL
MODEL 2
REMARK VINA RESULT:      -7.0      5.826      9.983
REMARK  Name = Avobenzone
REMARK  10 active torsions:
REMARK  status: ('A' for Active; 'I' for Inactive)
REMARK    1  A    between atoms: C_1  and  O_2
REMARK    2  A    between atoms: O_2  and  C_3
REMARK    3  A    between atoms: C_6  and  C_9
REMARK    4  A    between atoms: C_9  and  C_11
REMARK    5  A    between atoms: C_11  and  C_12
REMARK    6  A    between atoms: C_12  and  C_14
REMARK    7  A    between atoms: C_17  and  C_20
REMARK    8  A    between atoms: C_20  and  C_21
REMARK    9  A    between atoms: C_20  and  C_22
REMARK   10  A    between atoms: C_20  and  C_23
REMARK                            x       y       z     vdW  Elec       q    Type
REMARK                         _______ _______ _______ _____ _____    ______ ____
ROOT
ATOM      1  C   UNL     1      -9.272  -2.766 123.527  0.00  0.00    +0.000 C 
ATOM      2  O   UNL     1     -10.063  -3.691 123.343  0.00  0.00    +0.000 OA
ENDROOT
BRANCH   1   3
ATOM      3  C   UNL     1      -8.541  -2.801 124.803  0.00  0.00    +0.000 A 
ATOM      4  C   UNL     1      -9.279  -2.940 125.981  0.00  0.00    +0.000 A 
ATOM      5  C   UNL     1      -8.656  -2.771 127.214  0.00  0.00    +0.000 A 
ATOM      6  C   UNL     1      -7.272  -2.543 127.293  0.00  0.00    +0.000 A 
ATOM      7  C   UNL     1      -6.556  -2.404 126.090  0.00  0.00    +0.000 A 
ATOM      8  C   UNL     1      -7.178  -2.534 124.852  0.00  0.00    +0.000 A 
BRANCH   6   9
ATOM      9  C   UNL     1      -6.576  -2.517 128.660  0.00  0.00    +0.000 C 
ATOM     10  C   UNL     1      -5.047  -2.574 128.492  0.00  0.00    +0.000 C 
ATOM     11  C   UNL     1      -6.959  -1.209 129.385  0.00  0.00    +0.000 C 
ATOM     12  C   UNL     1      -7.010  -3.694 129.556  0.00  0.00    +0.000 C 
ENDBRANCH   6   9
ENDBRANCH   1   3
BRANCH   1  13
ATOM     13  C   UNL     1      -9.004  -1.634 122.557  0.00  0.00    +0.000 C 
BRANCH  13  14
ATOM     14  C   UNL     1      -9.571  -0.296 122.988  0.00  0.00    +0.000 C 
ATOM     15  O   UNL     1     -10.559   0.228 122.473  0.00  0.00    +0.000 OA
BRANCH  14  19
ATOM     16  C   UNL     1      -7.485   1.791 126.105  0.00  0.00    +0.000 A 
ATOM     17  C   UNL     1      -6.900   1.591 124.855  0.00  0.00    +0.000 A 
ATOM     18  C   UNL     1      -7.620   0.967 123.838  0.00  0.00    +0.000 A 
ATOM     19  C   UNL     1      -8.908   0.466 124.080  0.00  0.00    +0.000 A 
ATOM     20  C   UNL     1      -9.492   0.662 125.332  0.00  0.00    +0.000 A 
ATOM     21  C   UNL     1      -8.780   1.325 126.338  0.00  0.00    +0.000 A 
BRANCH  16  23
ATOM     22  C   UNL     1      -6.774   3.945 126.797  0.00  0.00    +0.000 C 
ATOM     23  O   UNL     1      -6.751   2.535 126.985  0.00  0.00    +0.000 OA
ENDBRANCH  16  23
ENDBRANCH  14  19
ENDBRANCH  13  14
ENDBRANCH   1  13
TORSDOF 6
ENDMDL
MODEL 3
REMARK VINA RESULT:      -7.0      3.339      6.620
REMARK  Name = Avobenzone
REMARK  10 active torsions:
REMARK  status: ('A' for Active; 'I' for Inactive)
REMARK    1  A    between atoms: C_1  and  O_2
REMARK    2  A    between atoms: O_2  and  C_3
REMARK    3  A    between atoms: C_6  and  C_9
REMARK    4  A    between atoms: C_9  and  C_11
REMARK    5  A    between atoms: C_11  and  C_12
REMARK    6  A    between atoms: C_12  and  C_14
REMARK    7  A    between atoms: C_17  and  C_20
REMARK    8  A    between atoms: C_20  and  C_21
REMARK    9  A    between atoms: C_20  and  C_22
REMARK   10  A    between atoms: C_20  and  C_23
REMARK                            x       y       z     vdW  Elec       q    Type
REMARK                         _______ _______ _______ _____ _____    ______ ____
ROOT
ATOM      1  C   UNL     1      -9.068   5.898 131.910  0.00  0.00    +0.000 C 
ATOM      2  O   UNL     1      -9.820   6.494 132.682  0.00  0.00    +0.000 OA
ENDROOT
BRANCH   1   3
ATOM      3  C   UNL     1      -7.634   6.180 132.078  0.00  0.00    +0.000 A 
ATOM      4  C   UNL     1      -6.984   6.904 131.075  0.00  0.00    +0.000 A 
ATOM      5  C   UNL     1      -5.597   7.016 131.089  0.00  0.00    +0.000 A 
ATOM      6  C   UNL     1      -4.845   6.478 132.146  0.00  0.00    +0.000 A 
ATOM      7  C   UNL     1      -5.526   5.751 133.139  0.00  0.00    +0.000 A 
ATOM      8  C   UNL     1      -6.910   5.602 133.113  0.00  0.00    +0.000 A 
BRANCH   6   9
ATOM      9  C   UNL     1      -3.337   6.745 132.228  0.00  0.00    +0.000 C 
ATOM     10  C   UNL     1      -2.556   5.721 131.385  0.00  0.00    +0.000 C 
ATOM     11  C   UNL     1      -3.055   8.165 131.690  0.00  0.00    +0.000 C 
ATOM     12  C   UNL     1      -2.812   6.681 133.676  0.00  0.00    +0.000 C 
ENDBRANCH   6   9
ENDBRANCH   1   3
BRANCH   1  13
ATOM     13  C   UNL     1      -9.505   4.920 130.839  0.00  0.00    +0.000 C 
BRANCH  13  14
ATOM     14  C   UNL     1      -9.689   5.540 129.467  0.00  0.00    +0.000 C 
ATOM     15  O   UNL     1      -8.979   5.277 128.496  0.00  0.00    +0.000 OA
BRANCH  14  19
ATOM     16  C   UNL     1     -12.665   8.584 128.925  0.00  0.00    +0.000 A 
ATOM     17  C   UNL     1     -11.350   8.780 128.506  0.00  0.00    +0.000 A 
ATOM     18  C   UNL     1     -10.415   7.754 128.635  0.00  0.00    +0.000 A 
ATOM     19  C   UNL     1     -10.764   6.544 129.253  0.00  0.00    +0.000 A 
ATOM     20  C   UNL     1     -12.080   6.349 129.675  0.00  0.00    +0.000 A 
ATOM     21  C   UNL     1     -13.025   7.367 129.508  0.00  0.00    +0.000 A 
BRANCH  16  23
ATOM     22  C   UNL     1     -13.520  10.721 129.496  0.00  0.00    +0.000 C 
ATOM     23  O   UNL     1     -13.534   9.596 128.626  0.00  0.00    +0.000 OA
ENDBRANCH  16  23
ENDBRANCH  14  19
ENDBRANCH  13  14
ENDBRANCH   1  13
TORSDOF 6
ENDMDL
MODEL 4
REMARK VINA RESULT:      -6.8      2.198      2.903
REMARK  Name = Avobenzone
REMARK  10 active torsions:
REMARK  status: ('A' for Active; 'I' for Inactive)
REMARK    1  A    between atoms: C_1  and  O_2
REMARK    2  A    between atoms: O_2  and  C_3
REMARK    3  A    between atoms: C_6  and  C_9
REMARK    4  A    between atoms: C_9  and  C_11
REMARK    5  A    between atoms: C_11  and  C_12
REMARK    6  A    between atoms: C_12  and  C_14
REMARK    7  A    between atoms: C_17  and  C_20
REMARK    8  A    between atoms: C_20  and  C_21
REMARK    9  A    between atoms: C_20  and  C_22
REMARK   10  A    between atoms: C_20  and  C_23
REMARK                            x       y       z     vdW  Elec       q    Type
REMARK                         _______ _______ _______ _____ _____    ______ ____
ROOT
ATOM      1  C   UNL     1      -8.610   5.652 133.064  0.00  0.00    +0.000 C 
ATOM      2  O   UNL     1      -8.513   6.229 134.148  0.00  0.00    +0.000 OA
ENDROOT
BRANCH   1   3
ATOM      3  C   UNL     1      -9.454   6.322 132.063  0.00  0.00    +0.000 A 
ATOM      4  C   UNL     1     -10.841   6.231 132.205  0.00  0.00    +0.000 A 
ATOM      5  C   UNL     1     -11.673   6.668 131.178  0.00  0.00    +0.000 A 
ATOM      6  C   UNL     1     -11.138   7.277 130.031  0.00  0.00    +0.000 A 
ATOM      7  C   UNL     1      -9.738   7.350 129.914  0.00  0.00    +0.000 A 
ATOM      8  C   UNL     1      -8.897   6.881 130.919  0.00  0.00    +0.000 A 
BRANCH   6   9
ATOM      9  C   UNL     1     -12.073   7.894 128.984  0.00  0.00    +0.000 C 
ATOM     10  C   UNL     1     -11.288   8.293 127.721  0.00  0.00    +0.000 C 
ATOM     11  C   UNL     1     -13.148   6.852 128.605  0.00  0.00    +0.000 C 
ATOM     12  C   UNL     1     -12.800   9.144 129.517  0.00  0.00    +0.000 C 
ENDBRANCH   6   9
ENDBRANCH   1   3
BRANCH   1  13
ATOM     13  C   UNL     1      -7.935   4.345 132.701  0.00  0.00    +0.000 C 
BRANCH  13  14
ATOM     14  C   UNL     1      -6.421   4.416 132.656  0.00  0.00    +0.000 C 
ATOM     15  O   UNL     1      -5.685   3.874 133.480  0.00  0.00    +0.000 OA
BRANCH  14  19
ATOM     16  C   UNL     1      -4.382   6.500 129.505  0.00  0.00    +0.000 A 
ATOM     17  C   UNL     1      -4.907   5.224 129.304  0.00  0.00    +0.000 A 
ATOM     18  C   UNL     1      -5.620   4.592 130.321  0.00  0.00    +0.000 A 
ATOM     19  C   UNL     1      -5.754   5.197 131.580  0.00  0.00    +0.000 A 
ATOM     20  C   UNL     1      -5.226   6.473 131.783  0.00  0.00    +0.000 A 
ATOM     21  C   UNL     1      -4.545   7.119 130.746  0.00  0.00    +0.000 A 
BRANCH  16  23
ATOM     22  C   UNL     1      -2.433   6.874 128.208  0.00  0.00    +0.000 C 
ATOM     23  O   UNL     1      -3.826   7.087 128.404  0.00  0.00    +0.000 OA
ENDBRANCH  16  23
ENDBRANCH  14  19
ENDBRANCH  13  14
ENDBRANCH   1  13
TORSDOF 6
ENDMDL
MODEL 5
REMARK VINA RESULT:      -6.7      6.257     10.079
REMARK  Name = Avobenzone
REMARK  10 active torsions:
REMARK  status: ('A' for Active; 'I' for Inactive)
REMARK    1  A    between atoms: C_1  and  O_2
REMARK    2  A    between atoms: O_2  and  C_3
REMARK    3  A    between atoms: C_6  and  C_9
REMARK    4  A    between atoms: C_9  and  C_11
REMARK    5  A    between atoms: C_11  and  C_12
REMARK    6  A    between atoms: C_12  and  C_14
REMARK    7  A    between atoms: C_17  and  C_20
REMARK    8  A    between atoms: C_20  and  C_21
REMARK    9  A    between atoms: C_20  and  C_22
REMARK   10  A    between atoms: C_20  and  C_23
REMARK                            x       y       z     vdW  Elec       q    Type
REMARK                         _______ _______ _______ _____ _____    ______ ____
ROOT
ATOM      1  C   UNL     1      -8.696  -2.649 125.531  0.00  0.00    +0.000 C 
ATOM      2  O   UNL     1      -9.922  -2.574 125.438  0.00  0.00    +0.000 OA
ENDROOT
BRANCH   1   3
ATOM      3  C   UNL     1      -8.168  -2.734 126.901  0.00  0.00    +0.000 A 
ATOM      4  C   UNL     1      -6.977  -2.064 127.191  0.00  0.00    +0.000 A 
ATOM      5  C   UNL     1      -6.336  -2.283 128.406  0.00  0.00    +0.000 A 
ATOM      6  C   UNL     1      -6.914  -3.109 129.383  0.00  0.00    +0.000 A 
ATOM      7  C   UNL     1      -8.111  -3.775 129.061  0.00  0.00    +0.000 A 
ATOM      8  C   UNL     1      -8.740  -3.591 127.834  0.00  0.00    +0.000 A 
BRANCH   6   9
ATOM      9  C   UNL     1      -6.275  -3.215 130.773  0.00  0.00    +0.000 C 
ATOM     10  C   UNL     1      -5.676  -4.616 130.991  0.00  0.00    +0.000 C 
ATOM     11  C   UNL     1      -5.153  -2.160 130.885  0.00  0.00    +0.000 C 
ATOM     12  C   UNL     1      -7.289  -2.942 131.902  0.00  0.00    +0.000 C 
ENDBRANCH   6   9
ENDBRANCH   1   3
BRANCH   1  13
ATOM     13  C   UNL     1      -7.727  -2.665 124.366  0.00  0.00    +0.000 C 
BRANCH  13  14
ATOM     14  C   UNL     1      -8.089  -1.716 123.241  0.00  0.00    +0.000 C 
ATOM     15  O   UNL     1      -8.224  -2.065 122.068  0.00  0.00    +0.000 OA
BRANCH  14  19
ATOM     16  C   UNL     1      -8.535   2.429 124.262  0.00  0.00    +0.000 A 
ATOM     17  C   UNL     1      -7.314   1.775 124.420  0.00  0.00    +0.000 A 
ATOM     18  C   UNL     1      -7.175   0.446 124.023  0.00  0.00    +0.000 A 
ATOM     19  C   UNL     1      -8.277  -0.270 123.531  0.00  0.00    +0.000 A 
ATOM     20  C   UNL     1      -9.501   0.383 123.377  0.00  0.00    +0.000 A 
ATOM     21  C   UNL     1      -9.625   1.728 123.740  0.00  0.00    +0.000 A 
BRANCH  16  23
ATOM     22  C   UNL     1      -7.889   4.150 125.760  0.00  0.00    +0.000 C 
ATOM     23  O   UNL     1      -8.529   3.764 124.549  0.00  0.00    +0.000 OA
ENDBRANCH  16  23
ENDBRANCH  14  19
ENDBRANCH  13  14
ENDBRANCH   1  13
TORSDOF 6
ENDMDL
MODEL 6
REMARK VINA RESULT:      -6.6      5.131      8.763
REMARK  Name = Avobenzone
REMARK  10 active torsions:
REMARK  status: ('A' for Active; 'I' for Inactive)
REMARK    1  A    between atoms: C_1  and  O_2
REMARK    2  A    between atoms: O_2  and  C_3
REMARK    3  A    between atoms: C_6  and  C_9
REMARK    4  A    between atoms: C_9  and  C_11
REMARK    5  A    between atoms: C_11  and  C_12
REMARK    6  A    between atoms: C_12  and  C_14
REMARK    7  A    between atoms: C_17  and  C_20
REMARK    8  A    between atoms: C_20  and  C_21
REMARK    9  A    between atoms: C_20  and  C_22
REMARK   10  A    between atoms: C_20  and  C_23
REMARK                            x       y       z     vdW  Elec       q    Type
REMARK                         _______ _______ _______ _____ _____    ______ ____
ROOT
ATOM      1  C   UNL     1      -8.180   2.078 127.670  0.00  0.00    +0.000 C 
ATOM      2  O   UNL     1      -9.101   1.977 128.482  0.00  0.00    +0.000 OA
ENDROOT
BRANCH   1   3
ATOM      3  C   UNL     1      -7.957   0.904 126.814  0.00  0.00    +0.000 A 
ATOM      4  C   UNL     1      -6.651   0.625 126.404  0.00  0.00    +0.000 A 
ATOM      5  C   UNL     1      -6.420  -0.345 125.434  0.00  0.00    +0.000 A 
ATOM      6  C   UNL     1      -7.479  -1.110 124.918  0.00  0.00    +0.000 A 
ATOM      7  C   UNL     1      -8.784  -0.804 125.346  0.00  0.00    +0.000 A 
ATOM      8  C   UNL     1      -9.028   0.191 126.289  0.00  0.00    +0.000 A 
BRANCH   6   9
ATOM      9  C   UNL     1      -7.190  -2.279 123.969  0.00  0.00    +0.000 C 
ATOM     10  C   UNL     1      -7.883  -2.062 122.612  0.00  0.00    +0.000 C 
ATOM     11  C   UNL     1      -5.664  -2.373 123.750  0.00  0.00    +0.000 C 
ATOM     12  C   UNL     1      -7.665  -3.627 124.545  0.00  0.00    +0.000 C 
ENDBRANCH   6   9
ENDBRANCH   1   3
BRANCH   1  13
ATOM     13  C   UNL     1      -7.294   3.295 127.496  0.00  0.00    +0.000 C 
BRANCH  13  14
ATOM     14  C   UNL     1      -7.754   4.251 126.413  0.00  0.00    +0.000 C 
ATOM     15  O   UNL     1      -8.522   5.193 126.612  0.00  0.00    +0.000 OA
BRANCH  14  19
ATOM     16  C   UNL     1      -6.457   3.486 122.394  0.00  0.00    +0.000 A 
ATOM     17  C   UNL     1      -7.676   2.998 122.863  0.00  0.00    +0.000 A 
ATOM     18  C   UNL     1      -8.106   3.312 124.151  0.00  0.00    +0.000 A 
ATOM     19  C   UNL     1      -7.288   4.056 125.014  0.00  0.00    +0.000 A 
ATOM     20  C   UNL     1      -6.066   4.541 124.547  0.00  0.00    +0.000 A 
ATOM     21  C   UNL     1      -5.656   4.257 123.240  0.00  0.00    +0.000 A 
BRANCH  16  23
ATOM     22  C   UNL     1      -5.400   4.207 120.397  0.00  0.00    +0.000 C 
ATOM     23  O   UNL     1      -6.193   3.241 121.076  0.00  0.00    +0.000 OA
ENDBRANCH  16  23
ENDBRANCH  14  19
ENDBRANCH  13  14
ENDBRANCH   1  13
TORSDOF 6
ENDMDL
MODEL 7
REMARK VINA RESULT:      -6.3      3.395      6.093
REMARK  Name = Avobenzone
REMARK  10 active torsions:
REMARK  status: ('A' for Active; 'I' for Inactive)
REMARK    1  A    between atoms: C_1  and  O_2
REMARK    2  A    between atoms: O_2  and  C_3
REMARK    3  A    between atoms: C_6  and  C_9
REMARK    4  A    between atoms: C_9  and  C_11
REMARK    5  A    between atoms: C_11  and  C_12
REMARK    6  A    between atoms: C_12  and  C_14
REMARK    7  A    between atoms: C_17  and  C_20
REMARK    8  A    between atoms: C_20  and  C_21
REMARK    9  A    between atoms: C_20  and  C_22
REMARK   10  A    between atoms: C_20  and  C_23
REMARK                            x       y       z     vdW  Elec       q    Type
REMARK                         _______ _______ _______ _____ _____    ______ ____
ROOT
ATOM      1  C   UNL     1      -7.826   5.754 133.002  0.00  0.00    +0.000 C 
ATOM      2  O   UNL     1      -6.667   6.012 132.678  0.00  0.00    +0.000 OA
ENDROOT
BRANCH   1   3
ATOM      3  C   UNL     1      -8.859   6.144 132.030  0.00  0.00    +0.000 A 
ATOM      4  C   UNL     1      -8.457   6.829 130.881  0.00  0.00    +0.000 A 
ATOM      5  C   UNL     1      -9.411   7.396 130.042  0.00  0.00    +0.000 A 
ATOM      6  C   UNL     1     -10.782   7.217 130.291  0.00  0.00    +0.000 A 
ATOM      7  C   UNL     1     -11.157   6.525 131.458  0.00  0.00    +0.000 A 
ATOM      8  C   UNL     1     -10.209   5.988 132.323  0.00  0.00    +0.000 A 
BRANCH   6   9
ATOM      9  C   UNL     1     -11.817   7.712 129.273  0.00  0.00    +0.000 C 
ATOM     10  C   UNL     1     -11.124   8.231 128.001  0.00  0.00    +0.000 C 
ATOM     11  C   UNL     1     -12.748   6.537 128.901  0.00  0.00    +0.000 C 
ATOM     12  C   UNL     1     -12.696   8.844 129.841  0.00  0.00    +0.000 C 
ENDBRANCH   6   9
ENDBRANCH   1   3
BRANCH   1  13
ATOM     13  C   UNL     1      -8.248   5.078 134.291  0.00  0.00    +0.000 C 
BRANCH  13  14
ATOM     14  C   UNL     1      -7.146   4.972 135.328  0.00  0.00    +0.000 C 
ATOM     15  O   UNL     1      -6.376   4.015 135.414  0.00  0.00    +0.000 OA
BRANCH  14  19
ATOM     16  C   UNL     1      -6.813   8.199 138.139  0.00  0.00    +0.000 A 
ATOM     17  C   UNL     1      -8.031   7.555 137.921  0.00  0.00    +0.000 A 
ATOM     18  C   UNL     1      -8.102   6.469 137.051  0.00  0.00    +0.000 A 
ATOM     19  C   UNL     1      -6.972   6.058 136.329  0.00  0.00    +0.000 A 
ATOM     20  C   UNL     1      -5.754   6.704 136.544  0.00  0.00    +0.000 A 
ATOM     21  C   UNL     1      -5.678   7.768 137.448  0.00  0.00    +0.000 A 
BRANCH  16  23
ATOM     22  C   UNL     1      -7.142  10.479 138.699  0.00  0.00    +0.000 C 
ATOM     23  O   UNL     1      -6.821   9.157 139.113  0.00  0.00    +0.000 OA
ENDBRANCH  16  23
ENDBRANCH  14  19
ENDBRANCH  13  14
ENDBRANCH   1  13
TORSDOF 6
ENDMDL
MODEL 8
REMARK VINA RESULT:      -6.3      6.491      8.720
REMARK  Name = Avobenzone
REMARK  10 active torsions:
REMARK  status: ('A' for Active; 'I' for Inactive)
REMARK    1  A    between atoms: C_1  and  O_2
REMARK    2  A    between atoms: O_2  and  C_3
REMARK    3  A    between atoms: C_6  and  C_9
REMARK    4  A    between atoms: C_9  and  C_11
REMARK    5  A    between atoms: C_11  and  C_12
REMARK    6  A    between atoms: C_12  and  C_14
REMARK    7  A    between atoms: C_17  and  C_20
REMARK    8  A    between atoms: C_20  and  C_21
REMARK    9  A    between atoms: C_20  and  C_22
REMARK   10  A    between atoms: C_20  and  C_23
REMARK                            x       y       z     vdW  Elec       q    Type
REMARK                         _______ _______ _______ _____ _____    ______ ____
ROOT
ATOM      1  C   UNL     1      -9.706   1.426 124.688  0.00  0.00    +0.000 C 
ATOM      2  O   UNL     1     -10.846   1.203 124.277  0.00  0.00    +0.000 OA
ENDROOT
BRANCH   1   3
ATOM      3  C   UNL     1      -9.205   0.491 125.707  0.00  0.00    +0.000 A 
ATOM      4  C   UNL     1      -8.810   1.011 126.941  0.00  0.00    +0.000 A 
ATOM      5  C   UNL     1      -8.141   0.201 127.854  0.00  0.00    +0.000 A 
ATOM      6  C   UNL     1      -7.930  -1.161 127.583  0.00  0.00    +0.000 A 
ATOM      7  C   UNL     1      -8.335  -1.656 126.330  0.00  0.00    +0.000 A 
ATOM      8  C   UNL     1      -8.971  -0.844 125.396  0.00  0.00    +0.000 A 
BRANCH   6   9
ATOM      9  C   UNL     1      -7.334  -2.074 128.662  0.00  0.00    +0.000 C 
ATOM     10  C   UNL     1      -5.839  -2.328 128.395  0.00  0.00    +0.000 C 
ATOM     11  C   UNL     1      -7.495  -1.388 130.036  0.00  0.00    +0.000 C 
ATOM     12  C   UNL     1      -8.051  -3.437 128.732  0.00  0.00    +0.000 C 
ENDBRANCH   6   9
ENDBRANCH   1   3
BRANCH   1  13
ATOM     13  C   UNL     1      -8.813   2.558 124.226  0.00  0.00    +0.000 C 
BRANCH  13  14
ATOM     14  C   UNL     1      -7.409   2.129 123.847  0.00  0.00    +0.000 C 
ATOM     15  O   UNL     1      -7.141   1.473 122.840  0.00  0.00    +0.000 OA
BRANCH  14  19
ATOM     16  C   UNL     1      -4.024   3.249 126.237  0.00  0.00    +0.000 A 
ATOM     17  C   UNL     1      -4.648   4.169 125.396  0.00  0.00    +0.000 A 
ATOM     18  C   UNL     1      -5.784   3.801 124.677  0.00  0.00    +0.000 A 
ATOM     19  C   UNL     1      -6.268   2.486 124.732  0.00  0.00    +0.000 A 
ATOM     20  C   UNL     1      -5.641   1.563 125.571  0.00  0.00    +0.000 A 
ATOM     21  C   UNL     1      -4.525   1.948 126.321  0.00  0.00    +0.000 A 
BRANCH  16  23
ATOM     22  C   UNL     1      -1.764   3.062 126.929  0.00  0.00    +0.000 C 
ATOM     23  O   UNL     1      -3.007   3.747 127.002  0.00  0.00    +0.000 OA
ENDBRANCH  16  23
ENDBRANCH  14  19
ENDBRANCH  13  14
ENDBRANCH   1  13
TORSDOF 6
ENDMDL
MODEL 9
REMARK VINA RESULT:      -6.3      2.405      2.875
REMARK  Name = Avobenzone
REMARK  10 active torsions:
REMARK  status: ('A' for Active; 'I' for Inactive)
REMARK    1  A    between atoms: C_1  and  O_2
REMARK    2  A    between atoms: O_2  and  C_3
REMARK    3  A    between atoms: C_6  and  C_9
REMARK    4  A    between atoms: C_9  and  C_11
REMARK    5  A    between atoms: C_11  and  C_12
REMARK    6  A    between atoms: C_12  and  C_14
REMARK    7  A    between atoms: C_17  and  C_20
REMARK    8  A    between atoms: C_20  and  C_21
REMARK    9  A    between atoms: C_20  and  C_22
REMARK   10  A    between atoms: C_20  and  C_23
REMARK                            x       y       z     vdW  Elec       q    Type
REMARK                         _______ _______ _______ _____ _____    ______ ____
ROOT
ATOM      1  C   UNL     1      -9.353   5.494 133.074  0.00  0.00    +0.000 C 
ATOM      2  O   UNL     1      -8.578   6.274 133.629  0.00  0.00    +0.000 OA
ENDROOT
BRANCH   1   3
ATOM      3  C   UNL     1     -10.124   6.055 131.954  0.00  0.00    +0.000 A 
ATOM      4  C   UNL     1      -9.424   6.511 130.835  0.00  0.00    +0.000 A 
ATOM      5  C   UNL     1     -10.088   7.233 129.848  0.00  0.00    +0.000 A 
ATOM      6  C   UNL     1     -11.476   7.440 129.921  0.00  0.00    +0.000 A 
ATOM      7  C   UNL     1     -12.154   6.973 131.062  0.00  0.00    +0.000 A 
ATOM      8  C   UNL     1     -11.490   6.283 132.073  0.00  0.00    +0.000 A 
BRANCH   6   9
ATOM      9  C   UNL     1     -12.216   8.098 128.750  0.00  0.00    +0.000 C 
ATOM     10  C   UNL     1     -12.857   9.427 129.191  0.00  0.00    +0.000 C 
ATOM     11  C   UNL     1     -11.204   8.374 127.617  0.00  0.00    +0.000 C 
ATOM     12  C   UNL     1     -13.324   7.192 128.179  0.00  0.00    +0.000 C 
ENDBRANCH   6   9
ENDBRANCH   1   3
BRANCH   1  13
ATOM     13  C   UNL     1      -9.556   4.041 133.452  0.00  0.00    +0.000 C 
BRANCH  13  14
ATOM     14  C   UNL     1      -8.270   3.272 133.683  0.00  0.00    +0.000 C 
ATOM     15  O   UNL     1      -7.396   3.622 134.477  0.00  0.00    +0.000 OA
BRANCH  14  19
ATOM     16  C   UNL     1      -7.321  -0.234 131.397  0.00  0.00    +0.000 A 
ATOM     17  C   UNL     1      -6.420   0.287 132.325  0.00  0.00    +0.000 A 
ATOM     18  C   UNL     1      -6.775   1.389 133.101  0.00  0.00    +0.000 A 
ATOM     19  C   UNL     1      -8.007   2.031 132.908  0.00  0.00    +0.000 A 
ATOM     20  C   UNL     1      -8.907   1.512 131.976  0.00  0.00    +0.000 A 
ATOM     21  C   UNL     1      -8.563   0.382 131.228  0.00  0.00    +0.000 A 
BRANCH  16  23
ATOM     22  C   UNL     1      -7.935  -2.093 130.059  0.00  0.00    +0.000 C 
ATOM     23  O   UNL     1      -6.934  -1.396 130.790  0.00  0.00    +0.000 OA
ENDBRANCH  16  23
ENDBRANCH  14  19
ENDBRANCH  13  14
ENDBRANCH   1  13
TORSDOF 6
ENDMDL
