MODEL 1
REMARK VINA RESULT:      -8.8      0.000      0.000
REMARK  Name = Axitinib
REMARK  6 active torsions:
REMARK  status: ('A' for Active; 'I' for Inactive)
REMARK    1  A    between atoms: C_1  and  N_2
REMARK    2  A    between atoms: C_3  and  C_5
REMARK    3  A    between atoms: C_6  and  S_7
REMARK    4  A    between atoms: S_7  and  C_8
REMARK    5  A    between atoms: C_15  and  C_16
REMARK    6  A    between atoms: C_17  and  C_18
REMARK                            x       y       z     vdW  Elec       q    Type
REMARK                         _______ _______ _______ _____ _____    ______ ____
ROOT
ATOM      1  C   UNL     1      -5.661   5.185 132.448  0.00  0.00    +0.000 A 
ATOM      2  C   UNL     1      -5.751   6.134 131.407  0.00  0.00    +0.000 A 
ATOM      3  C   UNL     1      -6.975   6.824 131.069  0.00  0.00    +0.000 A 
ATOM      4  C   UNL     1      -8.143   6.411 131.765  0.00  0.00    +0.000 A 
ATOM      5  C   UNL     1      -7.872   5.745 132.983  0.00  0.00    +0.000 A 
ATOM      6  N   UNL     1      -9.086   5.697 133.615  0.00  0.00    +0.000 N 
ATOM      7  N   UNL     1      -9.852   5.276 132.640  0.00  0.00    +0.000 NA
ATOM      8  C   UNL     1      -9.595   6.310 131.778  0.00  0.00    +0.000 A 
ATOM      9  C   UNL     1      -6.745   5.015 133.281  0.00  0.00    +0.000 A 
ATOM     10  H   UNL     1      -9.526   6.453 134.129  0.00  0.00    +0.000 HD
ENDROOT
BRANCH   8  11
ATOM     11  C   UNL     1     -10.889   6.749 131.403  0.00  0.00    +0.000 C 
ATOM     12  C   UNL     1     -12.198   6.673 131.412  0.00  0.00    +0.000 C 
BRANCH  12  13
ATOM     13  C   UNL     1     -12.768   7.426 130.233  0.00  0.00    +0.000 A 
ATOM     14  C   UNL     1     -13.219   6.748 129.064  0.00  0.00    +0.000 A 
ATOM     15  C   UNL     1     -13.572   7.466 127.924  0.00  0.00    +0.000 A 
ATOM     16  C   UNL     1     -13.489   8.844 127.973  0.00  0.00    +0.000 A 
ATOM     17  C   UNL     1     -13.031   9.432 129.147  0.00  0.00    +0.000 A 
ATOM     18  N   UNL     1     -12.668   8.762 130.272  0.00  0.00    +0.000 NA
ENDBRANCH  12  13
ENDBRANCH   8  11
BRANCH   1  19
ATOM     19  S   UNL     1      -4.197   4.214 132.742  0.00  0.00    +0.000 S 
BRANCH  19  21
ATOM     20  C   UNL     1      -2.102   5.763 131.458  0.00  0.00    +0.000 A 
ATOM     21  C   UNL     1      -2.776   5.326 132.617  0.00  0.00    +0.000 A 
ATOM     22  C   UNL     1      -2.316   5.825 133.858  0.00  0.00    +0.000 A 
ATOM     23  C   UNL     1      -1.194   6.657 133.950  0.00  0.00    +0.000 A 
ATOM     24  C   UNL     1      -0.516   7.034 132.799  0.00  0.00    +0.000 A 
ATOM     25  C   UNL     1      -0.966   6.589 131.560  0.00  0.00    +0.000 A 
BRANCH  20  28
ATOM     26  C   UNL     1      -3.341   6.631 128.010  0.00  0.00    +0.000 C 
ATOM     27  N   UNL     1      -2.948   6.748 129.391  0.00  0.00    +0.000 N 
ATOM     28  C   UNL     1      -2.632   5.595 130.086  0.00  0.00    +0.000 C 
ATOM     29  O   UNL     1      -2.827   4.464 129.645  0.00  0.00    +0.000 OA
ATOM     30  H   UNL     1      -2.622   7.649 129.716  0.00  0.00    +0.000 HD
ENDBRANCH  20  28
ENDBRANCH  19  21
ENDBRANCH   1  19
TORSDOF 5
ENDMDL
MODEL 2
REMARK VINA RESULT:      -8.6      5.350      6.487
REMARK  Name = Axitinib
REMARK  6 active torsions:
REMARK  status: ('A' for Active; 'I' for Inactive)
REMARK    1  A    between atoms: C_1  and  N_2
REMARK    2  A    between atoms: C_3  and  C_5
REMARK    3  A    between atoms: C_6  and  S_7
REMARK    4  A    between atoms: S_7  and  C_8
REMARK    5  A    between atoms: C_15  and  C_16
REMARK    6  A    between atoms: C_17  and  C_18
REMARK                            x       y       z     vdW  Elec       q    Type
REMARK                         _______ _______ _______ _____ _____    ______ ____
ROOT
ATOM      1  C   UNL     1      -7.439   0.874 131.028  0.00  0.00    +0.000 A 
ATOM      2  C   UNL     1      -6.613   2.017 130.975  0.00  0.00    +0.000 A 
ATOM      3  C   UNL     1      -7.130   3.366 130.930  0.00  0.00    +0.000 A 
ATOM      4  C   UNL     1      -8.540   3.495 130.815  0.00  0.00    +0.000 A 
ATOM      5  C   UNL     1      -9.251   2.345 131.230  0.00  0.00    +0.000 A 
ATOM      6  N   UNL     1     -10.551   2.769 131.319  0.00  0.00    +0.000 N 
ATOM      7  N   UNL     1     -10.677   3.405 130.182  0.00  0.00    +0.000 NA
ATOM      8  C   UNL     1      -9.671   4.311 130.393  0.00  0.00    +0.000 A 
ATOM      9  C   UNL     1      -8.795   1.048 131.197  0.00  0.00    +0.000 A 
ATOM     10  H   UNL     1     -10.961   3.295 132.083  0.00  0.00    +0.000 HD
ENDROOT
BRANCH   8  11
ATOM     11  C   UNL     1     -10.292   5.556 130.130  0.00  0.00    +0.000 C 
ATOM     12  C   UNL     1     -10.739   6.737 130.482  0.00  0.00    +0.000 C 
BRANCH  12  13
ATOM     13  C   UNL     1     -11.739   7.237 129.466  0.00  0.00    +0.000 A 
ATOM     14  C   UNL     1     -12.088   8.615 129.381  0.00  0.00    +0.000 A 
ATOM     15  C   UNL     1     -13.139   9.027 128.565  0.00  0.00    +0.000 A 
ATOM     16  C   UNL     1     -13.811   8.066 127.835  0.00  0.00    +0.000 A 
ATOM     17  C   UNL     1     -13.417   6.740 127.980  0.00  0.00    +0.000 A 
ATOM     18  N   UNL     1     -12.405   6.303 128.774  0.00  0.00    +0.000 NA
ENDBRANCH  12  13
ENDBRANCH   8  11
BRANCH   1  19
ATOM     19  S   UNL     1      -6.799  -0.783 130.908  0.00  0.00    +0.000 S 
BRANCH  19  21
ATOM     20  C   UNL     1      -7.474  -0.949 128.088  0.00  0.00    +0.000 A 
ATOM     21  C   UNL     1      -7.451  -1.506 129.383  0.00  0.00    +0.000 A 
ATOM     22  C   UNL     1      -7.980  -2.809 129.536  0.00  0.00    +0.000 A 
ATOM     23  C   UNL     1      -8.571  -3.496 128.469  0.00  0.00    +0.000 A 
ATOM     24  C   UNL     1      -8.628  -2.907 127.213  0.00  0.00    +0.000 A 
ATOM     25  C   UNL     1      -8.083  -1.641 127.023  0.00  0.00    +0.000 A 
BRANCH  20  28
ATOM     26  C   UNL     1      -6.686   2.615 127.165  0.00  0.00    +0.000 C 
ATOM     27  N   UNL     1      -7.414   1.400 127.425  0.00  0.00    +0.000 N 
ATOM     28  C   UNL     1      -6.698   0.247 127.692  0.00  0.00    +0.000 C 
ATOM     29  O   UNL     1      -5.479   0.161 127.556  0.00  0.00    +0.000 OA
ATOM     30  H   UNL     1      -8.383   1.478 127.706  0.00  0.00    +0.000 HD
ENDBRANCH  20  28
ENDBRANCH  19  21
ENDBRANCH   1  19
TORSDOF 5
ENDMDL
MODEL 3
REMARK VINA RESULT:      -8.5      6.924      7.908
REMARK  Name = Axitinib
REMARK  6 active torsions:
REMARK  status: ('A' for Active; 'I' for Inactive)
REMARK    1  A    between atoms: C_1  and  N_2
REMARK    2  A    between atoms: C_3  and  C_5
REMARK    3  A    between atoms: C_6  and  S_7
REMARK    4  A    between atoms: S_7  and  C_8
REMARK    5  A    between atoms: C_15  and  C_16
REMARK    6  A    between atoms: C_17  and  C_18
REMARK                            x       y       z     vdW  Elec       q    Type
REMARK                         _______ _______ _______ _____ _____    ______ ____
ROOT
ATOM      1  C   UNL     1      -6.427   0.842 127.579  0.00  0.00    +0.000 A 
ATOM      2  C   UNL     1      -5.639   2.005 127.443  0.00  0.00    +0.000 A 
ATOM      3  C   UNL     1      -5.987   3.272 128.043  0.00  0.00    +0.000 A 
ATOM      4  C   UNL     1      -7.249   3.335 128.693  0.00  0.00    +0.000 A 
ATOM      5  C   UNL     1      -7.759   2.069 129.066  0.00  0.00    +0.000 A 
ATOM      6  N   UNL     1      -8.797   2.361 129.909  0.00  0.00    +0.000 N 
ATOM      7  N   UNL     1      -9.415   3.288 129.220  0.00  0.00    +0.000 NA
ATOM      8  C   UNL     1      -8.361   4.159 129.143  0.00  0.00    +0.000 A 
ATOM      9  C   UNL     1      -7.497   0.869 128.446  0.00  0.00    +0.000 A 
ATOM     10  H   UNL     1      -8.724   2.618 130.887  0.00  0.00    +0.000 HD
ENDROOT
BRANCH   8  11
ATOM     11  C   UNL     1      -8.917   5.384 129.589  0.00  0.00    +0.000 C 
ATOM     12  C   UNL     1      -9.275   6.235 130.519  0.00  0.00    +0.000 C 
BRANCH  12  13
ATOM     13  C   UNL     1     -10.288   7.210 129.968  0.00  0.00    +0.000 A 
ATOM     14  C   UNL     1     -11.602   7.304 130.510  0.00  0.00    +0.000 A 
ATOM     15  C   UNL     1     -12.573   8.076 129.875  0.00  0.00    +0.000 A 
ATOM     16  C   UNL     1     -12.215   8.754 128.726  0.00  0.00    +0.000 A 
ATOM     17  C   UNL     1     -10.916   8.604 128.255  0.00  0.00    +0.000 A 
ATOM     18  N   UNL     1      -9.949   7.852 128.842  0.00  0.00    +0.000 NA
ENDBRANCH  12  13
ENDBRANCH   8  11
BRANCH   1  19
ATOM     19  S   UNL     1      -6.083  -0.664 126.694  0.00  0.00    +0.000 S 
BRANCH  19  21
ATOM     20  C   UNL     1      -8.270  -2.539 127.060  0.00  0.00    +0.000 A 
ATOM     21  C   UNL     1      -7.043  -1.983 127.475  0.00  0.00    +0.000 A 
ATOM     22  C   UNL     1      -6.450  -2.523 128.640  0.00  0.00    +0.000 A 
ATOM     23  C   UNL     1      -7.082  -3.515 129.399  0.00  0.00    +0.000 A 
ATOM     24  C   UNL     1      -8.314  -4.013 128.999  0.00  0.00    +0.000 A 
ATOM     25  C   UNL     1      -8.906  -3.528 127.837  0.00  0.00    +0.000 A 
BRANCH  20  28
ATOM     26  C   UNL     1      -9.155  -3.095 123.443  0.00  0.00    +0.000 C 
ATOM     27  N   UNL     1      -8.498  -3.199 124.721  0.00  0.00    +0.000 N 
ATOM     28  C   UNL     1      -8.864  -2.318 125.723  0.00  0.00    +0.000 C 
ATOM     29  O   UNL     1      -9.593  -1.346 125.536  0.00  0.00    +0.000 OA
ATOM     30  H   UNL     1      -8.037  -4.071 124.948  0.00  0.00    +0.000 HD
ENDBRANCH  20  28
ENDBRANCH  19  21
ENDBRANCH   1  19
TORSDOF 5
ENDMDL
MODEL 4
REMARK VINA RESULT:      -8.5      2.056      2.919
REMARK  Name = Axitinib
REMARK  6 active torsions:
REMARK  status: ('A' for Active; 'I' for Inactive)
REMARK    1  A    between atoms: C_1  and  N_2
REMARK    2  A    between atoms: C_3  and  C_5
REMARK    3  A    between atoms: C_6  and  S_7
REMARK    4  A    between atoms: S_7  and  C_8
REMARK    5  A    between atoms: C_15  and  C_16
REMARK    6  A    between atoms: C_17  and  C_18
REMARK                            x       y       z     vdW  Elec       q    Type
REMARK                         _______ _______ _______ _____ _____    ______ ____
ROOT
ATOM      1  C   UNL     1      -5.536   5.341 132.509  0.00  0.00    +0.000 A 
ATOM      2  C   UNL     1      -5.658   6.287 131.468  0.00  0.00    +0.000 A 
ATOM      3  C   UNL     1      -6.909   6.915 131.112  0.00  0.00    +0.000 A 
ATOM      4  C   UNL     1      -8.065   6.442 131.788  0.00  0.00    +0.000 A 
ATOM      5  C   UNL     1      -7.781   5.787 133.009  0.00  0.00    +0.000 A 
ATOM      6  N   UNL     1      -9.001   5.677 133.622  0.00  0.00    +0.000 N 
ATOM      7  N   UNL     1      -9.728   5.220 132.634  0.00  0.00    +0.000 NA
ATOM      8  C   UNL     1      -9.511   6.268 131.778  0.00  0.00    +0.000 A 
ATOM      9  C   UNL     1      -6.623   5.115 133.324  0.00  0.00    +0.000 A 
ATOM     10  H   UNL     1      -9.487   6.409 134.130  0.00  0.00    +0.000 HD
ENDROOT
BRANCH   8  11
ATOM     11  C   UNL     1     -10.819   6.642 131.382  0.00  0.00    +0.000 C 
ATOM     12  C   UNL     1     -12.117   6.468 131.322  0.00  0.00    +0.000 C 
BRANCH  12  13
ATOM     13  C   UNL     1     -12.697   7.282 130.190  0.00  0.00    +0.000 A 
ATOM     14  C   UNL     1     -13.175   6.665 128.999  0.00  0.00    +0.000 A 
ATOM     15  C   UNL     1     -13.537   7.440 127.899  0.00  0.00    +0.000 A 
ATOM     16  C   UNL     1     -13.436   8.813 128.011  0.00  0.00    +0.000 A 
ATOM     17  C   UNL     1     -12.952   9.339 129.204  0.00  0.00    +0.000 A 
ATOM     18  N   UNL     1     -12.580   8.613 130.290  0.00  0.00    +0.000 NA
ENDBRANCH  12  13
ENDBRANCH   8  11
BRANCH   1  19
ATOM     19  S   UNL     1      -4.030   4.445 132.825  0.00  0.00    +0.000 S 
BRANCH  19  21
ATOM     20  C   UNL     1      -2.495   6.576 134.065  0.00  0.00    +0.000 A 
ATOM     21  C   UNL     1      -2.705   5.662 133.012  0.00  0.00    +0.000 A 
ATOM     22  C   UNL     1      -1.759   5.659 131.961  0.00  0.00    +0.000 A 
ATOM     23  C   UNL     1      -0.697   6.570 131.920  0.00  0.00    +0.000 A 
ATOM     24  C   UNL     1      -0.538   7.494 132.943  0.00  0.00    +0.000 A 
ATOM     25  C   UNL     1      -1.432   7.499 134.009  0.00  0.00    +0.000 A 
BRANCH  20  28
ATOM     26  C   UNL     1      -3.433   5.409 137.519  0.00  0.00    +0.000 C 
ATOM     27  N   UNL     1      -2.874   5.440 136.192  0.00  0.00    +0.000 N 
ATOM     28  C   UNL     1      -3.192   6.505 135.368  0.00  0.00    +0.000 C 
ATOM     29  O   UNL     1      -4.055   7.337 135.641  0.00  0.00    +0.000 OA
ATOM     30  H   UNL     1      -2.052   4.879 136.010  0.00  0.00    +0.000 HD
ENDBRANCH  20  28
ENDBRANCH  19  21
ENDBRANCH   1  19
TORSDOF 5
ENDMDL
MODEL 5
REMARK VINA RESULT:      -8.4      6.360      8.191
REMARK  Name = Axitinib
REMARK  6 active torsions:
REMARK  status: ('A' for Active; 'I' for Inactive)
REMARK    1  A    between atoms: C_1  and  N_2
REMARK    2  A    between atoms: C_3  and  C_5
REMARK    3  A    between atoms: C_6  and  S_7
REMARK    4  A    between atoms: S_7  and  C_8
REMARK    5  A    between atoms: C_15  and  C_16
REMARK    6  A    between atoms: C_17  and  C_18
REMARK                            x       y       z     vdW  Elec       q    Type
REMARK                         _______ _______ _______ _____ _____    ______ ____
ROOT
ATOM      1  C   UNL     1      -8.274   2.617 133.271  0.00  0.00    +0.000 A 
ATOM      2  C   UNL     1      -9.531   2.332 132.696  0.00  0.00    +0.000 A 
ATOM      3  C   UNL     1      -9.774   1.183 131.855  0.00  0.00    +0.000 A 
ATOM      4  C   UNL     1      -8.640   0.396 131.521  0.00  0.00    +0.000 A 
ATOM      5  C   UNL     1      -7.553   0.560 132.412  0.00  0.00    +0.000 A 
ATOM      6  N   UNL     1      -6.704  -0.467 132.098  0.00  0.00    +0.000 N 
ATOM      7  N   UNL     1      -6.674  -0.367 130.793  0.00  0.00    +0.000 NA
ATOM      8  C   UNL     1      -8.018  -0.534 130.589  0.00  0.00    +0.000 A 
ATOM      9  C   UNL     1      -7.269   1.683 133.154  0.00  0.00    +0.000 A 
ATOM     10  H   UNL     1      -6.796  -1.434 132.391  0.00  0.00    +0.000 HD
ENDROOT
BRANCH   8  11
ATOM     11  C   UNL     1      -8.075  -1.558 129.612  0.00  0.00    +0.000 C 
ATOM     12  C   UNL     1      -7.877  -2.784 129.190  0.00  0.00    +0.000 C 
BRANCH  12  13
ATOM     13  C   UNL     1      -7.877  -2.818 127.679  0.00  0.00    +0.000 A 
ATOM     14  C   UNL     1      -8.888  -3.508 126.951  0.00  0.00    +0.000 A 
ATOM     15  C   UNL     1      -8.772  -3.680 125.574  0.00  0.00    +0.000 A 
ATOM     16  C   UNL     1      -7.664  -3.148 124.944  0.00  0.00    +0.000 A 
ATOM     17  C   UNL     1      -6.715  -2.497 125.726  0.00  0.00    +0.000 A 
ATOM     18  N   UNL     1      -6.792  -2.321 127.071  0.00  0.00    +0.000 NA
ENDBRANCH  12  13
ENDBRANCH   8  11
BRANCH   1  19
ATOM     19  S   UNL     1      -7.941   4.124 134.160  0.00  0.00    +0.000 S 
BRANCH  19  21
ATOM     20  C   UNL     1      -7.975   6.010 131.952  0.00  0.00    +0.000 A 
ATOM     21  C   UNL     1      -7.288   5.321 132.972  0.00  0.00    +0.000 A 
ATOM     22  C   UNL     1      -5.909   5.598 133.123  0.00  0.00    +0.000 A 
ATOM     23  C   UNL     1      -5.230   6.462 132.256  0.00  0.00    +0.000 A 
ATOM     24  C   UNL     1      -5.917   7.091 131.227  0.00  0.00    +0.000 A 
ATOM     25  C   UNL     1      -7.282   6.867 131.075  0.00  0.00    +0.000 A 
BRANCH  20  28
ATOM     26  C   UNL     1     -11.453   5.645 130.555  0.00  0.00    +0.000 C 
ATOM     27  N   UNL     1     -10.017   5.717 130.646  0.00  0.00    +0.000 N 
ATOM     28  C   UNL     1      -9.450   6.078 131.855  0.00  0.00    +0.000 C 
ATOM     29  O   UNL     1     -10.102   6.504 132.806  0.00  0.00    +0.000 OA
ATOM     30  H   UNL     1      -9.472   5.219 129.953  0.00  0.00    +0.000 HD
ENDBRANCH  20  28
ENDBRANCH  19  21
ENDBRANCH   1  19
TORSDOF 5
ENDMDL
MODEL 6
REMARK VINA RESULT:      -8.3      1.947      2.637
REMARK  Name = Axitinib
REMARK  6 active torsions:
REMARK  status: ('A' for Active; 'I' for Inactive)
REMARK    1  A    between atoms: C_1  and  N_2
REMARK    2  A    between atoms: C_3  and  C_5
REMARK    3  A    between atoms: C_6  and  S_7
REMARK    4  A    between atoms: S_7  and  C_8
REMARK    5  A    between atoms: C_15  and  C_16
REMARK    6  A    between atoms: C_17  and  C_18
REMARK                            x       y       z     vdW  Elec       q    Type
REMARK                         _______ _______ _______ _____ _____    ______ ____
ROOT
ATOM      1  C   UNL     1      -6.110   5.516 134.032  0.00  0.00    +0.000 A 
ATOM      2  C   UNL     1      -7.222   4.872 134.617  0.00  0.00    +0.000 A 
ATOM      3  C   UNL     1      -8.513   4.785 133.975  0.00  0.00    +0.000 A 
ATOM      4  C   UNL     1      -8.658   5.496 132.753  0.00  0.00    +0.000 A 
ATOM      5  C   UNL     1      -7.429   5.783 132.114  0.00  0.00    +0.000 A 
ATOM      6  N   UNL     1      -7.791   6.191 130.858  0.00  0.00    +0.000 N 
ATOM      7  N   UNL     1      -8.747   7.039 131.146  0.00  0.00    +0.000 NA
ATOM      8  C   UNL     1      -9.552   6.153 131.810  0.00  0.00    +0.000 A 
ATOM      9  C   UNL     1      -6.209   5.950 132.729  0.00  0.00    +0.000 A 
ATOM     10  H   UNL     1      -8.052   5.591 130.083  0.00  0.00    +0.000 HD
ENDROOT
BRANCH   8  11
ATOM     11  C   UNL     1     -10.812   6.326 131.186  0.00  0.00    +0.000 C 
ATOM     12  C   UNL     1     -11.892   5.881 130.590  0.00  0.00    +0.000 C 
BRANCH  12  13
ATOM     13  C   UNL     1     -12.560   7.000 129.826  0.00  0.00    +0.000 A 
ATOM     14  C   UNL     1     -13.287   6.752 128.627  0.00  0.00    +0.000 A 
ATOM     15  C   UNL     1     -13.739   7.812 127.844  0.00  0.00    +0.000 A 
ATOM     16  C   UNL     1     -13.478   9.097 128.277  0.00  0.00    +0.000 A 
ATOM     17  C   UNL     1     -12.754   9.258 129.454  0.00  0.00    +0.000 A 
ATOM     18  N   UNL     1     -12.289   8.247 130.234  0.00  0.00    +0.000 NA
ENDBRANCH  12  13
ENDBRANCH   8  11
BRANCH   1  19
ATOM     19  S   UNL     1      -4.577   5.771 134.903  0.00  0.00    +0.000 S 
BRANCH  19  21
ATOM     20  C   UNL     1      -2.679   4.848 132.908  0.00  0.00    +0.000 A 
ATOM     21  C   UNL     1      -3.264   5.884 133.664  0.00  0.00    +0.000 A 
ATOM     22  C   UNL     1      -2.798   7.198 133.428  0.00  0.00    +0.000 A 
ATOM     23  C   UNL     1      -1.750   7.462 132.539  0.00  0.00    +0.000 A 
ATOM     24  C   UNL     1      -1.154   6.420 131.842  0.00  0.00    +0.000 A 
ATOM     25  C   UNL     1      -1.615   5.120 132.026  0.00  0.00    +0.000 A 
BRANCH  20  28
ATOM     26  C   UNL     1      -3.265   1.191 133.587  0.00  0.00    +0.000 C 
ATOM     27  N   UNL     1      -2.658   2.497 133.566  0.00  0.00    +0.000 N 
ATOM     28  C   UNL     1      -3.247   3.486 132.800  0.00  0.00    +0.000 C 
ATOM     29  O   UNL     1      -4.160   3.271 132.004  0.00  0.00    +0.000 OA
ATOM     30  H   UNL     1      -2.030   2.740 134.322  0.00  0.00    +0.000 HD
ENDBRANCH  20  28
ENDBRANCH  19  21
ENDBRANCH   1  19
TORSDOF 5
ENDMDL
MODEL 7
REMARK VINA RESULT:      -8.1      6.465      7.689
REMARK  Name = Axitinib
REMARK  6 active torsions:
REMARK  status: ('A' for Active; 'I' for Inactive)
REMARK    1  A    between atoms: C_1  and  N_2
REMARK    2  A    between atoms: C_3  and  C_5
REMARK    3  A    between atoms: C_6  and  S_7
REMARK    4  A    between atoms: S_7  and  C_8
REMARK    5  A    between atoms: C_15  and  C_16
REMARK    6  A    between atoms: C_17  and  C_18
REMARK                            x       y       z     vdW  Elec       q    Type
REMARK                         _______ _______ _______ _____ _____    ______ ____
ROOT
ATOM      1  C   UNL     1      -6.160   0.713 128.315  0.00  0.00    +0.000 A 
ATOM      2  C   UNL     1      -5.306   1.828 128.462  0.00  0.00    +0.000 A 
ATOM      3  C   UNL     1      -5.742   3.093 129.007  0.00  0.00    +0.000 A 
ATOM      4  C   UNL     1      -7.130   3.213 129.286  0.00  0.00    +0.000 A 
ATOM      5  C   UNL     1      -7.788   1.970 129.438  0.00  0.00    +0.000 A 
ATOM      6  N   UNL     1      -9.004   2.298 129.976  0.00  0.00    +0.000 N 
ATOM      7  N   UNL     1      -9.357   3.286 129.192  0.00  0.00    +0.000 NA
ATOM      8  C   UNL     1      -8.280   4.090 129.454  0.00  0.00    +0.000 A 
ATOM      9  C   UNL     1      -7.426   0.778 128.854  0.00  0.00    +0.000 A 
ATOM     10  H   UNL     1      -9.193   2.514 130.949  0.00  0.00    +0.000 HD
ENDROOT
BRANCH   8  11
ATOM     11  C   UNL     1      -8.874   5.331 129.792  0.00  0.00    +0.000 C 
ATOM     12  C   UNL     1      -9.313   6.223 130.647  0.00  0.00    +0.000 C 
BRANCH  12  13
ATOM     13  C   UNL     1     -10.275   7.166 129.963  0.00  0.00    +0.000 A 
ATOM     14  C   UNL     1     -11.642   7.248 130.356  0.00  0.00    +0.000 A 
ATOM     15  C   UNL     1     -12.549   7.987 129.600  0.00  0.00    +0.000 A 
ATOM     16  C   UNL     1     -12.079   8.645 128.481  0.00  0.00    +0.000 A 
ATOM     17  C   UNL     1     -10.733   8.508 128.158  0.00  0.00    +0.000 A 
ATOM     18  N   UNL     1      -9.824   7.788 128.865  0.00  0.00    +0.000 NA
ENDBRANCH  12  13
ENDBRANCH   8  11
BRANCH   1  19
ATOM     19  S   UNL     1      -5.661  -0.780 127.483  0.00  0.00    +0.000 S 
BRANCH  19  21
ATOM     20  C   UNL     1      -7.353  -2.834 128.645  0.00  0.00    +0.000 A 
ATOM     21  C   UNL     1      -7.038  -1.948 127.595  0.00  0.00    +0.000 A 
ATOM     22  C   UNL     1      -7.907  -1.932 126.480  0.00  0.00    +0.000 A 
ATOM     23  C   UNL     1      -8.995  -2.807 126.378  0.00  0.00    +0.000 A 
ATOM     24  C   UNL     1      -9.257  -3.707 127.402  0.00  0.00    +0.000 A 
ATOM     25  C   UNL     1      -8.441  -3.721 128.529  0.00  0.00    +0.000 A 
BRANCH  20  28
ATOM     26  C   UNL     1      -4.874  -3.287 131.442  0.00  0.00    +0.000 C 
ATOM     27  N   UNL     1      -5.558  -3.442 130.184  0.00  0.00    +0.000 N 
ATOM     28  C   UNL     1      -6.748  -2.762 129.993  0.00  0.00    +0.000 C 
ATOM     29  O   UNL     1      -7.340  -2.169 130.893  0.00  0.00    +0.000 OA
ATOM     30  H   UNL     1      -5.024  -3.772 129.391  0.00  0.00    +0.000 HD
ENDBRANCH  20  28
ENDBRANCH  19  21
ENDBRANCH   1  19
TORSDOF 5
ENDMDL
MODEL 8
REMARK VINA RESULT:      -8.1      6.926      8.075
REMARK  Name = Axitinib
REMARK  6 active torsions:
REMARK  status: ('A' for Active; 'I' for Inactive)
REMARK    1  A    between atoms: C_1  and  N_2
REMARK    2  A    between atoms: C_3  and  C_5
REMARK    3  A    between atoms: C_6  and  S_7
REMARK    4  A    between atoms: S_7  and  C_8
REMARK    5  A    between atoms: C_15  and  C_16
REMARK    6  A    between atoms: C_17  and  C_18
REMARK                            x       y       z     vdW  Elec       q    Type
REMARK                         _______ _______ _______ _____ _____    ______ ____
ROOT
ATOM      1  C   UNL     1      -7.067  -0.243 127.794  0.00  0.00    +0.000 A 
ATOM      2  C   UNL     1      -6.272   0.777 127.229  0.00  0.00    +0.000 A 
ATOM      3  C   UNL     1      -6.413   2.173 127.574  0.00  0.00    +0.000 A 
ATOM      4  C   UNL     1      -7.492   2.502 128.437  0.00  0.00    +0.000 A 
ATOM      5  C   UNL     1      -7.969   1.406 129.193  0.00  0.00    +0.000 A 
ATOM      6  N   UNL     1      -8.776   1.977 130.140  0.00  0.00    +0.000 N 
ATOM      7  N   UNL     1      -9.485   2.789 129.396  0.00  0.00    +0.000 NA
ATOM      8  C   UNL     1      -8.433   3.512 128.901  0.00  0.00    +0.000 A 
ATOM      9  C   UNL     1      -7.913   0.079 128.832  0.00  0.00    +0.000 A 
ATOM     10  H   UNL     1      -8.473   2.432 130.994  0.00  0.00    +0.000 HD
ENDROOT
BRANCH   8  11
ATOM     11  C   UNL     1      -8.812   4.854 129.151  0.00  0.00    +0.000 C 
ATOM     12  C   UNL     1      -8.988   5.893 129.932  0.00  0.00    +0.000 C 
BRANCH  12  13
ATOM     13  C   UNL     1      -9.943   6.869 129.287  0.00  0.00    +0.000 A 
ATOM     14  C   UNL     1     -10.974   7.506 130.035  0.00  0.00    +0.000 A 
ATOM     15  C   UNL     1     -11.951   8.260 129.390  0.00  0.00    +0.000 A 
ATOM     16  C   UNL     1     -11.875   8.383 128.016  0.00  0.00    +0.000 A 
ATOM     17  C   UNL     1     -10.844   7.723 127.356  0.00  0.00    +0.000 A 
ATOM     18  N   UNL     1      -9.882   6.972 127.952  0.00  0.00    +0.000 NA
ENDBRANCH  12  13
ENDBRANCH   8  11
BRANCH   1  19
ATOM     19  S   UNL     1      -7.006  -1.933 127.235  0.00  0.00    +0.000 S 
BRANCH  19  21
ATOM     20  C   UNL     1      -7.605  -1.351 124.454  0.00  0.00    +0.000 A 
ATOM     21  C   UNL     1      -6.765  -1.903 125.443  0.00  0.00    +0.000 A 
ATOM     22  C   UNL     1      -5.558  -2.497 125.007  0.00  0.00    +0.000 A 
ATOM     23  C   UNL     1      -5.236  -2.605 123.649  0.00  0.00    +0.000 A 
ATOM     24  C   UNL     1      -6.102  -2.099 122.690  0.00  0.00    +0.000 A 
ATOM     25  C   UNL     1      -7.280  -1.476 123.089  0.00  0.00    +0.000 A 
BRANCH  20  28
ATOM     26  C   UNL     1      -9.697   1.779 124.518  0.00  0.00    +0.000 C 
ATOM     27  N   UNL     1      -8.575   0.888 124.369  0.00  0.00    +0.000 N 
ATOM     28  C   UNL     1      -8.729  -0.434 124.747  0.00  0.00    +0.000 C 
ATOM     29  O   UNL     1      -9.711  -0.853 125.358  0.00  0.00    +0.000 OA
ATOM     30  H   UNL     1      -7.838   1.155 123.729  0.00  0.00    +0.000 HD
ENDBRANCH  20  28
ENDBRANCH  19  21
ENDBRANCH   1  19
TORSDOF 5
ENDMDL
MODEL 9
REMARK VINA RESULT:      -8.1      5.741      6.960
REMARK  Name = Axitinib
REMARK  6 active torsions:
REMARK  status: ('A' for Active; 'I' for Inactive)
REMARK    1  A    between atoms: C_1  and  N_2
REMARK    2  A    between atoms: C_3  and  C_5
REMARK    3  A    between atoms: C_6  and  S_7
REMARK    4  A    between atoms: S_7  and  C_8
REMARK    5  A    between atoms: C_15  and  C_16
REMARK    6  A    between atoms: C_17  and  C_18
REMARK                            x       y       z     vdW  Elec       q    Type
REMARK                         _______ _______ _______ _____ _____    ______ ____
ROOT
ATOM      1  C   UNL     1      -7.814   1.060 131.471  0.00  0.00    +0.000 A 
ATOM      2  C   UNL     1      -9.082   0.980 132.085  0.00  0.00    +0.000 A 
ATOM      3  C   UNL     1     -10.132   1.946 131.862  0.00  0.00    +0.000 A 
ATOM      4  C   UNL     1      -9.790   3.077 131.072  0.00  0.00    +0.000 A 
ATOM      5  C   UNL     1      -8.659   2.872 130.248  0.00  0.00    +0.000 A 
ATOM      6  N   UNL     1      -8.676   3.934 129.384  0.00  0.00    +0.000 N 
ATOM      7  N   UNL     1      -8.874   4.923 130.220  0.00  0.00    +0.000 NA
ATOM      8  C   UNL     1     -10.060   4.466 130.730  0.00  0.00    +0.000 A 
ATOM      9  C   UNL     1      -7.612   2.014 130.497  0.00  0.00    +0.000 A 
ATOM     10  H   UNL     1      -9.258   4.028 128.559  0.00  0.00    +0.000 HD
ENDROOT
BRANCH   8  11
ATOM     11  C   UNL     1     -10.920   5.584 130.605  0.00  0.00    +0.000 C 
ATOM     12  C   UNL     1     -11.886   6.369 131.020  0.00  0.00    +0.000 C 
BRANCH  12  13
ATOM     13  C   UNL     1     -12.442   7.163 129.862  0.00  0.00    +0.000 A 
ATOM     14  C   UNL     1     -12.516   8.585 129.902  0.00  0.00    +0.000 A 
ATOM     15  C   UNL     1     -13.194   9.284 128.906  0.00  0.00    +0.000 A 
ATOM     16  C   UNL     1     -13.769   8.559 127.880  0.00  0.00    +0.000 A 
ATOM     17  C   UNL     1     -13.662   7.173 127.917  0.00  0.00    +0.000 A 
ATOM     18  N   UNL     1     -13.018   6.460 128.878  0.00  0.00    +0.000 NA
ENDBRANCH  12  13
ENDBRANCH   8  11
BRANCH   1  19
ATOM     19  S   UNL     1      -6.471  -0.033 131.886  0.00  0.00    +0.000 S 
BRANCH  19  21
ATOM     20  C   UNL     1      -6.115  -2.833 131.200  0.00  0.00    +0.000 A 
ATOM     21  C   UNL     1      -6.745  -1.587 131.002  0.00  0.00    +0.000 A 
ATOM     22  C   UNL     1      -7.741  -1.519 130.000  0.00  0.00    +0.000 A 
ATOM     23  C   UNL     1      -8.045  -2.615 129.185  0.00  0.00    +0.000 A 
ATOM     24  C   UNL     1      -7.377  -3.819 129.365  0.00  0.00    +0.000 A 
ATOM     25  C   UNL     1      -6.417  -3.927 130.367  0.00  0.00    +0.000 A 
BRANCH  20  28
ATOM     26  C   UNL     1      -3.191  -2.905 133.572  0.00  0.00    +0.000 C 
ATOM     27  N   UNL     1      -3.982  -2.720 132.382  0.00  0.00    +0.000 N 
ATOM     28  C   UNL     1      -5.293  -3.160 132.387  0.00  0.00    +0.000 C 
ATOM     29  O   UNL     1      -5.772  -3.849 133.286  0.00  0.00    +0.000 OA
ATOM     30  H   UNL     1      -3.677  -2.024 131.713  0.00  0.00    +0.000 HD
ENDBRANCH  20  28
ENDBRANCH  19  21
ENDBRANCH   1  19
TORSDOF 5
ENDMDL
