MODEL 1
REMARK VINA RESULT:      -6.3      0.000      0.000
REMARK  Name = Azacitidine
REMARK  5 active torsions:
REMARK  status: ('A' for Active; 'I' for Inactive)
REMARK    1  A    between atoms: N_6  and  C1*_9
REMARK    2  A    between atoms: C4*_11  and  C5*_12
REMARK    3  A    between atoms: C5*_12  and  O5*_13
REMARK    4  A    between atoms: C3*_14  and  O3*_15
REMARK    5  A    between atoms: C2*_16  and  O2*_17
REMARK                            x       y       z     vdW  Elec       q    Type
REMARK                         _______ _______ _______ _____ _____    ______ ____
ROOT
ATOM      1  C1* UNL     1     -11.203   5.873 129.398  0.00  0.00    +0.000 C 
ATOM      2  O4* UNL     1     -11.326   5.426 130.758  0.00  0.00    +0.000 OA
ATOM      3  C4* UNL     1     -10.053   4.911 131.201  0.00  0.00    +0.000 C 
ATOM      4  C3* UNL     1      -9.093   4.943 130.006  0.00  0.00    +0.000 C 
ATOM      5  C2* UNL     1      -9.704   5.997 129.094  0.00  0.00    +0.000 C 
ENDROOT
BRANCH   1  11
ATOM      6  N   UNL     1     -13.845  10.591 128.683  0.00  0.00    +0.000 N 
ATOM      7  C   UNL     1     -13.206   9.416 128.846  0.00  0.00    +0.000 A 
ATOM      8  N   UNL     1     -13.085   8.623 127.838  0.00  0.00    +0.000 NA
ATOM      9  C   UNL     1     -12.438   7.433 127.986  0.00  0.00    +0.000 A 
ATOM     10  O   UNL     1     -12.297   6.676 127.024  0.00  0.00    +0.000 OA
ATOM     11  N   UNL     1     -11.949   7.107 129.225  0.00  0.00    +0.000 N 
ATOM     12  C   UNL     1     -12.124   8.005 130.223  0.00  0.00    +0.000 A 
ATOM     13  N   UNL     1     -12.723   9.132 130.080  0.00  0.00    +0.000 NA
ATOM     14  H   UNL     1     -14.212  10.825 127.772  0.00  0.00    +0.000 HD
ATOM     15  H   UNL     1     -13.951  11.230 129.454  0.00  0.00    +0.000 HD
ENDBRANCH   1  11
BRANCH   4  16
ATOM     16  O3* UNL     1      -9.046   3.673 129.342  0.00  0.00    +0.000 OA
ATOM     17  H3* UNL     1      -8.912   3.799 128.388  0.00  0.00    +0.000 HD
ENDBRANCH   4  16
BRANCH   5  18
ATOM     18  O2* UNL     1      -9.401   5.803 127.718  0.00  0.00    +0.000 OA
ATOM     19  H2* UNL     1      -8.430   5.794 127.614  0.00  0.00    +0.000 HD
ENDBRANCH   5  18
BRANCH   3  20
ATOM     20  C5* UNL     1      -9.578   5.766 132.376  0.00  0.00    +0.000 C 
BRANCH  20  21
ATOM     21  O5* UNL     1     -10.643   6.515 132.938  0.00  0.00    +0.000 OA
ATOM     22  H5* UNL     1     -10.697   7.367 132.469  0.00  0.00    +0.000 HD
ENDBRANCH  20  21
ENDBRANCH   3  20
TORSDOF 5
ENDMDL
MODEL 2
REMARK VINA RESULT:      -6.0      1.994      2.574
REMARK  Name = Azacitidine
REMARK  5 active torsions:
REMARK  status: ('A' for Active; 'I' for Inactive)
REMARK    1  A    between atoms: N_6  and  C1*_9
REMARK    2  A    between atoms: C4*_11  and  C5*_12
REMARK    3  A    between atoms: C5*_12  and  O5*_13
REMARK    4  A    between atoms: C3*_14  and  O3*_15
REMARK    5  A    between atoms: C2*_16  and  O2*_17
REMARK                            x       y       z     vdW  Elec       q    Type
REMARK                         _______ _______ _______ _____ _____    ______ ____
ROOT
ATOM      1  C1* UNL     1     -10.799   6.051 131.319  0.00  0.00    +0.000 C 
ATOM      2  O4* UNL     1      -9.578   6.506 131.925  0.00  0.00    +0.000 OA
ATOM      3  C4* UNL     1      -8.584   5.466 131.819  0.00  0.00    +0.000 C 
ATOM      4  C3* UNL     1      -9.256   4.237 131.195  0.00  0.00    +0.000 C 
ATOM      5  C2* UNL     1     -10.453   4.826 130.462  0.00  0.00    +0.000 C 
ENDROOT
BRANCH   1  11
ATOM      6  N   UNL     1     -13.185  10.020 128.436  0.00  0.00    +0.000 N 
ATOM      7  C   UNL     1     -12.603   9.048 129.167  0.00  0.00    +0.000 A 
ATOM      8  N   UNL     1     -13.221   8.584 130.198  0.00  0.00    +0.000 NA
ATOM      9  C   UNL     1     -12.648   7.598 130.944  0.00  0.00    +0.000 A 
ATOM     10  O   UNL     1     -13.238   7.131 131.919  0.00  0.00    +0.000 OA
ATOM     11  N   UNL     1     -11.408   7.142 130.579  0.00  0.00    +0.000 N 
ATOM     12  C   UNL     1     -10.837   7.690 129.480  0.00  0.00    +0.000 A 
ATOM     13  N   UNL     1     -11.384   8.610 128.770  0.00  0.00    +0.000 NA
ATOM     14  H   UNL     1     -14.094  10.360 128.712  0.00  0.00    +0.000 HD
ATOM     15  H   UNL     1     -12.724  10.398 127.625  0.00  0.00    +0.000 HD
ENDBRANCH   1  11
BRANCH   4  16
ATOM     16  O3* UNL     1      -9.692   3.314 132.204  0.00  0.00    +0.000 OA
ATOM     17  H3* UNL     1      -8.925   2.907 132.639  0.00  0.00    +0.000 HD
ENDBRANCH   4  16
BRANCH   5  18
ATOM     18  O2* UNL     1     -11.541   3.920 130.327  0.00  0.00    +0.000 OA
ATOM     19  H2* UNL     1     -11.536   3.317 131.095  0.00  0.00    +0.000 HD
ENDBRANCH   5  18
BRANCH   3  20
ATOM     20  C5* UNL     1      -7.422   6.003 130.984  0.00  0.00    +0.000 C 
BRANCH  20  21
ATOM     21  O5* UNL     1      -7.591   7.377 130.681  0.00  0.00    +0.000 OA
ATOM     22  H5* UNL     1      -6.835   7.665 130.139  0.00  0.00    +0.000 HD
ENDBRANCH  20  21
ENDBRANCH   3  20
TORSDOF 5
ENDMDL
MODEL 3
REMARK VINA RESULT:      -6.0      7.898      9.478
REMARK  Name = Azacitidine
REMARK  5 active torsions:
REMARK  status: ('A' for Active; 'I' for Inactive)
REMARK    1  A    between atoms: N_6  and  C1*_9
REMARK    2  A    between atoms: C4*_11  and  C5*_12
REMARK    3  A    between atoms: C5*_12  and  O5*_13
REMARK    4  A    between atoms: C3*_14  and  O3*_15
REMARK    5  A    between atoms: C2*_16  and  O2*_17
REMARK                            x       y       z     vdW  Elec       q    Type
REMARK                         _______ _______ _______ _____ _____    ______ ____
ROOT
ATOM      1  C1* UNL     1      -7.476   2.358 123.861  0.00  0.00    +0.000 C 
ATOM      2  O4* UNL     1      -7.539   0.966 123.510  0.00  0.00    +0.000 OA
ATOM      3  C4* UNL     1      -8.803   0.427 123.947  0.00  0.00    +0.000 C 
ATOM      4  C3* UNL     1      -9.543   1.529 124.716  0.00  0.00    +0.000 C 
ATOM      5  C2* UNL     1      -8.905   2.808 124.193  0.00  0.00    +0.000 C 
ENDROOT
BRANCH   1  11
ATOM      6  N   UNL     1      -5.238   5.309 119.857  0.00  0.00    +0.000 N 
ATOM      7  C   UNL     1      -5.771   4.576 120.855  0.00  0.00    +0.000 A 
ATOM      8  N   UNL     1      -5.243   4.636 122.028  0.00  0.00    +0.000 NA
ATOM      9  C   UNL     1      -5.774   3.905 123.048  0.00  0.00    +0.000 A 
ATOM     10  O   UNL     1      -5.291   3.971 124.180  0.00  0.00    +0.000 OA
ATOM     11  N   UNL     1      -6.853   3.103 122.782  0.00  0.00    +0.000 N 
ATOM     12  C   UNL     1      -7.338   3.105 121.518  0.00  0.00    +0.000 A 
ATOM     13  N   UNL     1      -6.846   3.805 120.560  0.00  0.00    +0.000 NA
ATOM     14  H   UNL     1      -4.438   5.892 120.053  0.00  0.00    +0.000 HD
ATOM     15  H   UNL     1      -5.633   5.281 118.931  0.00  0.00    +0.000 HD
ENDBRANCH   1  11
BRANCH   4  16
ATOM     16  O3* UNL     1      -9.334   1.407 126.130  0.00  0.00    +0.000 OA
ATOM     17  H3* UNL     1      -9.808   0.632 126.472  0.00  0.00    +0.000 HD
ENDBRANCH   4  16
BRANCH   5  18
ATOM     18  O2* UNL     1      -8.945   3.885 125.122  0.00  0.00    +0.000 OA
ATOM     19  H2* UNL     1      -8.119   3.872 125.643  0.00  0.00    +0.000 HD
ENDBRANCH   5  18
BRANCH   3  20
ATOM     20  C5* UNL     1      -9.564  -0.059 122.713  0.00  0.00    +0.000 C 
BRANCH  20  21
ATOM     21  O5* UNL     1     -10.897   0.426 122.701  0.00  0.00    +0.000 OA
ATOM     22  H5* UNL     1     -11.412  -0.117 122.079  0.00  0.00    +0.000 HD
ENDBRANCH  20  21
ENDBRANCH   3  20
TORSDOF 5
ENDMDL
MODEL 4
REMARK VINA RESULT:      -6.0      2.129      3.350
REMARK  Name = Azacitidine
REMARK  5 active torsions:
REMARK  status: ('A' for Active; 'I' for Inactive)
REMARK    1  A    between atoms: N_6  and  C1*_9
REMARK    2  A    between atoms: C4*_11  and  C5*_12
REMARK    3  A    between atoms: C5*_12  and  O5*_13
REMARK    4  A    between atoms: C3*_14  and  O3*_15
REMARK    5  A    between atoms: C2*_16  and  O2*_17
REMARK                            x       y       z     vdW  Elec       q    Type
REMARK                         _______ _______ _______ _____ _____    ______ ____
ROOT
ATOM      1  C1* UNL     1     -10.361   7.145 130.573  0.00  0.00    +0.000 C 
ATOM      2  O4* UNL     1      -8.936   7.306 130.474  0.00  0.00    +0.000 OA
ATOM      3  C4* UNL     1      -8.296   6.419 131.413  0.00  0.00    +0.000 C 
ATOM      4  C3* UNL     1      -9.393   5.727 132.229  0.00  0.00    +0.000 C 
ATOM      5  C2* UNL     1     -10.618   5.836 131.332  0.00  0.00    +0.000 C 
ENDROOT
BRANCH   1  11
ATOM      6  N   UNL     1     -12.635   7.132 125.616  0.00  0.00    +0.000 N 
ATOM      7  C   UNL     1     -12.085   7.153 126.846  0.00  0.00    +0.000 A 
ATOM      8  N   UNL     1     -12.808   7.509 127.851  0.00  0.00    +0.000 NA
ATOM      9  C   UNL     1     -12.267   7.531 129.101  0.00  0.00    +0.000 A 
ATOM     10  O   UNL     1     -12.955   7.849 130.073  0.00  0.00    +0.000 OA
ATOM     11  N   UNL     1     -10.948   7.188 129.246  0.00  0.00    +0.000 N 
ATOM     12  C   UNL     1     -10.268   6.827 128.132  0.00  0.00    +0.000 A 
ATOM     13  N   UNL     1     -10.782   6.794 126.955  0.00  0.00    +0.000 NA
ATOM     14  H   UNL     1     -13.604   7.393 125.510  0.00  0.00    +0.000 HD
ATOM     15  H   UNL     1     -12.092   6.855 124.814  0.00  0.00    +0.000 HD
ENDBRANCH   1  11
BRANCH   4  16
ATOM     16  O3* UNL     1      -9.622   6.405 133.473  0.00  0.00    +0.000 OA
ATOM     17  H3* UNL     1      -9.127   5.970 134.187  0.00  0.00    +0.000 HD
ENDBRANCH   4  16
BRANCH   5  18
ATOM     18  O2* UNL     1     -11.848   5.843 132.046  0.00  0.00    +0.000 OA
ATOM     19  H2* UNL     1     -11.676   6.165 132.952  0.00  0.00    +0.000 HD
ENDBRANCH   5  18
BRANCH   3  20
ATOM     20  C5* UNL     1      -7.427   5.439 130.623  0.00  0.00    +0.000 C 
BRANCH  20  21
ATOM     21  O5* UNL     1      -6.286   6.080 130.077  0.00  0.00    +0.000 OA
ATOM     22  H5* UNL     1      -5.492   5.629 130.415  0.00  0.00    +0.000 HD
ENDBRANCH  20  21
ENDBRANCH   3  20
TORSDOF 5
ENDMDL
MODEL 5
REMARK VINA RESULT:      -5.8      8.065      9.615
REMARK  Name = Azacitidine
REMARK  5 active torsions:
REMARK  status: ('A' for Active; 'I' for Inactive)
REMARK    1  A    between atoms: N_6  and  C1*_9
REMARK    2  A    between atoms: C4*_11  and  C5*_12
REMARK    3  A    between atoms: C5*_12  and  O5*_13
REMARK    4  A    between atoms: C3*_14  and  O3*_15
REMARK    5  A    between atoms: C2*_16  and  O2*_17
REMARK                            x       y       z     vdW  Elec       q    Type
REMARK                         _______ _______ _______ _____ _____    ______ ____
ROOT
ATOM      1  C1* UNL     1      -8.778  -0.467 124.423  0.00  0.00    +0.000 C 
ATOM      2  O4* UNL     1      -7.821  -1.348 125.033  0.00  0.00    +0.000 OA
ATOM      3  C4* UNL     1      -7.741  -2.563 124.262  0.00  0.00    +0.000 C 
ATOM      4  C3* UNL     1      -8.793  -2.484 123.149  0.00  0.00    +0.000 C 
ATOM      5  C2* UNL     1      -9.033  -0.988 123.002  0.00  0.00    +0.000 C 
ENDROOT
BRANCH   1  11
ATOM      6  N   UNL     1      -6.947   4.670 124.434  0.00  0.00    +0.000 N 
ATOM      7  C   UNL     1      -7.415   3.407 124.445  0.00  0.00    +0.000 A 
ATOM      8  N   UNL     1      -8.687   3.210 124.493  0.00  0.00    +0.000 NA
ATOM      9  C   UNL     1      -9.177   1.939 124.499  0.00  0.00    +0.000 A 
ATOM     10  O   UNL     1     -10.392   1.738 124.523  0.00  0.00    +0.000 OA
ATOM     11  N   UNL     1      -8.285   0.897 124.476  0.00  0.00    +0.000 N 
ATOM     12  C   UNL     1      -6.967   1.203 124.426  0.00  0.00    +0.000 A 
ATOM     13  N   UNL     1      -6.507   2.402 124.406  0.00  0.00    +0.000 NA
ATOM     14  H   UNL     1      -7.605   5.436 124.460  0.00  0.00    +0.000 HD
ATOM     15  H   UNL     1      -5.957   4.852 124.395  0.00  0.00    +0.000 HD
ENDBRANCH   1  11
BRANCH   4  16
ATOM     16  O3* UNL     1     -10.005  -3.150 123.530  0.00  0.00    +0.000 OA
ATOM     17  H3* UNL     1     -10.711  -2.949 122.894  0.00  0.00    +0.000 HD
ENDBRANCH   4  16
BRANCH   5  18
ATOM     18  O2* UNL     1     -10.332  -0.665 122.519  0.00  0.00    +0.000 OA
ATOM     19  H2* UNL     1     -10.991  -1.100 123.094  0.00  0.00    +0.000 HD
ENDBRANCH   5  18
BRANCH   3  20
ATOM     20  C5* UNL     1      -6.314  -2.695 123.730  0.00  0.00    +0.000 C 
BRANCH  20  21
ATOM     21  O5* UNL     1      -5.402  -1.922 124.492  0.00  0.00    +0.000 OA
ATOM     22  H5* UNL     1      -5.291  -1.061 124.052  0.00  0.00    +0.000 HD
ENDBRANCH  20  21
ENDBRANCH   3  20
TORSDOF 5
ENDMDL
MODEL 6
REMARK VINA RESULT:      -5.7      3.028      5.588
REMARK  Name = Azacitidine
REMARK  5 active torsions:
REMARK  status: ('A' for Active; 'I' for Inactive)
REMARK    1  A    between atoms: N_6  and  C1*_9
REMARK    2  A    between atoms: C4*_11  and  C5*_12
REMARK    3  A    between atoms: C5*_12  and  O5*_13
REMARK    4  A    between atoms: C3*_14  and  O3*_15
REMARK    5  A    between atoms: C2*_16  and  O2*_17
REMARK                            x       y       z     vdW  Elec       q    Type
REMARK                         _______ _______ _______ _____ _____    ______ ____
ROOT
ATOM      1  C1* UNL     1     -11.225   5.372 130.348  0.00  0.00    +0.000 C 
ATOM      2  O4* UNL     1     -12.018   5.630 129.178  0.00  0.00    +0.000 OA
ATOM      3  C4* UNL     1     -12.646   6.922 129.311  0.00  0.00    +0.000 C 
ATOM      4  C3* UNL     1     -12.305   7.469 130.702  0.00  0.00    +0.000 C 
ATOM      5  C2* UNL     1     -11.039   6.711 131.076  0.00  0.00    +0.000 C 
ENDROOT
BRANCH   1  11
ATOM      6  N   UNL     1      -6.481   3.011 129.055  0.00  0.00    +0.000 N 
ATOM      7  C   UNL     1      -7.663   3.575 129.372  0.00  0.00    +0.000 A 
ATOM      8  N   UNL     1      -8.522   2.894 130.049  0.00  0.00    +0.000 NA
ATOM      9  C   UNL     1      -9.719   3.452 130.381  0.00  0.00    +0.000 A 
ATOM     10  O   UNL     1     -10.540   2.819 131.046  0.00  0.00    +0.000 OA
ATOM     11  N   UNL     1      -9.982   4.731 129.960  0.00  0.00    +0.000 N 
ATOM     12  C   UNL     1      -9.018   5.367 129.254  0.00  0.00    +0.000 A 
ATOM     13  N   UNL     1      -7.883   4.845 128.952  0.00  0.00    +0.000 NA
ATOM     14  H   UNL     1      -6.294   2.067 129.359  0.00  0.00    +0.000 HD
ATOM     15  H   UNL     1      -5.791   3.522 128.529  0.00  0.00    +0.000 HD
ENDBRANCH   1  11
BRANCH   4  16
ATOM     16  O3* UNL     1     -13.352   7.189 131.642  0.00  0.00    +0.000 OA
ATOM     17  H3* UNL     1     -13.953   6.515 131.283  0.00  0.00    +0.000 HD
ENDBRANCH   4  16
BRANCH   5  18
ATOM     18  O2* UNL     1     -10.861   6.558 132.479  0.00  0.00    +0.000 OA
ATOM     19  H2* UNL     1     -10.387   5.720 132.640  0.00  0.00    +0.000 HD
ENDBRANCH   5  18
BRANCH   3  20
ATOM     20  C5* UNL     1     -12.142   7.813 128.175  0.00  0.00    +0.000 C 
BRANCH  20  21
ATOM     21  O5* UNL     1     -12.293   9.188 128.488  0.00  0.00    +0.000 OA
ATOM     22  H5* UNL     1     -13.116   9.295 128.997  0.00  0.00    +0.000 HD
ENDBRANCH  20  21
ENDBRANCH   3  20
TORSDOF 5
ENDMDL
MODEL 7
REMARK VINA RESULT:      -5.4      8.138      9.996
REMARK  Name = Azacitidine
REMARK  5 active torsions:
REMARK  status: ('A' for Active; 'I' for Inactive)
REMARK    1  A    between atoms: N_6  and  C1*_9
REMARK    2  A    between atoms: C4*_11  and  C5*_12
REMARK    3  A    between atoms: C5*_12  and  O5*_13
REMARK    4  A    between atoms: C3*_14  and  O3*_15
REMARK    5  A    between atoms: C2*_16  and  O2*_17
REMARK                            x       y       z     vdW  Elec       q    Type
REMARK                         _______ _______ _______ _____ _____    ______ ____
ROOT
ATOM      1  C1* UNL     1      -8.472   0.279 123.554  0.00  0.00    +0.000 C 
ATOM      2  O4* UNL     1      -7.348   1.126 123.843  0.00  0.00    +0.000 OA
ATOM      3  C4* UNL     1      -7.708   2.495 123.567  0.00  0.00    +0.000 C 
ATOM      4  C3* UNL     1      -9.119   2.499 122.968  0.00  0.00    +0.000 C 
ATOM      5  C2* UNL     1      -9.709   1.183 123.455  0.00  0.00    +0.000 C 
ENDROOT
BRANCH   1  11
ATOM      6  N   UNL     1      -9.026  -3.548 127.401  0.00  0.00    +0.000 N 
ATOM      7  C   UNL     1      -8.886  -2.618 126.435  0.00  0.00    +0.000 A 
ATOM      8  N   UNL     1      -9.329  -2.870 125.253  0.00  0.00    +0.000 NA
ATOM      9  C   UNL     1      -9.199  -1.938 124.267  0.00  0.00    +0.000 A 
ATOM     10  O   UNL     1      -9.639  -2.159 123.138  0.00  0.00    +0.000 OA
ATOM     11  N   UNL     1      -8.573  -0.756 124.568  0.00  0.00    +0.000 N 
ATOM     12  C   UNL     1      -8.141  -0.582 125.839  0.00  0.00    +0.000 A 
ATOM     13  N   UNL     1      -8.276  -1.455 126.770  0.00  0.00    +0.000 NA
ATOM     14  H   UNL     1      -9.480  -4.422 127.175  0.00  0.00    +0.000 HD
ATOM     15  H   UNL     1      -8.691  -3.376 128.334  0.00  0.00    +0.000 HD
ENDBRANCH   1  11
BRANCH   4  16
ATOM     16  O3* UNL     1      -9.075   2.527 121.534  0.00  0.00    +0.000 OA
ATOM     17  H3* UNL     1      -9.056   3.446 121.218  0.00  0.00    +0.000 HD
ENDBRANCH   4  16
BRANCH   5  18
ATOM     18  O2* UNL     1     -10.711   0.656 122.594  0.00  0.00    +0.000 OA
ATOM     19  H2* UNL     1     -10.900  -0.262 122.866  0.00  0.00    +0.000 HD
ENDBRANCH   5  18
BRANCH   3  20
ATOM     20  C5* UNL     1      -7.608   3.285 124.873  0.00  0.00    +0.000 C 
BRANCH  20  21
ATOM     21  O5* UNL     1      -8.439   4.434 124.849  0.00  0.00    +0.000 OA
ATOM     22  H5* UNL     1      -8.082   5.054 124.189  0.00  0.00    +0.000 HD
ENDBRANCH  20  21
ENDBRANCH   3  20
TORSDOF 5
ENDMDL
MODEL 8
REMARK VINA RESULT:      -5.4      1.705      3.180
REMARK  Name = Azacitidine
REMARK  5 active torsions:
REMARK  status: ('A' for Active; 'I' for Inactive)
REMARK    1  A    between atoms: N_6  and  C1*_9
REMARK    2  A    between atoms: C4*_11  and  C5*_12
REMARK    3  A    between atoms: C5*_12  and  O5*_13
REMARK    4  A    between atoms: C3*_14  and  O3*_15
REMARK    5  A    between atoms: C2*_16  and  O2*_17
REMARK                            x       y       z     vdW  Elec       q    Type
REMARK                         _______ _______ _______ _____ _____    ______ ____
ROOT
ATOM      1  C1* UNL     1      -9.643   5.676 130.314  0.00  0.00    +0.000 C 
ATOM      2  O4* UNL     1      -8.398   5.743 129.600  0.00  0.00    +0.000 OA
ATOM      3  C4* UNL     1      -7.979   4.407 129.258  0.00  0.00    +0.000 C 
ATOM      4  C3* UNL     1      -8.975   3.426 129.888  0.00  0.00    +0.000 C 
ATOM      5  C2* UNL     1     -10.224   4.274 130.084  0.00  0.00    +0.000 C 
ENDROOT
BRANCH   1  11
ATOM      6  N   UNL     1     -13.021   9.608 128.620  0.00  0.00    +0.000 N 
ATOM      7  C   UNL     1     -12.188   8.644 129.059  0.00  0.00    +0.000 A 
ATOM      8  N   UNL     1     -12.399   8.110 130.212  0.00  0.00    +0.000 NA
ATOM      9  C   UNL     1     -11.569   7.131 130.667  0.00  0.00    +0.000 A 
ATOM     10  O   UNL     1     -11.773   6.597 131.759  0.00  0.00    +0.000 OA
ATOM     11  N   UNL     1     -10.509   6.757 129.881  0.00  0.00    +0.000 N 
ATOM     12  C   UNL     1     -10.369   7.375 128.685  0.00  0.00    +0.000 A 
ATOM     13  N   UNL     1     -11.160   8.289 128.250  0.00  0.00    +0.000 NA
ATOM     14  H   UNL     1     -13.795   9.889 129.204  0.00  0.00    +0.000 HD
ATOM     15  H   UNL     1     -12.879  10.041 127.721  0.00  0.00    +0.000 HD
ENDBRANCH   1  11
BRANCH   4  16
ATOM     16  O3* UNL     1      -8.498   2.939 131.150  0.00  0.00    +0.000 OA
ATOM     17  H3* UNL     1      -7.873   2.209 131.011  0.00  0.00    +0.000 HD
ENDBRANCH   4  16
BRANCH   5  18
ATOM     18  O2* UNL     1     -11.048   3.834 131.156  0.00  0.00    +0.000 OA
ATOM     19  H2* UNL     1     -11.520   3.028 130.870  0.00  0.00    +0.000 HD
ENDBRANCH   5  18
BRANCH   3  20
ATOM     20  C5* UNL     1      -7.918   4.304 127.733  0.00  0.00    +0.000 C 
BRANCH  20  21
ATOM     21  O5* UNL     1      -8.650   5.348 127.113  0.00  0.00    +0.000 OA
ATOM     22  H5* UNL     1      -9.552   5.346 127.479  0.00  0.00    +0.000 HD
ENDBRANCH  20  21
ENDBRANCH   3  20
TORSDOF 5
ENDMDL
MODEL 9
REMARK VINA RESULT:      -5.2      8.729     10.331
REMARK  Name = Azacitidine
REMARK  5 active torsions:
REMARK  status: ('A' for Active; 'I' for Inactive)
REMARK    1  A    between atoms: N_6  and  C1*_9
REMARK    2  A    between atoms: C4*_11  and  C5*_12
REMARK    3  A    between atoms: C5*_12  and  O5*_13
REMARK    4  A    between atoms: C3*_14  and  O3*_15
REMARK    5  A    between atoms: C2*_16  and  O2*_17
REMARK                            x       y       z     vdW  Elec       q    Type
REMARK                         _______ _______ _______ _____ _____    ______ ____
ROOT
ATOM      1  C1* UNL     1      -7.733   2.319 123.495  0.00  0.00    +0.000 C 
ATOM      2  O4* UNL     1      -7.665   2.912 122.188  0.00  0.00    +0.000 OA
ATOM      3  C4* UNL     1      -6.551   3.826 122.143  0.00  0.00    +0.000 C 
ATOM      4  C3* UNL     1      -5.938   3.889 123.547  0.00  0.00    +0.000 C 
ATOM      5  C2* UNL     1      -6.386   2.581 124.183  0.00  0.00    +0.000 C 
ENDROOT
BRANCH   1  11
ATOM      6  N   UNL     1      -9.025  -2.973 123.224  0.00  0.00    +0.000 N 
ATOM      7  C   UNL     1      -8.723  -1.661 123.279  0.00  0.00    +0.000 A 
ATOM      8  N   UNL     1      -9.679  -0.800 123.352  0.00  0.00    +0.000 NA
ATOM      9  C   UNL     1      -9.390   0.530 123.413  0.00  0.00    +0.000 A 
ATOM     10  O   UNL     1     -10.294   1.362 123.506  0.00  0.00    +0.000 OA
ATOM     11  N   UNL     1      -8.074   0.913 123.372  0.00  0.00    +0.000 N 
ATOM     12  C   UNL     1      -7.140  -0.064 123.294  0.00  0.00    +0.000 A 
ATOM     13  N   UNL     1      -7.412  -1.318 123.251  0.00  0.00    +0.000 NA
ATOM     14  H   UNL     1      -9.995  -3.253 123.245  0.00  0.00    +0.000 HD
ATOM     15  H   UNL     1      -8.297  -3.667 123.168  0.00  0.00    +0.000 HD
ENDBRANCH   1  11
BRANCH   4  16
ATOM     16  O3* UNL     1      -6.449   5.006 124.289  0.00  0.00    +0.000 OA
ATOM     17  H3* UNL     1      -7.272   4.759 124.741  0.00  0.00    +0.000 HD
ENDBRANCH   4  16
BRANCH   5  18
ATOM     18  O2* UNL     1      -6.493   2.644 125.600  0.00  0.00    +0.000 OA
ATOM     19  H2* UNL     1      -6.980   3.456 125.837  0.00  0.00    +0.000 HD
ENDBRANCH   5  18
BRANCH   3  20
ATOM     20  C5* UNL     1      -5.569   3.328 121.082  0.00  0.00    +0.000 C 
BRANCH  20  21
ATOM     21  O5* UNL     1      -5.188   4.368 120.197  0.00  0.00    +0.000 OA
ATOM     22  H5* UNL     1      -4.416   4.066 119.686  0.00  0.00    +0.000 HD
ENDBRANCH  20  21
ENDBRANCH   3  20
TORSDOF 5
ENDMDL
