MODEL 1
REMARK VINA RESULT:      -8.4      0.000      0.000
REMARK  Name = Azatadine
REMARK  1 active torsions:
REMARK  status: ('A' for Active; 'I' for Inactive)
REMARK    1  A    between atoms: C_1  and  N_2
REMARK                            x       y       z     vdW  Elec       q    Type
REMARK                         _______ _______ _______ _____ _____    ______ ____
ROOT
ATOM      1  C   UNL     1      -4.949   3.699 127.924  0.00  0.00    +0.000 C 
ATOM      2  N   UNL     1      -4.288   3.069 126.778  0.00  0.00    +0.000 NA
ATOM      3  C   UNL     1      -4.724   1.663 126.625  0.00  0.00    +0.000 C 
ATOM      4  C   UNL     1      -6.206   1.527 126.249  0.00  0.00    +0.000 C 
ATOM      5  C   UNL     1      -6.461   2.247 124.931  0.00  0.00    +0.000 C 
ATOM      6  C   UNL     1      -6.041   3.714 125.063  0.00  0.00    +0.000 C 
ATOM      7  C   UNL     1      -4.572   3.806 125.527  0.00  0.00    +0.000 C 
ATOM      8  C   UNL     1      -6.955   1.654 123.814  0.00  0.00    +0.000 C 
ATOM      9  C   UNL     1      -7.220   2.491 122.618  0.00  0.00    +0.000 A 
ATOM     10  C   UNL     1      -6.177   3.044 121.864  0.00  0.00    +0.000 A 
ATOM     11  C   UNL     1      -6.460   3.803 120.728  0.00  0.00    +0.000 A 
ATOM     12  C   UNL     1      -7.781   3.987 120.322  0.00  0.00    +0.000 A 
ATOM     13  C   UNL     1      -8.824   3.425 121.056  0.00  0.00    +0.000 A 
ATOM     14  C   UNL     1      -8.550   2.690 122.215  0.00  0.00    +0.000 A 
ATOM     15  C   UNL     1      -9.668   2.047 122.993  0.00  0.00    +0.000 C 
ATOM     16  C   UNL     1      -9.682   0.542 122.746  0.00  0.00    +0.000 C 
ATOM     17  C   UNL     1      -8.550  -0.282 123.316  0.00  0.00    +0.000 A 
ATOM     18  C   UNL     1      -7.322   0.198 123.795  0.00  0.00    +0.000 A 
ATOM     19  N   UNL     1      -6.351  -0.642 124.251  0.00  0.00    +0.000 NA
ATOM     20  C   UNL     1      -6.609  -1.966 124.280  0.00  0.00    +0.000 A 
ATOM     21  C   UNL     1      -7.782  -2.527 123.829  0.00  0.00    +0.000 A 
ATOM     22  C   UNL     1      -8.754  -1.673 123.329  0.00  0.00    +0.000 A 
ENDROOT
TORSDOF 0
ENDMDL
MODEL 2
REMARK VINA RESULT:      -7.9      3.294      5.493
REMARK  Name = Azatadine
REMARK  1 active torsions:
REMARK  status: ('A' for Active; 'I' for Inactive)
REMARK    1  A    between atoms: C_1  and  N_2
REMARK                            x       y       z     vdW  Elec       q    Type
REMARK                         _______ _______ _______ _____ _____    ______ ____
ROOT
ATOM      1  C   UNL     1      -7.824   3.996 126.370  0.00  0.00    +0.000 C 
ATOM      2  N   UNL     1      -6.591   3.271 126.688  0.00  0.00    +0.000 NA
ATOM      3  C   UNL     1      -6.724   2.539 127.967  0.00  0.00    +0.000 C 
ATOM      4  C   UNL     1      -7.753   1.401 127.908  0.00  0.00    +0.000 C 
ATOM      5  C   UNL     1      -7.341   0.404 126.833  0.00  0.00    +0.000 C 
ATOM      6  C   UNL     1      -7.218   1.127 125.489  0.00  0.00    +0.000 C 
ATOM      7  C   UNL     1      -6.242   2.316 125.613  0.00  0.00    +0.000 C 
ATOM      8  C   UNL     1      -7.097  -0.912 127.059  0.00  0.00    +0.000 C 
ATOM      9  C   UNL     1      -6.772  -1.787 125.904  0.00  0.00    +0.000 A 
ATOM     10  C   UNL     1      -5.555  -1.677 125.221  0.00  0.00    +0.000 A 
ATOM     11  C   UNL     1      -5.269  -2.534 124.158  0.00  0.00    +0.000 A 
ATOM     12  C   UNL     1      -6.180  -3.524 123.794  0.00  0.00    +0.000 A 
ATOM     13  C   UNL     1      -7.386  -3.652 124.480  0.00  0.00    +0.000 A 
ATOM     14  C   UNL     1      -7.696  -2.775 125.526  0.00  0.00    +0.000 A 
ATOM     15  C   UNL     1      -8.979  -2.930 126.298  0.00  0.00    +0.000 C 
ATOM     16  C   UNL     1      -8.697  -3.536 127.669  0.00  0.00    +0.000 C 
ATOM     17  C   UNL     1      -7.962  -2.688 128.683  0.00  0.00    +0.000 A 
ATOM     18  C   UNL     1      -7.238  -1.515 128.427  0.00  0.00    +0.000 A 
ATOM     19  N   UNL     1      -6.576  -0.849 129.415  0.00  0.00    +0.000 NA
ATOM     20  C   UNL     1      -6.666  -1.318 130.677  0.00  0.00    +0.000 A 
ATOM     21  C   UNL     1      -7.350  -2.462 131.021  0.00  0.00    +0.000 A 
ATOM     22  C   UNL     1      -7.991  -3.159 130.007  0.00  0.00    +0.000 A 
ENDROOT
TORSDOF 0
ENDMDL
MODEL 3
REMARK VINA RESULT:      -7.7      1.699      1.957
REMARK  Name = Azatadine
REMARK  1 active torsions:
REMARK  status: ('A' for Active; 'I' for Inactive)
REMARK    1  A    between atoms: C_1  and  N_2
REMARK                            x       y       z     vdW  Elec       q    Type
REMARK                         _______ _______ _______ _____ _____    ______ ____
ROOT
ATOM      1  C   UNL     1      -8.040   2.382 129.456  0.00  0.00    +0.000 C 
ATOM      2  N   UNL     1      -6.912   1.965 128.620  0.00  0.00    +0.000 NA
ATOM      3  C   UNL     1      -7.088   0.571 128.154  0.00  0.00    +0.000 C 
ATOM      4  C   UNL     1      -8.273   0.400 127.193  0.00  0.00    +0.000 C 
ATOM      5  C   UNL     1      -8.064   1.284 125.971  0.00  0.00    +0.000 C 
ATOM      6  C   UNL     1      -7.903   2.740 126.418  0.00  0.00    +0.000 C 
ATOM      7  C   UNL     1      -6.758   2.855 127.448  0.00  0.00    +0.000 C 
ATOM      8  C   UNL     1      -8.004   0.829 124.694  0.00  0.00    +0.000 C 
ATOM      9  C   UNL     1      -7.867   1.811 123.590  0.00  0.00    +0.000 A 
ATOM     10  C   UNL     1      -6.681   2.529 123.391  0.00  0.00    +0.000 A 
ATOM     11  C   UNL     1      -6.575   3.425 122.326  0.00  0.00    +0.000 A 
ATOM     12  C   UNL     1      -7.638   3.583 121.438  0.00  0.00    +0.000 A 
ATOM     13  C   UNL     1      -8.815   2.859 121.619  0.00  0.00    +0.000 A 
ATOM     14  C   UNL     1      -8.942   1.984 122.703  0.00  0.00    +0.000 A 
ATOM     15  C   UNL     1     -10.195   1.168 122.884  0.00  0.00    +0.000 C 
ATOM     16  C   UNL     1      -9.938  -0.284 122.494  0.00  0.00    +0.000 C 
ATOM     17  C   UNL     1      -9.038  -1.110 123.385  0.00  0.00    +0.000 A 
ATOM     18  C   UNL     1      -8.164  -0.629 124.371  0.00  0.00    +0.000 A 
ATOM     19  N   UNL     1      -7.364  -1.465 125.092  0.00  0.00    +0.000 NA
ATOM     20  C   UNL     1      -7.460  -2.793 124.873  0.00  0.00    +0.000 A 
ATOM     21  C   UNL     1      -8.286  -3.354 123.925  0.00  0.00    +0.000 A 
ATOM     22  C   UNL     1      -9.071  -2.499 123.166  0.00  0.00    +0.000 A 
ENDROOT
TORSDOF 0
ENDMDL
MODEL 4
REMARK VINA RESULT:      -7.5      5.615      8.125
REMARK  Name = Azatadine
REMARK  1 active torsions:
REMARK  status: ('A' for Active; 'I' for Inactive)
REMARK    1  A    between atoms: C_1  and  N_2
REMARK                            x       y       z     vdW  Elec       q    Type
REMARK                         _______ _______ _______ _____ _____    ______ ____
ROOT
ATOM      1  C   UNL     1      -3.617  -3.781 132.545  0.00  0.00    +0.000 C 
ATOM      2  N   UNL     1      -5.066  -3.915 132.718  0.00  0.00    +0.000 NA
ATOM      3  C   UNL     1      -5.686  -2.603 133.005  0.00  0.00    +0.000 C 
ATOM      4  C   UNL     1      -5.598  -1.622 131.827  0.00  0.00    +0.000 C 
ATOM      5  C   UNL     1      -6.301  -2.222 130.616  0.00  0.00    +0.000 C 
ATOM      6  C   UNL     1      -5.664  -3.573 130.277  0.00  0.00    +0.000 C 
ATOM      7  C   UNL     1      -5.695  -4.499 131.512  0.00  0.00    +0.000 C 
ATOM      8  C   UNL     1      -7.346  -1.645 129.971  0.00  0.00    +0.000 C 
ATOM      9  C   UNL     1      -7.890  -2.308 128.759  0.00  0.00    +0.000 A 
ATOM     10  C   UNL     1      -8.601  -3.512 128.838  0.00  0.00    +0.000 A 
ATOM     11  C   UNL     1      -9.124  -4.093 127.682  0.00  0.00    +0.000 A 
ATOM     12  C   UNL     1      -8.968  -3.460 126.450  0.00  0.00    +0.000 A 
ATOM     13  C   UNL     1      -8.279  -2.253 126.365  0.00  0.00    +0.000 A 
ATOM     14  C   UNL     1      -7.722  -1.680 127.514  0.00  0.00    +0.000 A 
ATOM     15  C   UNL     1      -7.008  -0.356 127.439  0.00  0.00    +0.000 C 
ATOM     16  C   UNL     1      -7.885   0.748 128.022  0.00  0.00    +0.000 C 
ATOM     17  C   UNL     1      -8.131   0.746 129.514  0.00  0.00    +0.000 A 
ATOM     18  C   UNL     1      -7.899  -0.317 130.400  0.00  0.00    +0.000 A 
ATOM     19  N   UNL     1      -8.198  -0.224 131.727  0.00  0.00    +0.000 NA
ATOM     20  C   UNL     1      -8.684   0.944 132.195  0.00  0.00    +0.000 A 
ATOM     21  C   UNL     1      -8.946   2.037 131.400  0.00  0.00    +0.000 A 
ATOM     22  C   UNL     1      -8.678   1.927 130.044  0.00  0.00    +0.000 A 
ENDROOT
TORSDOF 0
ENDMDL
MODEL 5
REMARK VINA RESULT:      -7.5      3.885      5.901
REMARK  Name = Azatadine
REMARK  1 active torsions:
REMARK  status: ('A' for Active; 'I' for Inactive)
REMARK    1  A    between atoms: C_1  and  N_2
REMARK                            x       y       z     vdW  Elec       q    Type
REMARK                         _______ _______ _______ _____ _____    ______ ____
ROOT
ATOM      1  C   UNL     1      -5.528   3.563 127.822  0.00  0.00    +0.000 C 
ATOM      2  N   UNL     1      -4.527   2.530 127.546  0.00  0.00    +0.000 NA
ATOM      3  C   UNL     1      -4.395   1.603 128.692  0.00  0.00    +0.000 C 
ATOM      4  C   UNL     1      -5.657   0.763 128.938  0.00  0.00    +0.000 C 
ATOM      5  C   UNL     1      -5.964  -0.063 127.696  0.00  0.00    +0.000 C 
ATOM      6  C   UNL     1      -6.130   0.871 126.493  0.00  0.00    +0.000 C 
ATOM      7  C   UNL     1      -4.877   1.758 126.332  0.00  0.00    +0.000 C 
ATOM      8  C   UNL     1      -6.044  -1.417 127.673  0.00  0.00    +0.000 C 
ATOM      9  C   UNL     1      -6.421  -2.090 126.405  0.00  0.00    +0.000 A 
ATOM     10  C   UNL     1      -5.554  -2.122 125.306  0.00  0.00    +0.000 A 
ATOM     11  C   UNL     1      -5.929  -2.788 124.138  0.00  0.00    +0.000 A 
ATOM     12  C   UNL     1      -7.153  -3.451 124.074  0.00  0.00    +0.000 A 
ATOM     13  C   UNL     1      -8.014  -3.439 125.170  0.00  0.00    +0.000 A 
ATOM     14  C   UNL     1      -7.661  -2.746 126.333  0.00  0.00    +0.000 A 
ATOM     15  C   UNL     1      -8.567  -2.760 127.536  0.00  0.00    +0.000 C 
ATOM     16  C   UNL     1      -7.998  -3.679 128.611  0.00  0.00    +0.000 C 
ATOM     17  C   UNL     1      -6.737  -3.243 129.324  0.00  0.00    +0.000 A 
ATOM     18  C   UNL     1      -5.850  -2.237 128.917  0.00  0.00    +0.000 A 
ATOM     19  N   UNL     1      -4.715  -1.953 129.617  0.00  0.00    +0.000 NA
ATOM     20  C   UNL     1      -4.476  -2.634 130.756  0.00  0.00    +0.000 A 
ATOM     21  C   UNL     1      -5.288  -3.639 131.231  0.00  0.00    +0.000 A 
ATOM     22  C   UNL     1      -6.422  -3.954 130.496  0.00  0.00    +0.000 A 
ENDROOT
TORSDOF 0
ENDMDL
MODEL 6
REMARK VINA RESULT:      -7.4      6.800     10.466
REMARK  Name = Azatadine
REMARK  1 active torsions:
REMARK  status: ('A' for Active; 'I' for Inactive)
REMARK    1  A    between atoms: C_1  and  N_2
REMARK                            x       y       z     vdW  Elec       q    Type
REMARK                         _______ _______ _______ _____ _____    ______ ____
ROOT
ATOM      1  C   UNL     1      -2.472   3.992 127.449  0.00  0.00    +0.000 C 
ATOM      2  N   UNL     1      -3.020   5.348 127.537  0.00  0.00    +0.000 NA
ATOM      3  C   UNL     1      -4.449   5.315 127.918  0.00  0.00    +0.000 C 
ATOM      4  C   UNL     1      -4.683   4.787 129.341  0.00  0.00    +0.000 C 
ATOM      5  C   UNL     1      -3.949   5.676 130.336  0.00  0.00    +0.000 C 
ATOM      6  C   UNL     1      -2.459   5.712 129.983  0.00  0.00    +0.000 C 
ATOM      7  C   UNL     1      -2.271   6.163 128.518  0.00  0.00    +0.000 C 
ATOM      8  C   UNL     1      -4.546   6.347 131.354  0.00  0.00    +0.000 C 
ATOM      9  C   UNL     1      -3.697   7.122 132.293  0.00  0.00    +0.000 A 
ATOM     10  C   UNL     1      -3.049   8.298 131.896  0.00  0.00    +0.000 A 
ATOM     11  C   UNL     1      -2.282   9.018 132.813  0.00  0.00    +0.000 A 
ATOM     12  C   UNL     1      -2.185   8.586 134.134  0.00  0.00    +0.000 A 
ATOM     13  C   UNL     1      -2.842   7.427 134.542  0.00  0.00    +0.000 A 
ATOM     14  C   UNL     1      -3.586   6.681 133.622  0.00  0.00    +0.000 A 
ATOM     15  C   UNL     1      -4.330   5.448 134.062  0.00  0.00    +0.000 C 
ATOM     16  C   UNL     1      -5.825   5.740 134.148  0.00  0.00    +0.000 C 
ATOM     17  C   UNL     1      -6.579   5.971 132.858  0.00  0.00    +0.000 A 
ATOM     18  C   UNL     1      -6.024   6.248 131.600  0.00  0.00    +0.000 A 
ATOM     19  N   UNL     1      -6.802   6.482 130.507  0.00  0.00    +0.000 NA
ATOM     20  C   UNL     1      -8.142   6.396 130.642  0.00  0.00    +0.000 A 
ATOM     21  C   UNL     1      -8.775   6.133 131.835  0.00  0.00    +0.000 A 
ATOM     22  C   UNL     1      -7.981   5.934 132.956  0.00  0.00    +0.000 A 
ENDROOT
TORSDOF 0
ENDMDL
MODEL 7
REMARK VINA RESULT:      -7.3      3.751      6.460
REMARK  Name = Azatadine
REMARK  1 active torsions:
REMARK  status: ('A' for Active; 'I' for Inactive)
REMARK    1  A    between atoms: C_1  and  N_2
REMARK                            x       y       z     vdW  Elec       q    Type
REMARK                         _______ _______ _______ _____ _____    ______ ____
ROOT
ATOM      1  C   UNL     1      -3.568   2.547 126.452  0.00  0.00    +0.000 C 
ATOM      2  N   UNL     1      -5.011   2.795 126.498  0.00  0.00    +0.000 NA
ATOM      3  C   UNL     1      -5.747   1.781 125.711  0.00  0.00    +0.000 C 
ATOM      4  C   UNL     1      -5.650   0.368 126.306  0.00  0.00    +0.000 C 
ATOM      5  C   UNL     1      -6.220   0.375 127.719  0.00  0.00    +0.000 C 
ATOM      6  C   UNL     1      -5.462   1.400 128.567  0.00  0.00    +0.000 C 
ATOM      7  C   UNL     1      -5.510   2.788 127.892  0.00  0.00    +0.000 C 
ATOM      8  C   UNL     1      -7.258  -0.395 128.133  0.00  0.00    +0.000 C 
ATOM      9  C   UNL     1      -7.665  -0.339 129.559  0.00  0.00    +0.000 A 
ATOM     10  C   UNL     1      -8.288   0.793 130.100  0.00  0.00    +0.000 A 
ATOM     11  C   UNL     1      -8.684   0.803 131.438  0.00  0.00    +0.000 A 
ATOM     12  C   UNL     1      -8.490  -0.327 132.231  0.00  0.00    +0.000 A 
ATOM     13  C   UNL     1      -7.888  -1.464 131.696  0.00  0.00    +0.000 A 
ATOM     14  C   UNL     1      -7.458  -1.470 130.364  0.00  0.00    +0.000 A 
ATOM     15  C   UNL     1      -6.841  -2.707 129.766  0.00  0.00    +0.000 C 
ATOM     16  C   UNL     1      -7.837  -3.392 128.836  0.00  0.00    +0.000 C 
ATOM     17  C   UNL     1      -8.186  -2.702 127.536  0.00  0.00    +0.000 A 
ATOM     18  C   UNL     1      -7.938  -1.362 127.206  0.00  0.00    +0.000 A 
ATOM     19  N   UNL     1      -8.334  -0.830 126.016  0.00  0.00    +0.000 NA
ATOM     20  C   UNL     1      -8.938  -1.638 125.121  0.00  0.00    +0.000 A 
ATOM     21  C   UNL     1      -9.225  -2.964 125.358  0.00  0.00    +0.000 A 
ATOM     22  C   UNL     1      -8.855  -3.493 126.586  0.00  0.00    +0.000 A 
ENDROOT
TORSDOF 0
ENDMDL
MODEL 8
REMARK VINA RESULT:      -7.3      2.353      5.139
REMARK  Name = Azatadine
REMARK  1 active torsions:
REMARK  status: ('A' for Active; 'I' for Inactive)
REMARK    1  A    between atoms: C_1  and  N_2
REMARK                            x       y       z     vdW  Elec       q    Type
REMARK                         _______ _______ _______ _____ _____    ______ ____
ROOT
ATOM      1  C   UNL     1      -5.692   3.867 122.647  0.00  0.00    +0.000 C 
ATOM      2  N   UNL     1      -7.080   3.691 123.082  0.00  0.00    +0.000 NA
ATOM      3  C   UNL     1      -7.621   2.397 122.611  0.00  0.00    +0.000 C 
ATOM      4  C   UNL     1      -6.932   1.185 123.254  0.00  0.00    +0.000 C 
ATOM      5  C   UNL     1      -7.107   1.248 124.766  0.00  0.00    +0.000 C 
ATOM      6  C   UNL     1      -6.534   2.568 125.289  0.00  0.00    +0.000 C 
ATOM      7  C   UNL     1      -7.189   3.759 124.556  0.00  0.00    +0.000 C 
ATOM      8  C   UNL     1      -7.707   0.285 125.511  0.00  0.00    +0.000 C 
ATOM      9  C   UNL     1      -7.745   0.444 126.986  0.00  0.00    +0.000 A 
ATOM     10  C   UNL     1      -8.545   1.417 127.598  0.00  0.00    +0.000 A 
ATOM     11  C   UNL     1      -8.580   1.521 128.989  0.00  0.00    +0.000 A 
ATOM     12  C   UNL     1      -7.844   0.635 129.775  0.00  0.00    +0.000 A 
ATOM     13  C   UNL     1      -7.061  -0.348 129.174  0.00  0.00    +0.000 A 
ATOM     14  C   UNL     1      -6.994  -0.438 127.779  0.00  0.00    +0.000 A 
ATOM     15  C   UNL     1      -6.180  -1.522 127.122  0.00  0.00    +0.000 C 
ATOM     16  C   UNL     1      -7.100  -2.603 126.563  0.00  0.00    +0.000 C 
ATOM     17  C   UNL     1      -7.961  -2.256 125.369  0.00  0.00    +0.000 A 
ATOM     18  C   UNL     1      -8.246  -0.970 124.887  0.00  0.00    +0.000 A 
ATOM     19  N   UNL     1      -9.073  -0.769 123.823  0.00  0.00    +0.000 NA
ATOM     20  C   UNL     1      -9.586  -1.847 123.196  0.00  0.00    +0.000 A 
ATOM     21  C   UNL     1      -9.364  -3.145 123.600  0.00  0.00    +0.000 A 
ATOM     22  C   UNL     1      -8.553  -3.345 124.707  0.00  0.00    +0.000 A 
ENDROOT
TORSDOF 0
ENDMDL
MODEL 9
REMARK VINA RESULT:      -7.2      6.531      9.493
REMARK  Name = Azatadine
REMARK  1 active torsions:
REMARK  status: ('A' for Active; 'I' for Inactive)
REMARK    1  A    between atoms: C_1  and  N_2
REMARK                            x       y       z     vdW  Elec       q    Type
REMARK                         _______ _______ _______ _____ _____    ______ ____
ROOT
ATOM      1  C   UNL     1      -9.981   5.427 130.992  0.00  0.00    +0.000 C 
ATOM      2  N   UNL     1      -8.969   4.606 131.661  0.00  0.00    +0.000 NA
ATOM      3  C   UNL     1      -8.125   3.898 130.672  0.00  0.00    +0.000 C 
ATOM      4  C   UNL     1      -7.259   4.845 129.830  0.00  0.00    +0.000 C 
ATOM      5  C   UNL     1      -6.341   5.642 130.748  0.00  0.00    +0.000 C 
ATOM      6  C   UNL     1      -7.187   6.407 131.771  0.00  0.00    +0.000 C 
ATOM      7  C   UNL     1      -8.106   5.431 132.536  0.00  0.00    +0.000 C 
ATOM      8  C   UNL     1      -4.986   5.637 130.674  0.00  0.00    +0.000 C 
ATOM      9  C   UNL     1      -4.217   6.518 131.589  0.00  0.00    +0.000 A 
ATOM     10  C   UNL     1      -4.144   6.261 132.964  0.00  0.00    +0.000 A 
ATOM     11  C   UNL     1      -3.389   7.093 133.791  0.00  0.00    +0.000 A 
ATOM     12  C   UNL     1      -2.679   8.162 133.247  0.00  0.00    +0.000 A 
ATOM     13  C   UNL     1      -2.732   8.413 131.878  0.00  0.00    +0.000 A 
ATOM     14  C   UNL     1      -3.514   7.604 131.045  0.00  0.00    +0.000 A 
ATOM     15  C   UNL     1      -3.547   7.844 129.559  0.00  0.00    +0.000 C 
ATOM     16  C   UNL     1      -2.722   6.783 128.837  0.00  0.00    +0.000 C 
ATOM     17  C   UNL     1      -3.250   5.366 128.816  0.00  0.00    +0.000 A 
ATOM     18  C   UNL     1      -4.259   4.835 129.633  0.00  0.00    +0.000 A 
ATOM     19  N   UNL     1      -4.630   3.526 129.558  0.00  0.00    +0.000 NA
ATOM     20  C   UNL     1      -4.034   2.742 128.636  0.00  0.00    +0.000 A 
ATOM     21  C   UNL     1      -3.034   3.175 127.795  0.00  0.00    +0.000 A 
ATOM     22  C   UNL     1      -2.631   4.498 127.900  0.00  0.00    +0.000 A 
ENDROOT
TORSDOF 0
ENDMDL
