MODEL 1
REMARK VINA RESULT:      -6.6      0.000      0.000
REMARK  Name = Azathioprine
REMARK  4 active torsions:
REMARK  status: ('A' for Active; 'I' for Inactive)
REMARK    1  A    between atoms: C_1  and  N_2
REMARK    2  A    between atoms: C_5  and  N_17
REMARK    3  A    between atoms: C_6  and  S_7
REMARK    4  A    between atoms: S_7  and  C_8
REMARK                            x       y       z     vdW  Elec       q    Type
REMARK                         _______ _______ _______ _____ _____    ______ ____
ROOT
ATOM      1  S   UNL     1      -9.785   7.672 129.690  0.00  0.00    +0.000 S 
ENDROOT
BRANCH   1   2
ATOM      2  C   UNL     1      -9.343   6.350 130.747  0.00  0.00    +0.000 A 
ATOM      3  N   UNL     1      -9.570   6.408 132.075  0.00  0.00    +0.000 NA
ATOM      4  C   UNL     1      -9.161   5.378 132.843  0.00  0.00    +0.000 A 
ATOM      5  N   UNL     1      -8.586   4.240 132.446  0.00  0.00    +0.000 NA
ATOM      6  C   UNL     1      -8.469   4.155 131.110  0.00  0.00    +0.000 A 
ATOM      7  C   UNL     1      -8.824   5.174 130.247  0.00  0.00    +0.000 A 
ATOM      8  N   UNL     1      -8.546   4.683 128.999  0.00  0.00    +0.000 N 
ATOM      9  C   UNL     1      -8.079   3.406 129.157  0.00  0.00    +0.000 A 
ATOM     10  N   UNL     1      -7.994   3.073 130.425  0.00  0.00    +0.000 NA
ATOM     11  H   UNL     1      -8.702   5.156 128.119  0.00  0.00    +0.000 HD
ENDBRANCH   1   2
BRANCH   1  17
ATOM     12  C   UNL     1     -12.983   7.321 130.830  0.00  0.00    +0.000 C 
ATOM     13  N   UNL     1     -12.561   7.187 129.461  0.00  0.00    +0.000 N 
ATOM     14  C   UNL     1     -13.452   6.891 128.458  0.00  0.00    +0.000 A 
ATOM     15  N   UNL     1     -12.871   6.842 127.285  0.00  0.00    +0.000 NA
ATOM     16  C   UNL     1     -11.533   7.095 127.541  0.00  0.00    +0.000 A 
ATOM     17  C   UNL     1     -11.304   7.308 128.900  0.00  0.00    +0.000 A 
BRANCH  16  18
ATOM     18  N   UNL     1     -10.592   7.125 126.434  0.00  0.00    +0.000 N 
ATOM     19  O   UNL     1     -10.762   7.987 125.556  0.00  0.00    +0.000 OA
ATOM     20  O   UNL     1      -9.690   6.281 126.423  0.00  0.00    +0.000 OA
ENDBRANCH  16  18
ENDBRANCH   1  17
TORSDOF 3
ENDMDL
MODEL 2
REMARK VINA RESULT:      -6.3      0.972      2.219
REMARK  Name = Azathioprine
REMARK  4 active torsions:
REMARK  status: ('A' for Active; 'I' for Inactive)
REMARK    1  A    between atoms: C_1  and  N_2
REMARK    2  A    between atoms: C_5  and  N_17
REMARK    3  A    between atoms: C_6  and  S_7
REMARK    4  A    between atoms: S_7  and  C_8
REMARK                            x       y       z     vdW  Elec       q    Type
REMARK                         _______ _______ _______ _____ _____    ______ ____
ROOT
ATOM      1  S   UNL     1      -9.751   7.013 129.779  0.00  0.00    +0.000 S 
ENDROOT
BRANCH   1   2
ATOM      2  C   UNL     1      -9.599   5.402 130.442  0.00  0.00    +0.000 A 
ATOM      3  N   UNL     1      -9.810   4.308 129.682  0.00  0.00    +0.000 NA
ATOM      4  C   UNL     1      -9.725   3.094 130.265  0.00  0.00    +0.000 A 
ATOM      5  N   UNL     1      -9.397   2.815 131.529  0.00  0.00    +0.000 NA
ATOM      6  C   UNL     1      -9.083   3.912 132.239  0.00  0.00    +0.000 A 
ATOM      7  C   UNL     1      -9.177   5.196 131.740  0.00  0.00    +0.000 A 
ATOM      8  N   UNL     1      -8.773   6.000 132.773  0.00  0.00    +0.000 N 
ATOM      9  C   UNL     1      -8.428   5.182 133.815  0.00  0.00    +0.000 A 
ATOM     10  N   UNL     1      -8.635   3.916 133.529  0.00  0.00    +0.000 NA
ATOM     11  H   UNL     1      -8.698   7.008 132.756  0.00  0.00    +0.000 HD
ENDBRANCH   1   2
BRANCH   1  17
ATOM     12  C   UNL     1     -12.936   7.335 130.961  0.00  0.00    +0.000 C 
ATOM     13  N   UNL     1     -12.555   7.305 129.574  0.00  0.00    +0.000 N 
ATOM     14  C   UNL     1     -13.486   7.407 128.568  0.00  0.00    +0.000 A 
ATOM     15  N   UNL     1     -12.931   7.388 127.382  0.00  0.00    +0.000 NA
ATOM     16  C   UNL     1     -11.575   7.243 127.628  0.00  0.00    +0.000 A 
ATOM     17  C   UNL     1     -11.307   7.180 128.995  0.00  0.00    +0.000 A 
BRANCH  16  18
ATOM     18  N   UNL     1     -10.652   7.195 126.507  0.00  0.00    +0.000 N 
ATOM     19  O   UNL     1      -9.811   6.281 126.491  0.00  0.00    +0.000 OA
ATOM     20  O   UNL     1     -10.747   8.076 125.645  0.00  0.00    +0.000 OA
ENDBRANCH  16  18
ENDBRANCH   1  17
TORSDOF 3
ENDMDL
MODEL 3
REMARK VINA RESULT:      -6.3      1.940      4.928
REMARK  Name = Azathioprine
REMARK  4 active torsions:
REMARK  status: ('A' for Active; 'I' for Inactive)
REMARK    1  A    between atoms: C_1  and  N_2
REMARK    2  A    between atoms: C_5  and  N_17
REMARK    3  A    between atoms: C_6  and  S_7
REMARK    4  A    between atoms: S_7  and  C_8
REMARK                            x       y       z     vdW  Elec       q    Type
REMARK                         _______ _______ _______ _____ _____    ______ ____
ROOT
ATOM      1  S   UNL     1     -10.495   4.574 130.597  0.00  0.00    +0.000 S 
ENDROOT
BRANCH   1   2
ATOM      2  C   UNL     1     -11.397   6.072 130.544  0.00  0.00    +0.000 A 
ATOM      3  N   UNL     1     -12.175   6.459 131.576  0.00  0.00    +0.000 NA
ATOM      4  C   UNL     1     -12.884   7.599 131.454  0.00  0.00    +0.000 A 
ATOM      5  N   UNL     1     -12.882   8.459 130.432  0.00  0.00    +0.000 NA
ATOM      6  C   UNL     1     -12.017   8.112 129.463  0.00  0.00    +0.000 A 
ATOM      7  C   UNL     1     -11.278   6.945 129.483  0.00  0.00    +0.000 A 
ATOM      8  N   UNL     1     -10.543   6.982 128.328  0.00  0.00    +0.000 N 
ATOM      9  C   UNL     1     -10.837   8.159 127.694  0.00  0.00    +0.000 A 
ATOM     10  N   UNL     1     -11.749   8.847 128.344  0.00  0.00    +0.000 NA
ATOM     11  H   UNL     1      -9.870   6.291 128.021  0.00  0.00    +0.000 HD
ENDBRANCH   1   2
BRANCH   1  17
ATOM     12  C   UNL     1      -8.207   5.732 132.850  0.00  0.00    +0.000 C 
ATOM     13  N   UNL     1      -7.936   5.390 131.478  0.00  0.00    +0.000 N 
ATOM     14  C   UNL     1      -6.677   5.511 130.941  0.00  0.00    +0.000 A 
ATOM     15  N   UNL     1      -6.638   5.122 129.690  0.00  0.00    +0.000 NA
ATOM     16  C   UNL     1      -7.940   4.754 129.394  0.00  0.00    +0.000 A 
ATOM     17  C   UNL     1      -8.782   4.918 130.494  0.00  0.00    +0.000 A 
BRANCH  16  18
ATOM     18  N   UNL     1      -8.251   4.254 128.064  0.00  0.00    +0.000 N 
ATOM     19  O   UNL     1      -8.456   5.090 127.168  0.00  0.00    +0.000 OA
ATOM     20  O   UNL     1      -8.310   3.030 127.909  0.00  0.00    +0.000 OA
ENDBRANCH  16  18
ENDBRANCH   1  17
TORSDOF 3
ENDMDL
MODEL 4
REMARK VINA RESULT:      -6.3      1.747      2.339
REMARK  Name = Azathioprine
REMARK  4 active torsions:
REMARK  status: ('A' for Active; 'I' for Inactive)
REMARK    1  A    between atoms: C_1  and  N_2
REMARK    2  A    between atoms: C_5  and  N_17
REMARK    3  A    between atoms: C_6  and  S_7
REMARK    4  A    between atoms: S_7  and  C_8
REMARK                            x       y       z     vdW  Elec       q    Type
REMARK                         _______ _______ _______ _____ _____    ______ ____
ROOT
ATOM      1  S   UNL     1     -10.953   5.460 130.086  0.00  0.00    +0.000 S 
ENDROOT
BRANCH   1   2
ATOM      2  C   UNL     1      -9.448   5.756 130.928  0.00  0.00    +0.000 A 
ATOM      3  N   UNL     1      -8.579   6.696 130.502  0.00  0.00    +0.000 NA
ATOM      4  C   UNL     1      -7.414   6.843 131.165  0.00  0.00    +0.000 A 
ATOM      5  N   UNL     1      -7.010   6.194 132.260  0.00  0.00    +0.000 NA
ATOM      6  C   UNL     1      -7.935   5.342 132.732  0.00  0.00    +0.000 A 
ATOM      7  C   UNL     1      -9.140   5.098 132.100  0.00  0.00    +0.000 A 
ATOM      8  N   UNL     1      -9.770   4.182 132.899  0.00  0.00    +0.000 N 
ATOM      9  C   UNL     1      -8.953   3.945 133.971  0.00  0.00    +0.000 A 
ATOM     10  N   UNL     1      -7.824   4.610 133.880  0.00  0.00    +0.000 NA
ATOM     11  H   UNL     1     -10.690   3.787 132.751  0.00  0.00    +0.000 HD
ENDBRANCH   1   2
BRANCH   1  17
ATOM     12  C   UNL     1     -12.935   7.825 131.545  0.00  0.00    +0.000 C 
ATOM     13  N   UNL     1     -12.421   7.873 130.201  0.00  0.00    +0.000 N 
ATOM     14  C   UNL     1     -12.700   8.923 129.360  0.00  0.00    +0.000 A 
ATOM     15  N   UNL     1     -12.113   8.789 128.197  0.00  0.00    +0.000 NA
ATOM     16  C   UNL     1     -11.439   7.581 128.278  0.00  0.00    +0.000 A 
ATOM     17  C   UNL     1     -11.618   6.978 129.522  0.00  0.00    +0.000 A 
BRANCH  16  18
ATOM     18  N   UNL     1     -10.660   7.126 127.138  0.00  0.00    +0.000 N 
ATOM     19  O   UNL     1     -11.056   7.445 126.005  0.00  0.00    +0.000 OA
ATOM     20  O   UNL     1      -9.661   6.434 127.364  0.00  0.00    +0.000 OA
ENDBRANCH  16  18
ENDBRANCH   1  17
TORSDOF 3
ENDMDL
MODEL 5
REMARK VINA RESULT:      -6.2      7.602      8.898
REMARK  Name = Azathioprine
REMARK  4 active torsions:
REMARK  status: ('A' for Active; 'I' for Inactive)
REMARK    1  A    between atoms: C_1  and  N_2
REMARK    2  A    between atoms: C_5  and  N_17
REMARK    3  A    between atoms: C_6  and  S_7
REMARK    4  A    between atoms: S_7  and  C_8
REMARK                            x       y       z     vdW  Elec       q    Type
REMARK                         _______ _______ _______ _____ _____    ______ ____
ROOT
ATOM      1  S   UNL     1      -8.326   0.595 125.819  0.00  0.00    +0.000 S 
ENDROOT
BRANCH   1   2
ATOM      2  C   UNL     1      -8.336  -1.085 125.331  0.00  0.00    +0.000 A 
ATOM      3  N   UNL     1      -9.477  -1.803 125.310  0.00  0.00    +0.000 NA
ATOM      4  C   UNL     1      -9.411  -3.107 124.971  0.00  0.00    +0.000 A 
ATOM      5  N   UNL     1      -8.334  -3.799 124.590  0.00  0.00    +0.000 NA
ATOM      6  C   UNL     1      -7.229  -3.039 124.511  0.00  0.00    +0.000 A 
ATOM      7  C   UNL     1      -7.192  -1.706 124.873  0.00  0.00    +0.000 A 
ATOM      8  N   UNL     1      -5.898  -1.321 124.644  0.00  0.00    +0.000 N 
ATOM      9  C   UNL     1      -5.234  -2.403 124.133  0.00  0.00    +0.000 A 
ATOM     10  N   UNL     1      -6.007  -3.464 124.071  0.00  0.00    +0.000 NA
ATOM     11  H   UNL     1      -5.513  -0.396 124.782  0.00  0.00    +0.000 HD
ENDBRANCH   1   2
BRANCH   1  17
ATOM     12  C   UNL     1      -6.100   2.882 124.610  0.00  0.00    +0.000 C 
ATOM     13  N   UNL     1      -7.351   2.522 123.996  0.00  0.00    +0.000 N 
ATOM     14  C   UNL     1      -7.769   3.099 122.820  0.00  0.00    +0.000 A 
ATOM     15  N   UNL     1      -8.917   2.612 122.417  0.00  0.00    +0.000 NA
ATOM     16  C   UNL     1      -9.273   1.693 123.390  0.00  0.00    +0.000 A 
ATOM     17  C   UNL     1      -8.314   1.618 124.399  0.00  0.00    +0.000 A 
BRANCH  16  18
ATOM     18  N   UNL     1     -10.514   0.950 123.243  0.00  0.00    +0.000 N 
ATOM     19  O   UNL     1     -11.426   1.186 124.052  0.00  0.00    +0.000 OA
ATOM     20  O   UNL     1     -10.581   0.116 122.333  0.00  0.00    +0.000 OA
ENDBRANCH  16  18
ENDBRANCH   1  17
TORSDOF 3
ENDMDL
MODEL 6
REMARK VINA RESULT:      -6.0      2.424      3.661
REMARK  Name = Azathioprine
REMARK  4 active torsions:
REMARK  status: ('A' for Active; 'I' for Inactive)
REMARK    1  A    between atoms: C_1  and  N_2
REMARK    2  A    between atoms: C_5  and  N_17
REMARK    3  A    between atoms: C_6  and  S_7
REMARK    4  A    between atoms: S_7  and  C_8
REMARK                            x       y       z     vdW  Elec       q    Type
REMARK                         _______ _______ _______ _____ _____    ______ ____
ROOT
ATOM      1  S   UNL     1     -11.492   4.945 130.319  0.00  0.00    +0.000 S 
ENDROOT
BRANCH   1   2
ATOM      2  C   UNL     1     -10.180   3.795 130.443  0.00  0.00    +0.000 A 
ATOM      3  N   UNL     1      -9.653   3.212 129.347  0.00  0.00    +0.000 NA
ATOM      4  C   UNL     1      -8.676   2.297 129.513  0.00  0.00    +0.000 A 
ATOM      5  N   UNL     1      -8.102   1.911 130.655  0.00  0.00    +0.000 NA
ATOM      6  C   UNL     1      -8.564   2.584 131.723  0.00  0.00    +0.000 A 
ATOM      7  C   UNL     1      -9.587   3.509 131.656  0.00  0.00    +0.000 A 
ATOM      8  N   UNL     1      -9.743   3.946 132.945  0.00  0.00    +0.000 N 
ATOM      9  C   UNL     1      -8.806   3.306 133.709  0.00  0.00    +0.000 A 
ATOM     10  N   UNL     1      -8.100   2.454 133.001  0.00  0.00    +0.000 NA
ATOM     11  H   UNL     1     -10.398   4.648 133.266  0.00  0.00    +0.000 HD
ENDBRANCH   1   2
BRANCH   1  17
ATOM     12  C   UNL     1     -12.754   6.941 127.855  0.00  0.00    +0.000 C 
ATOM     13  N   UNL     1     -11.512   7.150 128.551  0.00  0.00    +0.000 N 
ATOM     14  C   UNL     1     -10.697   8.220 128.265  0.00  0.00    +0.000 A 
ATOM     15  N   UNL     1      -9.634   8.243 129.030  0.00  0.00    +0.000 NA
ATOM     16  C   UNL     1      -9.752   7.122 129.835  0.00  0.00    +0.000 A 
ATOM     17  C   UNL     1     -10.917   6.410 129.554  0.00  0.00    +0.000 A 
BRANCH  16  18
ATOM     18  N   UNL     1      -8.723   6.849 130.826  0.00  0.00    +0.000 N 
ATOM     19  O   UNL     1      -9.069   6.805 132.018  0.00  0.00    +0.000 OA
ATOM     20  O   UNL     1      -7.565   6.694 130.424  0.00  0.00    +0.000 OA
ENDBRANCH  16  18
ENDBRANCH   1  17
TORSDOF 3
ENDMDL
MODEL 7
REMARK VINA RESULT:      -5.9      2.926      5.784
REMARK  Name = Azathioprine
REMARK  4 active torsions:
REMARK  status: ('A' for Active; 'I' for Inactive)
REMARK    1  A    between atoms: C_1  and  N_2
REMARK    2  A    between atoms: C_5  and  N_17
REMARK    3  A    between atoms: C_6  and  S_7
REMARK    4  A    between atoms: S_7  and  C_8
REMARK                            x       y       z     vdW  Elec       q    Type
REMARK                         _______ _______ _______ _____ _____    ______ ____
ROOT
ATOM      1  S   UNL     1     -10.654   4.415 130.487  0.00  0.00    +0.000 S 
ENDROOT
BRANCH   1   2
ATOM      2  C   UNL     1     -11.450   5.973 130.470  0.00  0.00    +0.000 A 
ATOM      3  N   UNL     1     -12.221   6.377 131.500  0.00  0.00    +0.000 NA
ATOM      4  C   UNL     1     -12.847   7.568 131.405  0.00  0.00    +0.000 A 
ATOM      5  N   UNL     1     -12.764   8.459 130.414  0.00  0.00    +0.000 NA
ATOM      6  C   UNL     1     -11.905   8.086 129.450  0.00  0.00    +0.000 A 
ATOM      7  C   UNL     1     -11.249   6.871 129.442  0.00  0.00    +0.000 A 
ATOM      8  N   UNL     1     -10.488   6.896 128.304  0.00  0.00    +0.000 N 
ATOM      9  C   UNL     1     -10.688   8.111 127.706  0.00  0.00    +0.000 A 
ATOM     10  N   UNL     1     -11.563   8.838 128.362  0.00  0.00    +0.000 NA
ATOM     11  H   UNL     1      -9.858   6.171 127.986  0.00  0.00    +0.000 HD
ENDBRANCH   1   2
BRANCH   1  17
ATOM     12  C   UNL     1      -7.972   4.214 128.385  0.00  0.00    +0.000 C 
ATOM     13  N   UNL     1      -7.917   4.532 129.787  0.00  0.00    +0.000 N 
ATOM     14  C   UNL     1      -6.726   4.790 130.421  0.00  0.00    +0.000 A 
ATOM     15  N   UNL     1      -6.898   5.087 131.686  0.00  0.00    +0.000 NA
ATOM     16  C   UNL     1      -8.265   4.992 131.889  0.00  0.00    +0.000 A 
ATOM     17  C   UNL     1      -8.933   4.638 130.717  0.00  0.00    +0.000 A 
BRANCH  16  18
ATOM     18  N   UNL     1      -8.807   5.274 133.208  0.00  0.00    +0.000 N 
ATOM     19  O   UNL     1      -8.712   4.386 134.072  0.00  0.00    +0.000 OA
ATOM     20  O   UNL     1      -9.345   6.372 133.386  0.00  0.00    +0.000 OA
ENDBRANCH  16  18
ENDBRANCH   1  17
TORSDOF 3
ENDMDL
MODEL 8
REMARK VINA RESULT:      -5.9      7.830      8.913
REMARK  Name = Azathioprine
REMARK  4 active torsions:
REMARK  status: ('A' for Active; 'I' for Inactive)
REMARK    1  A    between atoms: C_1  and  N_2
REMARK    2  A    between atoms: C_5  and  N_17
REMARK    3  A    between atoms: C_6  and  S_7
REMARK    4  A    between atoms: S_7  and  C_8
REMARK                            x       y       z     vdW  Elec       q    Type
REMARK                         _______ _______ _______ _____ _____    ______ ____
ROOT
ATOM      1  S   UNL     1      -7.746   1.026 125.516  0.00  0.00    +0.000 S 
ENDROOT
BRANCH   1   2
ATOM      2  C   UNL     1      -7.054  -0.533 125.126  0.00  0.00    +0.000 A 
ATOM      3  N   UNL     1      -5.718  -0.713 125.072  0.00  0.00    +0.000 NA
ATOM      4  C   UNL     1      -5.247  -1.926 124.718  0.00  0.00    +0.000 A 
ATOM      5  N   UNL     1      -5.950  -3.031 124.453  0.00  0.00    +0.000 NA
ATOM      6  C   UNL     1      -7.272  -2.859 124.621  0.00  0.00    +0.000 A 
ATOM      7  C   UNL     1      -7.848  -1.646 124.944  0.00  0.00    +0.000 A 
ATOM      8  N   UNL     1      -9.190  -1.908 125.015  0.00  0.00    +0.000 N 
ATOM      9  C   UNL     1      -9.358  -3.244 124.771  0.00  0.00    +0.000 A 
ATOM     10  N   UNL     1      -8.217  -3.837 124.500  0.00  0.00    +0.000 NA
ATOM     11  H   UNL     1      -9.920  -1.248 125.250  0.00  0.00    +0.000 HD
ENDBRANCH   1   2
BRANCH   1  17
ATOM     12  C   UNL     1      -6.036   3.468 123.852  0.00  0.00    +0.000 C 
ATOM     13  N   UNL     1      -7.293   2.896 123.445  0.00  0.00    +0.000 N 
ATOM     14  C   UNL     1      -7.935   3.308 122.302  0.00  0.00    +0.000 A 
ATOM     15  N   UNL     1      -9.045   2.644 122.097  0.00  0.00    +0.000 NA
ATOM     16  C   UNL     1      -9.141   1.775 123.171  0.00  0.00    +0.000 A 
ATOM     17  C   UNL     1      -8.060   1.914 124.040  0.00  0.00    +0.000 A 
BRANCH  16  18
ATOM     18  N   UNL     1     -10.274   0.867 123.250  0.00  0.00    +0.000 N 
ATOM     19  O   UNL     1     -10.228  -0.172 122.571  0.00  0.00    +0.000 OA
ATOM     20  O   UNL     1     -11.221   1.191 123.975  0.00  0.00    +0.000 OA
ENDBRANCH  16  18
ENDBRANCH   1  17
TORSDOF 3
ENDMDL
MODEL 9
REMARK VINA RESULT:      -5.7      3.021      6.199
REMARK  Name = Azathioprine
REMARK  4 active torsions:
REMARK  status: ('A' for Active; 'I' for Inactive)
REMARK    1  A    between atoms: C_1  and  N_2
REMARK    2  A    between atoms: C_5  and  N_17
REMARK    3  A    between atoms: C_6  and  S_7
REMARK    4  A    between atoms: S_7  and  C_8
REMARK                            x       y       z     vdW  Elec       q    Type
REMARK                         _______ _______ _______ _____ _____    ______ ____
ROOT
ATOM      1  S   UNL     1      -9.413   4.346 130.077  0.00  0.00    +0.000 S 
ENDROOT
BRANCH   1   2
ATOM      2  C   UNL     1     -10.155   5.824 129.505  0.00  0.00    +0.000 A 
ATOM      3  N   UNL     1      -9.837   6.349 128.304  0.00  0.00    +0.000 NA
ATOM      4  C   UNL     1     -10.407   7.516 127.941  0.00  0.00    +0.000 A 
ATOM      5  N   UNL     1     -11.317   8.225 128.613  0.00  0.00    +0.000 NA
ATOM      6  C   UNL     1     -11.702   7.629 129.754  0.00  0.00    +0.000 A 
ATOM      7  C   UNL     1     -11.148   6.455 130.225  0.00  0.00    +0.000 A 
ATOM      8  N   UNL     1     -11.813   6.204 131.396  0.00  0.00    +0.000 N 
ATOM      9  C   UNL     1     -12.742   7.196 131.559  0.00  0.00    +0.000 A 
ATOM     10  N   UNL     1     -12.675   8.088 130.596  0.00  0.00    +0.000 NA
ATOM     11  H   UNL     1     -11.678   5.407 132.005  0.00  0.00    +0.000 HD
ENDBRANCH   1   2
BRANCH   1  17
ATOM     12  C   UNL     1      -6.164   4.442 129.035  0.00  0.00    +0.000 C 
ATOM     13  N   UNL     1      -6.628   4.731 130.367  0.00  0.00    +0.000 N 
ATOM     14  C   UNL     1      -5.759   5.083 131.372  0.00  0.00    +0.000 A 
ATOM     15  N   UNL     1      -6.385   5.332 132.496  0.00  0.00    +0.000 NA
ATOM     16  C   UNL     1      -7.722   5.107 132.214  0.00  0.00    +0.000 A 
ATOM     17  C   UNL     1      -7.907   4.722 130.887  0.00  0.00    +0.000 A 
BRANCH  16  18
ATOM     18  N   UNL     1      -8.711   5.307 133.260  0.00  0.00    +0.000 N 
ATOM     19  O   UNL     1      -8.832   4.415 134.117  0.00  0.00    +0.000 OA
ATOM     20  O   UNL     1      -9.383   6.343 133.226  0.00  0.00    +0.000 OA
ENDBRANCH  16  18
ENDBRANCH   1  17
TORSDOF 3
ENDMDL
