MODEL 1
REMARK VINA RESULT:      -8.6      0.000      0.000
REMARK  Name = Azelastine
REMARK  4 active torsions:
REMARK  status: ('A' for Active; 'I' for Inactive)
REMARK    1  A    between atoms: C_1  and  N_2
REMARK    2  A    between atoms: C_6  and  N_9
REMARK    3  A    between atoms: C_11  and  C_12
REMARK    4  A    between atoms: C_12  and  C_13
REMARK                            x       y       z     vdW  Elec       q    Type
REMARK                         _______ _______ _______ _____ _____    ______ ____
ROOT
ATOM      1  N   UNL     1      -6.014   3.410 124.061  0.00  0.00    +0.000 N 
ATOM      2  N   UNL     1      -7.200   2.798 124.371  0.00  0.00    +0.000 NA
ATOM      3  C   UNL     1      -8.136   2.664 123.488  0.00  0.00    +0.000 A 
ATOM      4  C   UNL     1      -7.964   3.147 122.114  0.00  0.00    +0.000 A 
ATOM      5  C   UNL     1      -8.996   3.109 121.181  0.00  0.00    +0.000 A 
ATOM      6  C   UNL     1      -8.847   3.814 119.992  0.00  0.00    +0.000 A 
ATOM      7  C   UNL     1      -7.600   4.323 119.630  0.00  0.00    +0.000 A 
ATOM      8  C   UNL     1      -6.531   4.246 120.512  0.00  0.00    +0.000 A 
ATOM      9  C   UNL     1      -6.746   3.739 121.791  0.00  0.00    +0.000 A 
ATOM     10  C   UNL     1      -5.707   3.898 122.810  0.00  0.00    +0.000 A 
ATOM     11  O   UNL     1      -4.650   4.474 122.521  0.00  0.00    +0.000 OA
ENDROOT
BRANCH   1  17
ATOM     12  C   UNL     1      -4.813   2.206 129.639  0.00  0.00    +0.000 C 
ATOM     13  N   UNL     1      -5.322   2.585 128.326  0.00  0.00    +0.000 NA
ATOM     14  C   UNL     1      -5.836   3.959 128.387  0.00  0.00    +0.000 C 
ATOM     15  C   UNL     1      -6.447   4.446 127.083  0.00  0.00    +0.000 C 
ATOM     16  C   UNL     1      -5.418   4.784 126.024  0.00  0.00    +0.000 C 
ATOM     17  C   UNL     1      -5.059   3.563 125.167  0.00  0.00    +0.000 C 
ATOM     18  C   UNL     1      -4.941   2.231 125.917  0.00  0.00    +0.000 C 
ATOM     19  C   UNL     1      -4.301   2.374 127.291  0.00  0.00    +0.000 C 
ENDBRANCH   1  17
BRANCH   3  20
ATOM     20  C   UNL     1      -9.477   2.036 123.891  0.00  0.00    +0.000 C 
BRANCH  20  21
ATOM     21  C   UNL     1      -9.423   0.536 124.068  0.00  0.00    +0.000 A 
ATOM     22  C   UNL     1      -9.329  -0.015 125.352  0.00  0.00    +0.000 A 
ATOM     23  C   UNL     1      -8.969  -1.354 125.513  0.00  0.00    +0.000 A 
ATOM     24  C   UNL     1      -8.817  -2.171 124.402  0.00  0.00    +0.000 A 
ATOM     25 CL   UNL     1      -8.228  -3.774 124.598  0.00  0.00    +0.000 Cl
ATOM     26  C   UNL     1      -9.103  -1.678 123.134  0.00  0.00    +0.000 A 
ATOM     27  C   UNL     1      -9.358  -0.316 122.960  0.00  0.00    +0.000 A 
ENDBRANCH  20  21
ENDBRANCH   3  20
TORSDOF 3
ENDMDL
MODEL 2
REMARK VINA RESULT:      -8.3      5.615      9.120
REMARK  Name = Azelastine
REMARK  4 active torsions:
REMARK  status: ('A' for Active; 'I' for Inactive)
REMARK    1  A    between atoms: C_1  and  N_2
REMARK    2  A    between atoms: C_6  and  N_9
REMARK    3  A    between atoms: C_11  and  C_12
REMARK    4  A    between atoms: C_12  and  C_13
REMARK                            x       y       z     vdW  Elec       q    Type
REMARK                         _______ _______ _______ _____ _____    ______ ____
ROOT
ATOM      1  N   UNL     1      -7.747   3.488 129.208  0.00  0.00    +0.000 N 
ATOM      2  N   UNL     1      -9.064   3.861 129.256  0.00  0.00    +0.000 NA
ATOM      3  C   UNL     1      -9.645   4.131 130.379  0.00  0.00    +0.000 A 
ATOM      4  C   UNL     1      -8.917   4.066 131.650  0.00  0.00    +0.000 A 
ATOM      5  C   UNL     1      -9.549   4.247 132.876  0.00  0.00    +0.000 A 
ATOM      6  C   UNL     1      -8.860   3.916 134.038  0.00  0.00    +0.000 A 
ATOM      7  C   UNL     1      -7.489   3.663 133.993  0.00  0.00    +0.000 A 
ATOM      8  C   UNL     1      -6.829   3.608 132.772  0.00  0.00    +0.000 A 
ATOM      9  C   UNL     1      -7.569   3.719 131.599  0.00  0.00    +0.000 A 
ATOM     10  C   UNL     1      -6.936   3.399 130.318  0.00  0.00    +0.000 A 
ATOM     11  O   UNL     1      -5.751   3.041 130.294  0.00  0.00    +0.000 OA
ENDROOT
BRANCH   1  17
ATOM     12  C   UNL     1      -8.984   2.598 123.579  0.00  0.00    +0.000 C 
ATOM     13  N   UNL     1      -8.850   2.669 125.030  0.00  0.00    +0.000 NA
ATOM     14  C   UNL     1      -8.784   1.307 125.574  0.00  0.00    +0.000 C 
ATOM     15  C   UNL     1      -8.700   1.253 127.091  0.00  0.00    +0.000 C 
ATOM     16  C   UNL     1      -7.338   1.631 127.634  0.00  0.00    +0.000 C 
ATOM     17  C   UNL     1      -7.221   3.141 127.881  0.00  0.00    +0.000 C 
ATOM     18  C   UNL     1      -7.877   4.043 126.829  0.00  0.00    +0.000 C 
ATOM     19  C   UNL     1      -7.714   3.520 125.409  0.00  0.00    +0.000 C 
ENDBRANCH   1  17
BRANCH   3  20
ATOM     20  C   UNL     1     -11.141   4.477 130.398  0.00  0.00    +0.000 C 
BRANCH  20  21
ATOM     21  C   UNL     1     -11.430   5.956 130.277  0.00  0.00    +0.000 A 
ATOM     22  C   UNL     1     -12.217   6.596 131.242  0.00  0.00    +0.000 A 
ATOM     23  C   UNL     1     -12.744   7.863 130.984  0.00  0.00    +0.000 A 
ATOM     24  C   UNL     1     -12.394   8.538 129.825  0.00  0.00    +0.000 A 
ATOM     25 CL   UNL     1     -13.161  10.029 129.442  0.00  0.00    +0.000 Cl
ATOM     26  C   UNL     1     -11.456   7.989 128.958  0.00  0.00    +0.000 A 
ATOM     27  C   UNL     1     -11.011   6.680 129.157  0.00  0.00    +0.000 A 
ENDBRANCH  20  21
ENDBRANCH   3  20
TORSDOF 3
ENDMDL
MODEL 3
REMARK VINA RESULT:      -8.3      2.827      5.087
REMARK  Name = Azelastine
REMARK  4 active torsions:
REMARK  status: ('A' for Active; 'I' for Inactive)
REMARK    1  A    between atoms: C_1  and  N_2
REMARK    2  A    between atoms: C_6  and  N_9
REMARK    3  A    between atoms: C_11  and  C_12
REMARK    4  A    between atoms: C_12  and  C_13
REMARK                            x       y       z     vdW  Elec       q    Type
REMARK                         _______ _______ _______ _____ _____    ______ ____
ROOT
ATOM      1  N   UNL     1      -6.291   1.026 126.093  0.00  0.00    +0.000 N 
ATOM      2  N   UNL     1      -7.020   1.943 125.382  0.00  0.00    +0.000 NA
ATOM      3  C   UNL     1      -7.880   1.569 124.491  0.00  0.00    +0.000 A 
ATOM      4  C   UNL     1      -8.125   0.150 124.214  0.00  0.00    +0.000 A 
ATOM      5  C   UNL     1      -8.965  -0.270 123.188  0.00  0.00    +0.000 A 
ATOM      6  C   UNL     1      -8.948  -1.610 122.816  0.00  0.00    +0.000 A 
ATOM      7  C   UNL     1      -8.307  -2.552 123.621  0.00  0.00    +0.000 A 
ATOM      8  C   UNL     1      -7.571  -2.144 124.725  0.00  0.00    +0.000 A 
ATOM      9  C   UNL     1      -7.408  -0.782 124.961  0.00  0.00    +0.000 A 
ATOM     10  C   UNL     1      -6.425  -0.337 125.951  0.00  0.00    +0.000 A 
ATOM     11  O   UNL     1      -5.757  -1.176 126.569  0.00  0.00    +0.000 OA
ENDROOT
BRANCH   1  17
ATOM     12  C   UNL     1      -4.548   5.684 129.139  0.00  0.00    +0.000 C 
ATOM     13  N   UNL     1      -4.988   4.666 128.192  0.00  0.00    +0.000 NA
ATOM     14  C   UNL     1      -4.113   4.695 127.013  0.00  0.00    +0.000 C 
ATOM     15  C   UNL     1      -4.512   3.710 125.927  0.00  0.00    +0.000 C 
ATOM     16  C   UNL     1      -4.165   2.273 126.258  0.00  0.00    +0.000 C 
ATOM     17  C   UNL     1      -5.297   1.576 127.026  0.00  0.00    +0.000 C 
ATOM     18  C   UNL     1      -6.013   2.428 128.079  0.00  0.00    +0.000 C 
ATOM     19  C   UNL     1      -5.073   3.352 128.841  0.00  0.00    +0.000 C 
ENDBRANCH   1  17
BRANCH   3  20
ATOM     20  C   UNL     1      -8.627   2.626 123.665  0.00  0.00    +0.000 C 
BRANCH  20  21
ATOM     21  C   UNL     1      -7.906   3.038 122.403  0.00  0.00    +0.000 A 
ATOM     22  C   UNL     1      -6.507   3.099 122.383  0.00  0.00    +0.000 A 
ATOM     23  C   UNL     1      -5.852   3.766 121.346  0.00  0.00    +0.000 A 
ATOM     24  C   UNL     1      -6.576   4.267 120.275  0.00  0.00    +0.000 A 
ATOM     25 CL   UNL     1      -5.783   5.216 119.081  0.00  0.00    +0.000 Cl
ATOM     26  C   UNL     1      -7.944   4.036 120.194  0.00  0.00    +0.000 A 
ATOM     27  C   UNL     1      -8.618   3.466 121.277  0.00  0.00    +0.000 A 
ENDBRANCH  20  21
ENDBRANCH   3  20
TORSDOF 3
ENDMDL
MODEL 4
REMARK VINA RESULT:      -8.2      3.422      5.372
REMARK  Name = Azelastine
REMARK  4 active torsions:
REMARK  status: ('A' for Active; 'I' for Inactive)
REMARK    1  A    between atoms: C_1  and  N_2
REMARK    2  A    between atoms: C_6  and  N_9
REMARK    3  A    between atoms: C_11  and  C_12
REMARK    4  A    between atoms: C_12  and  C_13
REMARK                            x       y       z     vdW  Elec       q    Type
REMARK                         _______ _______ _______ _____ _____    ______ ____
ROOT
ATOM      1  N   UNL     1      -6.916   0.546 126.625  0.00  0.00    +0.000 N 
ATOM      2  N   UNL     1      -7.762   1.056 125.676  0.00  0.00    +0.000 NA
ATOM      3  C   UNL     1      -7.850   0.523 124.501  0.00  0.00    +0.000 A 
ATOM      4  C   UNL     1      -7.061  -0.659 124.137  0.00  0.00    +0.000 A 
ATOM      5  C   UNL     1      -7.061  -1.181 122.848  0.00  0.00    +0.000 A 
ATOM      6  C   UNL     1      -6.102  -2.130 122.512  0.00  0.00    +0.000 A 
ATOM      7  C   UNL     1      -5.334  -2.735 123.508  0.00  0.00    +0.000 A 
ATOM      8  C   UNL     1      -5.428  -2.300 124.823  0.00  0.00    +0.000 A 
ATOM      9  C   UNL     1      -6.227  -1.197 125.113  0.00  0.00    +0.000 A 
ATOM     10  C   UNL     1      -6.128  -0.567 126.431  0.00  0.00    +0.000 A 
ATOM     11  O   UNL     1      -5.343  -1.026 127.271  0.00  0.00    +0.000 OA
ENDROOT
BRANCH   1  17
ATOM     12  C   UNL     1      -9.618   4.258 130.221  0.00  0.00    +0.000 C 
ATOM     13  N   UNL     1      -8.984   3.491 129.154  0.00  0.00    +0.000 NA
ATOM     14  C   UNL     1      -8.033   4.354 128.442  0.00  0.00    +0.000 C 
ATOM     15  C   UNL     1      -7.349   3.675 127.266  0.00  0.00    +0.000 C 
ATOM     16  C   UNL     1      -6.279   2.685 127.680  0.00  0.00    +0.000 C 
ATOM     17  C   UNL     1      -6.855   1.280 127.896  0.00  0.00    +0.000 C 
ATOM     18  C   UNL     1      -8.226   1.218 128.579  0.00  0.00    +0.000 C 
ATOM     19  C   UNL     1      -8.392   2.255 129.682  0.00  0.00    +0.000 C 
ENDBRANCH   1  17
BRANCH   3  20
ATOM     20  C   UNL     1      -8.756   1.165 123.440  0.00  0.00    +0.000 C 
BRANCH  20  21
ATOM     21  C   UNL     1      -8.093   2.276 122.659  0.00  0.00    +0.000 A 
ATOM     22  C   UNL     1      -8.832   3.012 121.725  0.00  0.00    +0.000 A 
ATOM     23  C   UNL     1      -8.175   3.814 120.790  0.00  0.00    +0.000 A 
ATOM     24  C   UNL     1      -6.799   3.974 120.857  0.00  0.00    +0.000 A 
ATOM     25 CL   UNL     1      -5.980   4.838 119.616  0.00  0.00    +0.000 Cl
ATOM     26  C   UNL     1      -6.084   3.403 121.904  0.00  0.00    +0.000 A 
ATOM     27  C   UNL     1      -6.720   2.516 122.776  0.00  0.00    +0.000 A 
ENDBRANCH  20  21
ENDBRANCH   3  20
TORSDOF 3
ENDMDL
MODEL 5
REMARK VINA RESULT:      -7.9      3.845      7.280
REMARK  Name = Azelastine
REMARK  4 active torsions:
REMARK  status: ('A' for Active; 'I' for Inactive)
REMARK    1  A    between atoms: C_1  and  N_2
REMARK    2  A    between atoms: C_6  and  N_9
REMARK    3  A    between atoms: C_11  and  C_12
REMARK    4  A    between atoms: C_12  and  C_13
REMARK                            x       y       z     vdW  Elec       q    Type
REMARK                         _______ _______ _______ _____ _____    ______ ____
ROOT
ATOM      1  N   UNL     1      -8.128   0.106 125.669  0.00  0.00    +0.000 N 
ATOM      2  N   UNL     1      -7.466   0.509 126.799  0.00  0.00    +0.000 NA
ATOM      3  C   UNL     1      -7.326  -0.282 127.812  0.00  0.00    +0.000 A 
ATOM      4  C   UNL     1      -7.856  -1.650 127.792  0.00  0.00    +0.000 A 
ATOM      5  C   UNL     1      -7.811  -2.478 128.908  0.00  0.00    +0.000 A 
ATOM      6  C   UNL     1      -8.555  -3.652 128.900  0.00  0.00    +0.000 A 
ATOM      7  C   UNL     1      -9.119  -4.116 127.711  0.00  0.00    +0.000 A 
ATOM      8  C   UNL     1      -9.053  -3.345 126.558  0.00  0.00    +0.000 A 
ATOM      9  C   UNL     1      -8.500  -2.070 126.631  0.00  0.00    +0.000 A 
ATOM     10  C   UNL     1      -8.664  -1.151 125.503  0.00  0.00    +0.000 A 
ATOM     11  O   UNL     1      -9.285  -1.522 124.498  0.00  0.00    +0.000 OA
ENDROOT
BRANCH   1  17
ATOM     12  C   UNL     1      -5.510   4.234 122.488  0.00  0.00    +0.000 C 
ATOM     13  N   UNL     1      -6.073   3.314 123.470  0.00  0.00    +0.000 NA
ATOM     14  C   UNL     1      -6.759   4.086 124.513  0.00  0.00    +0.000 C 
ATOM     15  C   UNL     1      -7.341   3.232 125.628  0.00  0.00    +0.000 C 
ATOM     16  C   UNL     1      -8.599   2.490 125.226  0.00  0.00    +0.000 C 
ATOM     17  C   UNL     1      -8.281   1.118 124.615  0.00  0.00    +0.000 C 
ATOM     18  C   UNL     1      -7.061   1.067 123.688  0.00  0.00    +0.000 C 
ATOM     19  C   UNL     1      -6.920   2.308 122.817  0.00  0.00    +0.000 C 
ENDBRANCH   1  17
BRANCH   3  20
ATOM     20  C   UNL     1      -6.639   0.228 129.087  0.00  0.00    +0.000 C 
BRANCH  20  21
ATOM     21  C   UNL     1      -7.562   0.971 130.025  0.00  0.00    +0.000 A 
ATOM     22  C   UNL     1      -7.566   2.371 130.040  0.00  0.00    +0.000 A 
ATOM     23  C   UNL     1      -8.169   3.056 131.097  0.00  0.00    +0.000 A 
ATOM     24  C   UNL     1      -8.865   2.357 132.071  0.00  0.00    +0.000 A 
ATOM     25 CL   UNL     1      -9.474   3.190 133.446  0.00  0.00    +0.000 Cl
ATOM     26  C   UNL     1      -9.031   0.982 131.953  0.00  0.00    +0.000 A 
ATOM     27  C   UNL     1      -8.341   0.282 130.960  0.00  0.00    +0.000 A 
ENDBRANCH  20  21
ENDBRANCH   3  20
TORSDOF 3
ENDMDL
MODEL 6
REMARK VINA RESULT:      -7.9      4.426      7.183
REMARK  Name = Azelastine
REMARK  4 active torsions:
REMARK  status: ('A' for Active; 'I' for Inactive)
REMARK    1  A    between atoms: C_1  and  N_2
REMARK    2  A    between atoms: C_6  and  N_9
REMARK    3  A    between atoms: C_11  and  C_12
REMARK    4  A    between atoms: C_12  and  C_13
REMARK                            x       y       z     vdW  Elec       q    Type
REMARK                         _______ _______ _______ _____ _____    ______ ____
ROOT
ATOM      1  N   UNL     1      -7.524  -2.511 128.129  0.00  0.00    +0.000 N 
ATOM      2  N   UNL     1      -6.552  -1.681 127.637  0.00  0.00    +0.000 NA
ATOM      3  C   UNL     1      -6.475  -1.414 126.374  0.00  0.00    +0.000 A 
ATOM      4  C   UNL     1      -7.433  -1.974 125.415  0.00  0.00    +0.000 A 
ATOM      5  C   UNL     1      -7.303  -1.786 124.042  0.00  0.00    +0.000 A 
ATOM      6  C   UNL     1      -8.086  -2.552 123.186  0.00  0.00    +0.000 A 
ATOM      7  C   UNL     1      -9.155  -3.295 123.689  0.00  0.00    +0.000 A 
ATOM      8  C   UNL     1      -9.364  -3.379 125.059  0.00  0.00    +0.000 A 
ATOM      9  C   UNL     1      -8.441  -2.791 125.920  0.00  0.00    +0.000 A 
ATOM     10  C   UNL     1      -8.499  -3.096 127.351  0.00  0.00    +0.000 A 
ATOM     11  O   UNL     1      -9.369  -3.866 127.777  0.00  0.00    +0.000 OA
ENDROOT
BRANCH   1  17
ATOM     12  C   UNL     1      -4.642  -1.653 133.126  0.00  0.00    +0.000 C 
ATOM     13  N   UNL     1      -5.153  -1.930 131.788  0.00  0.00    +0.000 NA
ATOM     14  C   UNL     1      -4.689  -3.257 131.362  0.00  0.00    +0.000 C 
ATOM     15  C   UNL     1      -5.115  -3.634 129.952  0.00  0.00    +0.000 C 
ATOM     16  C   UNL     1      -6.578  -4.013 129.845  0.00  0.00    +0.000 C 
ATOM     17  C   UNL     1      -7.465  -2.791 129.570  0.00  0.00    +0.000 C 
ATOM     18  C   UNL     1      -7.084  -1.508 130.317  0.00  0.00    +0.000 C 
ATOM     19  C   UNL     1      -6.611  -1.763 131.741  0.00  0.00    +0.000 C 
ENDBRANCH   1  17
BRANCH   3  20
ATOM     20  C   UNL     1      -5.329  -0.536 125.851  0.00  0.00    +0.000 C 
BRANCH  20  21
ATOM     21  C   UNL     1      -5.607   0.948 125.933  0.00  0.00    +0.000 A 
ATOM     22  C   UNL     1      -6.857   1.448 125.548  0.00  0.00    +0.000 A 
ATOM     23  C   UNL     1      -7.022   2.816 125.324  0.00  0.00    +0.000 A 
ATOM     24  C   UNL     1      -5.983   3.695 125.594  0.00  0.00    +0.000 A 
ATOM     25 CL   UNL     1      -6.142   5.355 125.174  0.00  0.00    +0.000 Cl
ATOM     26  C   UNL     1      -4.806   3.224 126.163  0.00  0.00    +0.000 A 
ATOM     27  C   UNL     1      -4.598   1.848 126.289  0.00  0.00    +0.000 A 
ENDBRANCH  20  21
ENDBRANCH   3  20
TORSDOF 3
ENDMDL
MODEL 7
REMARK VINA RESULT:      -7.7      3.252      5.327
REMARK  Name = Azelastine
REMARK  4 active torsions:
REMARK  status: ('A' for Active; 'I' for Inactive)
REMARK    1  A    between atoms: C_1  and  N_2
REMARK    2  A    between atoms: C_6  and  N_9
REMARK    3  A    between atoms: C_11  and  C_12
REMARK    4  A    between atoms: C_12  and  C_13
REMARK                            x       y       z     vdW  Elec       q    Type
REMARK                         _______ _______ _______ _____ _____    ______ ____
ROOT
ATOM      1  N   UNL     1      -7.006   0.862 125.036  0.00  0.00    +0.000 N 
ATOM      2  N   UNL     1      -6.273   0.022 125.833  0.00  0.00    +0.000 NA
ATOM      3  C   UNL     1      -6.426  -1.261 125.776  0.00  0.00    +0.000 A 
ATOM      4  C   UNL     1      -7.379  -1.875 124.846  0.00  0.00    +0.000 A 
ATOM      5  C   UNL     1      -7.636  -3.242 124.844  0.00  0.00    +0.000 A 
ATOM      6  C   UNL     1      -8.728  -3.716 124.126  0.00  0.00    +0.000 A 
ATOM      7  C   UNL     1      -9.388  -2.883 123.222  0.00  0.00    +0.000 A 
ATOM      8  C   UNL     1      -9.044  -1.541 123.129  0.00  0.00    +0.000 A 
ATOM      9  C   UNL     1      -8.101  -1.024 124.013  0.00  0.00    +0.000 A 
ATOM     10  C   UNL     1      -7.926   0.427 124.107  0.00  0.00    +0.000 A 
ATOM     11  O   UNL     1      -8.612   1.173 123.397  0.00  0.00    +0.000 OA
ENDROOT
BRANCH   1  17
ATOM     12  C   UNL     1      -4.515   4.970 128.342  0.00  0.00    +0.000 C 
ATOM     13  N   UNL     1      -5.226   3.858 127.718  0.00  0.00    +0.000 NA
ATOM     14  C   UNL     1      -6.615   3.850 128.193  0.00  0.00    +0.000 C 
ATOM     15  C   UNL     1      -7.443   2.696 127.651  0.00  0.00    +0.000 C 
ATOM     16  C   UNL     1      -7.846   2.870 126.201  0.00  0.00    +0.000 C 
ATOM     17  C   UNL     1      -6.791   2.300 125.244  0.00  0.00    +0.000 C 
ATOM     18  C   UNL     1      -5.330   2.537 125.641  0.00  0.00    +0.000 C 
ATOM     19  C   UNL     1      -5.093   3.910 126.257  0.00  0.00    +0.000 C 
ENDBRANCH   1  17
BRANCH   3  20
ATOM     20  C   UNL     1      -5.637  -2.165 126.734  0.00  0.00    +0.000 C 
BRANCH  20  21
ATOM     21  C   UNL     1      -6.176  -2.180 128.145  0.00  0.00    +0.000 A 
ATOM     22  C   UNL     1      -5.341  -1.841 129.217  0.00  0.00    +0.000 A 
ATOM     23  C   UNL     1      -5.724  -2.148 130.525  0.00  0.00    +0.000 A 
ATOM     24  C   UNL     1      -6.980  -2.682 130.774  0.00  0.00    +0.000 A 
ATOM     25 CL   UNL     1      -7.386  -3.196 132.363  0.00  0.00    +0.000 Cl
ATOM     26  C   UNL     1      -7.887  -2.836 129.732  0.00  0.00    +0.000 A 
ATOM     27  C   UNL     1      -7.472  -2.632 128.414  0.00  0.00    +0.000 A 
ENDBRANCH  20  21
ENDBRANCH   3  20
TORSDOF 3
ENDMDL
MODEL 8
REMARK VINA RESULT:      -7.7      2.576      3.894
REMARK  Name = Azelastine
REMARK  4 active torsions:
REMARK  status: ('A' for Active; 'I' for Inactive)
REMARK    1  A    between atoms: C_1  and  N_2
REMARK    2  A    between atoms: C_6  and  N_9
REMARK    3  A    between atoms: C_11  and  C_12
REMARK    4  A    between atoms: C_12  and  C_13
REMARK                            x       y       z     vdW  Elec       q    Type
REMARK                         _______ _______ _______ _____ _____    ______ ____
ROOT
ATOM      1  N   UNL     1      -6.912   2.359 125.128  0.00  0.00    +0.000 N 
ATOM      2  N   UNL     1      -6.224   1.184 125.281  0.00  0.00    +0.000 NA
ATOM      3  C   UNL     1      -6.610   0.099 124.692  0.00  0.00    +0.000 A 
ATOM      4  C   UNL     1      -7.791   0.082 123.822  0.00  0.00    +0.000 A 
ATOM      5  C   UNL     1      -8.284  -1.095 123.266  0.00  0.00    +0.000 A 
ATOM      6  C   UNL     1      -9.542  -1.078 122.674  0.00  0.00    +0.000 A 
ATOM      7  C   UNL     1     -10.176   0.136 122.409  0.00  0.00    +0.000 A 
ATOM      8  C   UNL     1      -9.617   1.328 122.853  0.00  0.00    +0.000 A 
ATOM      9  C   UNL     1      -8.471   1.283 123.641  0.00  0.00    +0.000 A 
ATOM     10  C   UNL     1      -8.028   2.495 124.333  0.00  0.00    +0.000 A 
ATOM     11  O   UNL     1      -8.673   3.544 124.203  0.00  0.00    +0.000 OA
ENDROOT
BRANCH   1  17
ATOM     12  C   UNL     1      -3.088   4.226 129.116  0.00  0.00    +0.000 C 
ATOM     13  N   UNL     1      -4.098   3.591 128.276  0.00  0.00    +0.000 NA
ATOM     14  C   UNL     1      -5.328   3.411 129.057  0.00  0.00    +0.000 C 
ATOM     15  C   UNL     1      -6.440   2.703 128.298  0.00  0.00    +0.000 C 
ATOM     16  C   UNL     1      -7.118   3.579 127.265  0.00  0.00    +0.000 C 
ATOM     17  C   UNL     1      -6.415   3.503 125.903  0.00  0.00    +0.000 C 
ATOM     18  C   UNL     1      -4.883   3.455 125.944  0.00  0.00    +0.000 C 
ATOM     19  C   UNL     1      -4.286   4.342 127.028  0.00  0.00    +0.000 C 
ENDBRANCH   1  17
BRANCH   3  20
ATOM     20  C   UNL     1      -5.854  -1.214 124.943  0.00  0.00    +0.000 C 
BRANCH  20  21
ATOM     21  C   UNL     1      -6.223  -1.894 126.241  0.00  0.00    +0.000 A 
ATOM     22  C   UNL     1      -7.481  -2.492 126.385  0.00  0.00    +0.000 A 
ATOM     23  C   UNL     1      -7.946  -2.842 127.654  0.00  0.00    +0.000 A 
ATOM     24  C   UNL     1      -7.120  -2.705 128.759  0.00  0.00    +0.000 A 
ATOM     25 CL   UNL     1      -7.748  -2.993 130.334  0.00  0.00    +0.000 Cl
ATOM     26  C   UNL     1      -5.801  -2.297 128.594  0.00  0.00    +0.000 A 
ATOM     27  C   UNL     1      -5.366  -1.846 127.345  0.00  0.00    +0.000 A 
ENDBRANCH  20  21
ENDBRANCH   3  20
TORSDOF 3
ENDMDL
MODEL 9
REMARK VINA RESULT:      -7.6      3.153      5.609
REMARK  Name = Azelastine
REMARK  4 active torsions:
REMARK  status: ('A' for Active; 'I' for Inactive)
REMARK    1  A    between atoms: C_1  and  N_2
REMARK    2  A    between atoms: C_6  and  N_9
REMARK    3  A    between atoms: C_11  and  C_12
REMARK    4  A    between atoms: C_12  and  C_13
REMARK                            x       y       z     vdW  Elec       q    Type
REMARK                         _______ _______ _______ _____ _____    ______ ____
ROOT
ATOM      1  N   UNL     1      -7.843   2.469 125.188  0.00  0.00    +0.000 N 
ATOM      2  N   UNL     1      -6.587   2.911 125.514  0.00  0.00    +0.000 NA
ATOM      3  C   UNL     1      -5.825   3.475 124.635  0.00  0.00    +0.000 A 
ATOM      4  C   UNL     1      -6.275   3.681 123.254  0.00  0.00    +0.000 A 
ATOM      5  C   UNL     1      -5.434   4.187 122.269  0.00  0.00    +0.000 A 
ATOM      6  C   UNL     1      -5.839   4.113 120.941  0.00  0.00    +0.000 A 
ATOM      7  C   UNL     1      -7.159   3.784 120.628  0.00  0.00    +0.000 A 
ATOM      8  C   UNL     1      -8.040   3.401 121.631  0.00  0.00    +0.000 A 
ATOM      9  C   UNL     1      -7.563   3.263 122.931  0.00  0.00    +0.000 A 
ATOM     10  C   UNL     1      -8.402   2.609 123.937  0.00  0.00    +0.000 A 
ATOM     11  O   UNL     1      -9.525   2.194 123.621  0.00  0.00    +0.000 OA
ENDROOT
BRANCH   1  17
ATOM     12  C   UNL     1      -7.539  -0.209 130.359  0.00  0.00    +0.000 C 
ATOM     13  N   UNL     1      -7.441   0.314 129.001  0.00  0.00    +0.000 NA
ATOM     14  C   UNL     1      -7.486  -0.805 128.052  0.00  0.00    +0.000 C 
ATOM     15  C   UNL     1      -7.335  -0.385 126.598  0.00  0.00    +0.000 C 
ATOM     16  C   UNL     1      -8.578   0.266 126.026  0.00  0.00    +0.000 C 
ATOM     17  C   UNL     1      -8.583   1.783 126.255  0.00  0.00    +0.000 C 
ATOM     18  C   UNL     1      -8.058   2.256 127.615  0.00  0.00    +0.000 C 
ATOM     19  C   UNL     1      -8.464   1.341 128.763  0.00  0.00    +0.000 C 
ENDBRANCH   1  17
BRANCH   3  20
ATOM     20  C   UNL     1      -4.399   3.893 125.021  0.00  0.00    +0.000 C 
BRANCH  20  21
ATOM     21  C   UNL     1      -4.186   4.043 126.509  0.00  0.00    +0.000 A 
ATOM     22  C   UNL     1      -4.514   5.247 127.145  0.00  0.00    +0.000 A 
ATOM     23  C   UNL     1      -4.042   5.508 128.433  0.00  0.00    +0.000 A 
ATOM     24  C   UNL     1      -3.345   4.531 129.129  0.00  0.00    +0.000 A 
ATOM     25 CL   UNL     1      -2.637   4.909 130.649  0.00  0.00    +0.000 Cl
ATOM     26  C   UNL     1      -3.188   3.265 128.577  0.00  0.00    +0.000 A 
ATOM     27  C   UNL     1      -3.564   3.034 127.251  0.00  0.00    +0.000 A 
ENDBRANCH  20  21
ENDBRANCH   3  20
TORSDOF 3
ENDMDL
