MODEL 1
REMARK VINA RESULT:      -9.3      0.000      0.000
REMARK  Name = Azilsartan medoxomil
REMARK  12 active torsions:
REMARK  status: ('A' for Active; 'I' for Inactive)
REMARK    1  A    between atoms: C_1  and  C_2
REMARK    2  A    between atoms: C_2  and  O_3
REMARK    3  A    between atoms: O_3  and  C_4
REMARK    4  A    between atoms: N_8  and  C_9
REMARK    5  A    between atoms: C_9  and  C_10
REMARK    6  A    between atoms: C_13  and  C_16
REMARK    7  A    between atoms: C_21  and  C_22
REMARK    8  A    between atoms: C_28  and  C_32
REMARK    9  A    between atoms: C_32  and  O_34
REMARK   10  A    between atoms: O_34  and  C_35
REMARK   11  A    between atoms: C_35  and  C_36
REMARK   12  A    between atoms: C_37  and  C_38
REMARK                            x       y       z     vdW  Elec       q    Type
REMARK                         _______ _______ _______ _____ _____    ______ ____
ROOT
ATOM      1  C   UNL     1      -6.016  -1.142 126.911  0.00  0.00    +0.000 A 
ATOM      2  N   UNL     1      -6.323  -2.372 126.586  0.00  0.00    +0.000 NA
ATOM      3  C   UNL     1      -7.253  -2.262 125.577  0.00  0.00    +0.000 A 
ATOM      4  C   UNL     1      -7.510  -0.929 125.216  0.00  0.00    +0.000 A 
ATOM      5  N   UNL     1      -6.685  -0.230 126.105  0.00  0.00    +0.000 N 
ATOM      6  C   UNL     1      -8.431  -0.585 124.162  0.00  0.00    +0.000 A 
ATOM      7  C   UNL     1      -9.069  -1.677 123.537  0.00  0.00    +0.000 A 
ATOM      8  C   UNL     1      -8.827  -3.004 123.911  0.00  0.00    +0.000 A 
ATOM      9  C   UNL     1      -7.921  -3.309 124.927  0.00  0.00    +0.000 A 
ENDROOT
BRANCH   6  10
ATOM     10  C   UNL     1      -8.742   0.829 123.702  0.00  0.00    +0.000 C 
ATOM     11  O   UNL     1      -9.772   1.417 123.988  0.00  0.00    +0.000 OA
BRANCH  10  12
ATOM     12  O   UNL     1      -7.772   1.432 122.940  0.00  0.00    +0.000 OA
BRANCH  12  13
ATOM     13  C   UNL     1      -8.107   2.801 122.556  0.00  0.00    +0.000 C 
BRANCH  13  14
ATOM     14  C   UNL     1      -6.891   3.571 122.106  0.00  0.00    +0.000 A 
ATOM     15  C   UNL     1      -5.854   4.099 122.742  0.00  0.00    +0.000 A 
ATOM     16  C   UNL     1      -5.433   4.131 124.179  0.00  0.00    +0.000 C 
ATOM     17  O   UNL     1      -5.010   4.759 121.855  0.00  0.00    +0.000 OA
ATOM     18  C   UNL     1      -5.656   4.580 120.644  0.00  0.00    +0.000 A 
ATOM     19  O   UNL     1      -5.228   5.012 119.581  0.00  0.00    +0.000 OA
ATOM     20  O   UNL     1      -6.834   3.867 120.748  0.00  0.00    +0.000 OA
ENDBRANCH  13  14
ENDBRANCH  12  13
ENDBRANCH  10  12
ENDBRANCH   6  10
BRANCH   1  21
ATOM     21  O   UNL     1      -5.242  -0.816 127.959  0.00  0.00    +0.000 OA
BRANCH  21  23
ATOM     22  C   UNL     1      -5.793   0.021 130.207  0.00  0.00    +0.000 C 
ATOM     23  C   UNL     1      -5.746  -1.184 129.256  0.00  0.00    +0.000 C 
ENDBRANCH  21  23
ENDBRANCH   1  21
BRANCH   5  24
ATOM     24  C   UNL     1      -6.569   1.226 126.099  0.00  0.00    +0.000 C 
BRANCH  24  25
ATOM     25  C   UNL     1      -7.192   1.946 127.243  0.00  0.00    +0.000 A 
ATOM     26  C   UNL     1      -6.543   3.054 127.775  0.00  0.00    +0.000 A 
ATOM     27  C   UNL     1      -6.941   3.512 129.011  0.00  0.00    +0.000 A 
ATOM     28  C   UNL     1      -8.016   2.924 129.710  0.00  0.00    +0.000 A 
ATOM     29  C   UNL     1      -8.806   1.999 129.029  0.00  0.00    +0.000 A 
ATOM     30  C   UNL     1      -8.373   1.477 127.820  0.00  0.00    +0.000 A 
BRANCH  28  31
ATOM     31  C   UNL     1      -8.316   3.266 131.112  0.00  0.00    +0.000 A 
ATOM     32  C   UNL     1      -7.686   2.573 132.175  0.00  0.00    +0.000 A 
ATOM     33  C   UNL     1      -8.111   2.746 133.495  0.00  0.00    +0.000 A 
ATOM     34  C   UNL     1      -9.047   3.732 133.790  0.00  0.00    +0.000 A 
ATOM     35  C   UNL     1      -9.525   4.564 132.778  0.00  0.00    +0.000 A 
ATOM     36  C   UNL     1      -9.217   4.289 131.443  0.00  0.00    +0.000 A 
BRANCH  36  37
ATOM     37  C   UNL     1      -9.856   5.098 130.398  0.00  0.00    +0.000 A 
ATOM     38  N   UNL     1     -10.997   4.842 129.853  0.00  0.00    +0.000 NA
ATOM     39  O   UNL     1     -11.238   5.951 128.978  0.00  0.00    +0.000 OA
ATOM     40  C   UNL     1     -10.151   6.788 129.094  0.00  0.00    +0.000 A 
ATOM     41  O   UNL     1     -10.004   7.842 128.512  0.00  0.00    +0.000 OA
ATOM     42  N   UNL     1      -9.289   6.235 129.965  0.00  0.00    +0.000 N 
ATOM     43  H   UNL     1      -8.459   6.700 130.293  0.00  0.00    +0.000 HD
ENDBRANCH  36  37
ENDBRANCH  28  31
ENDBRANCH  24  25
ENDBRANCH   5  24
TORSDOF 10
ENDMDL
MODEL 2
REMARK VINA RESULT:      -9.2      2.418      8.192
REMARK  Name = Azilsartan medoxomil
REMARK  12 active torsions:
REMARK  status: ('A' for Active; 'I' for Inactive)
REMARK    1  A    between atoms: C_1  and  C_2
REMARK    2  A    between atoms: C_2  and  O_3
REMARK    3  A    between atoms: O_3  and  C_4
REMARK    4  A    between atoms: N_8  and  C_9
REMARK    5  A    between atoms: C_9  and  C_10
REMARK    6  A    between atoms: C_13  and  C_16
REMARK    7  A    between atoms: C_21  and  C_22
REMARK    8  A    between atoms: C_28  and  C_32
REMARK    9  A    between atoms: C_32  and  O_34
REMARK   10  A    between atoms: O_34  and  C_35
REMARK   11  A    between atoms: C_35  and  C_36
REMARK   12  A    between atoms: C_37  and  C_38
REMARK                            x       y       z     vdW  Elec       q    Type
REMARK                         _______ _______ _______ _____ _____    ______ ____
ROOT
ATOM      1  C   UNL     1      -4.674   3.443 129.607  0.00  0.00    +0.000 A 
ATOM      2  N   UNL     1      -4.332   4.682 129.847  0.00  0.00    +0.000 NA
ATOM      3  C   UNL     1      -5.486   5.305 130.267  0.00  0.00    +0.000 A 
ATOM      4  C   UNL     1      -6.581   4.428 130.343  0.00  0.00    +0.000 A 
ATOM      5  N   UNL     1      -6.012   3.225 129.907  0.00  0.00    +0.000 N 
ATOM      6  C   UNL     1      -7.882   4.863 130.785  0.00  0.00    +0.000 A 
ATOM      7  C   UNL     1      -7.981   6.231 131.115  0.00  0.00    +0.000 A 
ATOM      8  C   UNL     1      -6.894   7.108 131.021  0.00  0.00    +0.000 A 
ATOM      9  C   UNL     1      -5.643   6.657 130.600  0.00  0.00    +0.000 A 
ENDROOT
BRANCH   6  10
ATOM     10  C   UNL     1      -9.104   3.970 130.914  0.00  0.00    +0.000 C 
ATOM     11  O   UNL     1      -9.291   3.221 131.858  0.00  0.00    +0.000 OA
BRANCH  10  12
ATOM     12  O   UNL     1     -10.017   4.062 129.893  0.00  0.00    +0.000 OA
BRANCH  12  13
ATOM     13  C   UNL     1     -11.271   4.695 130.296  0.00  0.00    +0.000 C 
BRANCH  13  14
ATOM     14  C   UNL     1     -11.368   6.115 129.795  0.00  0.00    +0.000 A 
ATOM     15  C   UNL     1     -11.986   7.202 130.238  0.00  0.00    +0.000 A 
ATOM     16  C   UNL     1     -12.830   7.491 131.440  0.00  0.00    +0.000 C 
ATOM     17  O   UNL     1     -11.792   8.272 129.369  0.00  0.00    +0.000 OA
ATOM     18  C   UNL     1     -11.015   7.707 128.374  0.00  0.00    +0.000 A 
ATOM     19  O   UNL     1     -10.610   8.328 127.399  0.00  0.00    +0.000 OA
ATOM     20  O   UNL     1     -10.741   6.369 128.581  0.00  0.00    +0.000 OA
ENDBRANCH  13  14
ENDBRANCH  12  13
ENDBRANCH  10  12
ENDBRANCH   6  10
BRANCH   1  21
ATOM     21  O   UNL     1      -3.857   2.539 129.040  0.00  0.00    +0.000 OA
BRANCH  21  23
ATOM     22  C   UNL     1      -4.033   3.195 126.675  0.00  0.00    +0.000 C 
ATOM     23  C   UNL     1      -3.118   2.988 127.890  0.00  0.00    +0.000 C 
ENDBRANCH  21  23
ENDBRANCH   1  21
BRANCH   5  24
ATOM     24  C   UNL     1      -6.761   1.973 129.841  0.00  0.00    +0.000 C 
BRANCH  24  25
ATOM     25  C   UNL     1      -7.106   1.475 128.482  0.00  0.00    +0.000 A 
ATOM     26  C   UNL     1      -8.340   1.804 127.938  0.00  0.00    +0.000 A 
ATOM     27  C   UNL     1      -8.784   1.092 126.846  0.00  0.00    +0.000 A 
ATOM     28  C   UNL     1      -7.995   0.090 126.244  0.00  0.00    +0.000 A 
ATOM     29  C   UNL     1      -6.665  -0.023 126.649  0.00  0.00    +0.000 A 
ATOM     30  C   UNL     1      -6.233   0.632 127.792  0.00  0.00    +0.000 A 
BRANCH  28  31
ATOM     31  C   UNL     1      -8.535  -0.817 125.215  0.00  0.00    +0.000 A 
ATOM     32  C   UNL     1      -8.868  -2.156 125.534  0.00  0.00    +0.000 A 
ATOM     33  C   UNL     1      -9.186  -3.076 124.530  0.00  0.00    +0.000 A 
ATOM     34  C   UNL     1      -9.341  -2.634 123.220  0.00  0.00    +0.000 A 
ATOM     35  C   UNL     1      -9.218  -1.276 122.924  0.00  0.00    +0.000 A 
ATOM     36  C   UNL     1      -8.751  -0.388 123.896  0.00  0.00    +0.000 A 
BRANCH  36  37
ATOM     37  C   UNL     1      -8.496   1.004 123.506  0.00  0.00    +0.000 A 
ATOM     38  N   UNL     1      -9.388   1.935 123.448  0.00  0.00    +0.000 NA
ATOM     39  O   UNL     1      -8.654   3.122 123.124  0.00  0.00    +0.000 OA
ATOM     40  C   UNL     1      -7.335   2.749 123.006  0.00  0.00    +0.000 A 
ATOM     41  O   UNL     1      -6.409   3.490 122.752  0.00  0.00    +0.000 OA
ATOM     42  N   UNL     1      -7.253   1.424 123.226  0.00  0.00    +0.000 N 
ATOM     43  H   UNL     1      -6.382   0.927 123.290  0.00  0.00    +0.000 HD
ENDBRANCH  36  37
ENDBRANCH  28  31
ENDBRANCH  24  25
ENDBRANCH   5  24
TORSDOF 10
ENDMDL
MODEL 3
REMARK VINA RESULT:      -9.2      3.123      8.423
REMARK  Name = Azilsartan medoxomil
REMARK  12 active torsions:
REMARK  status: ('A' for Active; 'I' for Inactive)
REMARK    1  A    between atoms: C_1  and  C_2
REMARK    2  A    between atoms: C_2  and  O_3
REMARK    3  A    between atoms: O_3  and  C_4
REMARK    4  A    between atoms: N_8  and  C_9
REMARK    5  A    between atoms: C_9  and  C_10
REMARK    6  A    between atoms: C_13  and  C_16
REMARK    7  A    between atoms: C_21  and  C_22
REMARK    8  A    between atoms: C_28  and  C_32
REMARK    9  A    between atoms: C_32  and  O_34
REMARK   10  A    between atoms: O_34  and  C_35
REMARK   11  A    between atoms: C_35  and  C_36
REMARK   12  A    between atoms: C_37  and  C_38
REMARK                            x       y       z     vdW  Elec       q    Type
REMARK                         _______ _______ _______ _____ _____    ______ ____
ROOT
ATOM      1  C   UNL     1      -4.279   3.702 129.862  0.00  0.00    +0.000 A 
ATOM      2  N   UNL     1      -3.926   4.339 130.950  0.00  0.00    +0.000 NA
ATOM      3  C   UNL     1      -5.098   4.818 131.490  0.00  0.00    +0.000 A 
ATOM      4  C   UNL     1      -6.233   4.436 130.754  0.00  0.00    +0.000 A 
ATOM      5  N   UNL     1      -5.659   3.710 129.703  0.00  0.00    +0.000 N 
ATOM      6  C   UNL     1      -7.566   4.806 131.156  0.00  0.00    +0.000 A 
ATOM      7  C   UNL     1      -7.649   5.593 132.324  0.00  0.00    +0.000 A 
ATOM      8  C   UNL     1      -6.516   5.989 133.045  0.00  0.00    +0.000 A 
ATOM      9  C   UNL     1      -5.238   5.607 132.640  0.00  0.00    +0.000 A 
ENDROOT
BRANCH   6  10
ATOM     10  C   UNL     1      -8.839   4.412 130.425  0.00  0.00    +0.000 C 
ATOM     11  O   UNL     1      -9.483   3.411 130.692  0.00  0.00    +0.000 OA
BRANCH  10  12
ATOM     12  O   UNL     1      -9.245   5.271 129.434  0.00  0.00    +0.000 OA
BRANCH  12  13
ATOM     13  C   UNL     1      -9.867   6.490 129.946  0.00  0.00    +0.000 C 
BRANCH  13  14
ATOM     14  C   UNL     1     -10.576   7.257 128.858  0.00  0.00    +0.000 A 
ATOM     15  C   UNL     1     -11.639   8.050 128.840  0.00  0.00    +0.000 A 
ATOM     16  C   UNL     1     -12.573   8.546 129.899  0.00  0.00    +0.000 C 
ATOM     17  O   UNL     1     -11.914   8.482 127.547  0.00  0.00    +0.000 OA
ATOM     18  C   UNL     1     -10.923   7.859 126.809  0.00  0.00    +0.000 A 
ATOM     19  O   UNL     1     -10.803   7.986 125.597  0.00  0.00    +0.000 OA
ATOM     20  O   UNL     1     -10.080   7.074 127.572  0.00  0.00    +0.000 OA
ENDBRANCH  13  14
ENDBRANCH  12  13
ENDBRANCH  10  12
ENDBRANCH   6  10
BRANCH   1  21
ATOM     21  O   UNL     1      -3.406   3.209 128.969  0.00  0.00    +0.000 OA
BRANCH  21  23
ATOM     22  C   UNL     1      -2.231   3.610 126.844  0.00  0.00    +0.000 C 
ATOM     23  C   UNL     1      -2.670   4.178 128.201  0.00  0.00    +0.000 C 
ENDBRANCH  21  23
ENDBRANCH   1  21
BRANCH   5  24
ATOM     24  C   UNL     1      -6.452   3.060 128.664  0.00  0.00    +0.000 C 
BRANCH  24  25
ATOM     25  C   UNL     1      -6.029   3.299 127.257  0.00  0.00    +0.000 A 
ATOM     26  C   UNL     1      -6.107   4.586 126.741  0.00  0.00    +0.000 A 
ATOM     27  C   UNL     1      -6.030   4.748 125.375  0.00  0.00    +0.000 A 
ATOM     28  C   UNL     1      -5.817   3.655 124.510  0.00  0.00    +0.000 A 
ATOM     29  C   UNL     1      -5.477   2.429 125.081  0.00  0.00    +0.000 A 
ATOM     30  C   UNL     1      -5.626   2.237 126.446  0.00  0.00    +0.000 A 
BRANCH  28  31
ATOM     31  C   UNL     1      -5.940   3.781 123.047  0.00  0.00    +0.000 A 
ATOM     32  C   UNL     1      -4.933   4.428 122.290  0.00  0.00    +0.000 A 
ATOM     33  C   UNL     1      -5.133   4.732 120.940  0.00  0.00    +0.000 A 
ATOM     34  C   UNL     1      -6.263   4.247 120.289  0.00  0.00    +0.000 A 
ATOM     35  C   UNL     1      -7.164   3.431 120.972  0.00  0.00    +0.000 A 
ATOM     36  C   UNL     1      -7.043   3.258 122.353  0.00  0.00    +0.000 A 
BRANCH  36  37
ATOM     37  C   UNL     1      -8.092   2.513 123.059  0.00  0.00    +0.000 A 
ATOM     38  N   UNL     1      -9.045   3.044 123.748  0.00  0.00    +0.000 NA
ATOM     39  O   UNL     1      -9.861   1.937 124.152  0.00  0.00    +0.000 OA
ATOM     40  C   UNL     1      -9.268   0.804 123.642  0.00  0.00    +0.000 A 
ATOM     41  O   UNL     1      -9.683  -0.329 123.766  0.00  0.00    +0.000 OA
ATOM     42  N   UNL     1      -8.156   1.175 122.982  0.00  0.00    +0.000 N 
ATOM     43  H   UNL     1      -7.598   0.539 122.439  0.00  0.00    +0.000 HD
ENDBRANCH  36  37
ENDBRANCH  28  31
ENDBRANCH  24  25
ENDBRANCH   5  24
TORSDOF 10
ENDMDL
MODEL 4
REMARK VINA RESULT:      -9.1      2.298      7.827
REMARK  Name = Azilsartan medoxomil
REMARK  12 active torsions:
REMARK  status: ('A' for Active; 'I' for Inactive)
REMARK    1  A    between atoms: C_1  and  C_2
REMARK    2  A    between atoms: C_2  and  O_3
REMARK    3  A    between atoms: O_3  and  C_4
REMARK    4  A    between atoms: N_8  and  C_9
REMARK    5  A    between atoms: C_9  and  C_10
REMARK    6  A    between atoms: C_13  and  C_16
REMARK    7  A    between atoms: C_21  and  C_22
REMARK    8  A    between atoms: C_28  and  C_32
REMARK    9  A    between atoms: C_32  and  O_34
REMARK   10  A    between atoms: O_34  and  C_35
REMARK   11  A    between atoms: C_35  and  C_36
REMARK   12  A    between atoms: C_37  and  C_38
REMARK                            x       y       z     vdW  Elec       q    Type
REMARK                         _______ _______ _______ _____ _____    ______ ____
ROOT
ATOM      1  C   UNL     1      -7.055   1.125 131.524  0.00  0.00    +0.000 A 
ATOM      2  N   UNL     1      -7.815   1.187 132.587  0.00  0.00    +0.000 NA
ATOM      3  C   UNL     1      -8.224   2.499 132.669  0.00  0.00    +0.000 A 
ATOM      4  C   UNL     1      -7.752   3.283 131.603  0.00  0.00    +0.000 A 
ATOM      5  N   UNL     1      -6.997   2.353 130.878  0.00  0.00    +0.000 N 
ATOM      6  C   UNL     1      -8.082   4.680 131.475  0.00  0.00    +0.000 A 
ATOM      7  C   UNL     1      -8.892   5.207 132.504  0.00  0.00    +0.000 A 
ATOM      8  C   UNL     1      -9.346   4.429 133.575  0.00  0.00    +0.000 A 
ATOM      9  C   UNL     1      -9.021   3.075 133.668  0.00  0.00    +0.000 A 
ENDROOT
BRANCH   6  10
ATOM     10  C   UNL     1      -7.628   5.584 130.341  0.00  0.00    +0.000 C 
ATOM     11  O   UNL     1      -6.604   6.246 130.379  0.00  0.00    +0.000 OA
BRANCH  10  12
ATOM     12  O   UNL     1      -8.444   5.607 129.237  0.00  0.00    +0.000 OA
BRANCH  12  13
ATOM     13  C   UNL     1      -9.849   5.840 129.563  0.00  0.00    +0.000 C 
BRANCH  13  14
ATOM     14  C   UNL     1     -10.487   6.825 128.616  0.00  0.00    +0.000 A 
ATOM     15  C   UNL     1     -11.430   7.748 128.752  0.00  0.00    +0.000 A 
ATOM     16  C   UNL     1     -12.246   8.226 129.913  0.00  0.00    +0.000 C 
ATOM     17  O   UNL     1     -11.693   8.373 127.536  0.00  0.00    +0.000 OA
ATOM     18  C   UNL     1     -10.827   7.722 126.676  0.00  0.00    +0.000 A 
ATOM     19  O   UNL     1     -10.737   7.984 125.483  0.00  0.00    +0.000 OA
ATOM     20  O   UNL     1     -10.071   6.742 127.291  0.00  0.00    +0.000 OA
ENDBRANCH  13  14
ENDBRANCH  12  13
ENDBRANCH  10  12
ENDBRANCH   6  10
BRANCH   1  21
ATOM     21  O   UNL     1      -6.343   0.041 131.177  0.00  0.00    +0.000 OA
BRANCH  21  23
ATOM     22  C   UNL     1      -7.799  -1.397 129.810  0.00  0.00    +0.000 C 
ATOM     23  C   UNL     1      -7.062  -1.205 131.144  0.00  0.00    +0.000 C 
ENDBRANCH  21  23
ENDBRANCH   1  21
BRANCH   5  24
ATOM     24  C   UNL     1      -6.315   2.686 129.630  0.00  0.00    +0.000 C 
BRANCH  24  25
ATOM     25  C   UNL     1      -6.795   1.990 128.405  0.00  0.00    +0.000 A 
ATOM     26  C   UNL     1      -8.132   2.103 128.047  0.00  0.00    +0.000 A 
ATOM     27  C   UNL     1      -8.638   1.216 127.123  0.00  0.00    +0.000 A 
ATOM     28  C   UNL     1      -7.822   0.249 126.500  0.00  0.00    +0.000 A 
ATOM     29  C   UNL     1      -6.443   0.343 126.684  0.00  0.00    +0.000 A 
ATOM     30  C   UNL     1      -5.932   1.178 127.666  0.00  0.00    +0.000 A 
BRANCH  28  31
ATOM     31  C   UNL     1      -8.386  -0.834 125.673  0.00  0.00    +0.000 A 
ATOM     32  C   UNL     1      -8.844  -2.035 126.268  0.00  0.00    +0.000 A 
ATOM     33  C   UNL     1      -9.188  -3.138 125.483  0.00  0.00    +0.000 A 
ATOM     34  C   UNL     1      -9.244  -3.005 124.100  0.00  0.00    +0.000 A 
ATOM     35  C   UNL     1      -8.995  -1.766 123.509  0.00  0.00    +0.000 A 
ATOM     36  C   UNL     1      -8.503  -0.710 124.280  0.00  0.00    +0.000 A 
BRANCH  36  37
ATOM     37  C   UNL     1      -8.116   0.531 123.599  0.00  0.00    +0.000 A 
ATOM     38  N   UNL     1      -6.922   0.820 123.201  0.00  0.00    +0.000 NA
ATOM     39  O   UNL     1      -7.061   2.070 122.515  0.00  0.00    +0.000 OA
ATOM     40  C   UNL     1      -8.391   2.416 122.591  0.00  0.00    +0.000 A 
ATOM     41  O   UNL     1      -8.893   3.410 122.110  0.00  0.00    +0.000 OA
ATOM     42  N   UNL     1      -9.033   1.460 123.287  0.00  0.00    +0.000 N 
ATOM     43  H   UNL     1     -10.031   1.434 123.399  0.00  0.00    +0.000 HD
ENDBRANCH  36  37
ENDBRANCH  28  31
ENDBRANCH  24  25
ENDBRANCH   5  24
TORSDOF 10
ENDMDL
MODEL 5
REMARK VINA RESULT:      -9.1      2.511      7.915
REMARK  Name = Azilsartan medoxomil
REMARK  12 active torsions:
REMARK  status: ('A' for Active; 'I' for Inactive)
REMARK    1  A    between atoms: C_1  and  C_2
REMARK    2  A    between atoms: C_2  and  O_3
REMARK    3  A    between atoms: O_3  and  C_4
REMARK    4  A    between atoms: N_8  and  C_9
REMARK    5  A    between atoms: C_9  and  C_10
REMARK    6  A    between atoms: C_13  and  C_16
REMARK    7  A    between atoms: C_21  and  C_22
REMARK    8  A    between atoms: C_28  and  C_32
REMARK    9  A    between atoms: C_32  and  O_34
REMARK   10  A    between atoms: O_34  and  C_35
REMARK   11  A    between atoms: C_35  and  C_36
REMARK   12  A    between atoms: C_37  and  C_38
REMARK                            x       y       z     vdW  Elec       q    Type
REMARK                         _______ _______ _______ _____ _____    ______ ____
ROOT
ATOM      1  C   UNL     1      -5.014   3.287 130.720  0.00  0.00    +0.000 A 
ATOM      2  N   UNL     1      -5.095   3.240 132.025  0.00  0.00    +0.000 NA
ATOM      3  C   UNL     1      -6.438   3.334 132.312  0.00  0.00    +0.000 A 
ATOM      4  C   UNL     1      -7.239   3.394 131.159  0.00  0.00    +0.000 A 
ATOM      5  N   UNL     1      -6.276   3.359 130.143  0.00  0.00    +0.000 N 
ATOM      6  C   UNL     1      -8.676   3.469 131.228  0.00  0.00    +0.000 A 
ATOM      7  C   UNL     1      -9.218   3.499 132.530  0.00  0.00    +0.000 A 
ATOM      8  C   UNL     1      -8.418   3.459 133.679  0.00  0.00    +0.000 A 
ATOM      9  C   UNL     1      -7.029   3.375 133.583  0.00  0.00    +0.000 A 
ENDROOT
BRANCH   6  10
ATOM     10  C   UNL     1      -9.606   3.513 130.027  0.00  0.00    +0.000 C 
ATOM     11  O   UNL     1      -9.703   2.604 129.220  0.00  0.00    +0.000 OA
BRANCH  10  12
ATOM     12  O   UNL     1     -10.362   4.653 129.904  0.00  0.00    +0.000 OA
BRANCH  12  13
ATOM     13  C   UNL     1      -9.575   5.831 129.544  0.00  0.00    +0.000 C 
BRANCH  13  14
ATOM     14  C   UNL     1     -10.350   6.773 128.658  0.00  0.00    +0.000 A 
ATOM     15  C   UNL     1     -11.367   7.599 128.866  0.00  0.00    +0.000 A 
ATOM     16  C   UNL     1     -12.162   7.970 130.079  0.00  0.00    +0.000 C 
ATOM     17  O   UNL     1     -11.749   8.224 127.684  0.00  0.00    +0.000 OA
ATOM     18  C   UNL     1     -10.872   7.678 126.764  0.00  0.00    +0.000 A 
ATOM     19  O   UNL     1     -10.869   7.976 125.576  0.00  0.00    +0.000 OA
ATOM     20  O   UNL     1      -9.998   6.760 127.313  0.00  0.00    +0.000 OA
ENDBRANCH  13  14
ENDBRANCH  12  13
ENDBRANCH  10  12
ENDBRANCH   6  10
BRANCH   1  21
ATOM     21  O   UNL     1      -3.856   3.368 130.045  0.00  0.00    +0.000 OA
BRANCH  21  23
ATOM     22  C   UNL     1      -3.081   5.083 128.460  0.00  0.00    +0.000 C 
ATOM     23  C   UNL     1      -3.282   4.682 129.928  0.00  0.00    +0.000 C 
ENDBRANCH  21  23
ENDBRANCH   1  21
BRANCH   5  24
ATOM     24  C   UNL     1      -6.622   3.362 128.724  0.00  0.00    +0.000 C 
BRANCH  24  25
ATOM     25  C   UNL     1      -6.255   2.146 127.948  0.00  0.00    +0.000 A 
ATOM     26  C   UNL     1      -5.229   2.227 127.016  0.00  0.00    +0.000 A 
ATOM     27  C   UNL     1      -5.110   1.217 126.086  0.00  0.00    +0.000 A 
ATOM     28  C   UNL     1      -5.960   0.092 126.101  0.00  0.00    +0.000 A 
ATOM     29  C   UNL     1      -6.793  -0.081 127.206  0.00  0.00    +0.000 A 
ATOM     30  C   UNL     1      -6.976   0.960 128.103  0.00  0.00    +0.000 A 
BRANCH  28  31
ATOM     31  C   UNL     1      -5.981  -0.885 124.998  0.00  0.00    +0.000 A 
ATOM     32  C   UNL     1      -5.156  -2.036 125.035  0.00  0.00    +0.000 A 
ATOM     33  C   UNL     1      -5.017  -2.856 123.912  0.00  0.00    +0.000 A 
ATOM     34  C   UNL     1      -5.826  -2.639 122.801  0.00  0.00    +0.000 A 
ATOM     35  C   UNL     1      -6.793  -1.634 122.829  0.00  0.00    +0.000 A 
ATOM     36  C   UNL     1      -6.823  -0.722 123.886  0.00  0.00    +0.000 A 
BRANCH  36  37
ATOM     37  C   UNL     1      -7.758   0.407 123.809  0.00  0.00    +0.000 A 
ATOM     38  N   UNL     1      -8.937   0.433 124.334  0.00  0.00    +0.000 NA
ATOM     39  O   UNL     1      -9.417   1.759 124.082  0.00  0.00    +0.000 OA
ATOM     40  C   UNL     1      -8.424   2.412 123.388  0.00  0.00    +0.000 A 
ATOM     41  O   UNL     1      -8.463   3.565 123.012  0.00  0.00    +0.000 OA
ATOM     42  N   UNL     1      -7.405   1.553 123.207  0.00  0.00    +0.000 N 
ATOM     43  H   UNL     1      -6.521   1.819 122.809  0.00  0.00    +0.000 HD
ENDBRANCH  36  37
ENDBRANCH  28  31
ENDBRANCH  24  25
ENDBRANCH   5  24
TORSDOF 10
ENDMDL
MODEL 6
REMARK VINA RESULT:      -9.0      3.313      8.069
REMARK  Name = Azilsartan medoxomil
REMARK  12 active torsions:
REMARK  status: ('A' for Active; 'I' for Inactive)
REMARK    1  A    between atoms: C_1  and  C_2
REMARK    2  A    between atoms: C_2  and  O_3
REMARK    3  A    between atoms: O_3  and  C_4
REMARK    4  A    between atoms: N_8  and  C_9
REMARK    5  A    between atoms: C_9  and  C_10
REMARK    6  A    between atoms: C_13  and  C_16
REMARK    7  A    between atoms: C_21  and  C_22
REMARK    8  A    between atoms: C_28  and  C_32
REMARK    9  A    between atoms: C_32  and  O_34
REMARK   10  A    between atoms: O_34  and  C_35
REMARK   11  A    between atoms: C_35  and  C_36
REMARK   12  A    between atoms: C_37  and  C_38
REMARK                            x       y       z     vdW  Elec       q    Type
REMARK                         _______ _______ _______ _____ _____    ______ ____
ROOT
ATOM      1  C   UNL     1      -5.130   2.262 129.609  0.00  0.00    +0.000 A 
ATOM      2  N   UNL     1      -5.085   1.920 130.871  0.00  0.00    +0.000 NA
ATOM      3  C   UNL     1      -6.187   2.509 131.449  0.00  0.00    +0.000 A 
ATOM      4  C   UNL     1      -6.981   3.204 130.523  0.00  0.00    +0.000 A 
ATOM      5  N   UNL     1      -6.262   3.019 129.336  0.00  0.00    +0.000 N 
ATOM      6  C   UNL     1      -8.198   3.874 130.907  0.00  0.00    +0.000 A 
ATOM      7  C   UNL     1      -8.522   3.799 132.278  0.00  0.00    +0.000 A 
ATOM      8  C   UNL     1      -7.719   3.122 133.204  0.00  0.00    +0.000 A 
ATOM      9  C   UNL     1      -6.552   2.473 132.802  0.00  0.00    +0.000 A 
ENDROOT
BRANCH   6  10
ATOM     10  C   UNL     1      -9.118   4.625 129.959  0.00  0.00    +0.000 C 
ATOM     11  O   UNL     1     -10.148   4.151 129.508  0.00  0.00    +0.000 OA
BRANCH  10  12
ATOM     12  O   UNL     1      -8.728   5.902 129.641  0.00  0.00    +0.000 OA
BRANCH  12  13
ATOM     13  C   UNL     1      -9.650   6.925 130.129  0.00  0.00    +0.000 C 
BRANCH  13  14
ATOM     14  C   UNL     1     -10.475   7.515 129.012  0.00  0.00    +0.000 A 
ATOM     15  C   UNL     1     -11.632   8.163 128.972  0.00  0.00    +0.000 A 
ATOM     16  C   UNL     1     -12.600   8.612 130.021  0.00  0.00    +0.000 C 
ATOM     17  O   UNL     1     -11.988   8.461 127.660  0.00  0.00    +0.000 OA
ATOM     18  C   UNL     1     -10.940   7.917 126.938  0.00  0.00    +0.000 A 
ATOM     19  O   UNL     1     -10.863   7.970 125.717  0.00  0.00    +0.000 OA
ATOM     20  O   UNL     1      -9.987   7.303 127.727  0.00  0.00    +0.000 OA
ENDBRANCH  13  14
ENDBRANCH  12  13
ENDBRANCH  10  12
ENDBRANCH   6  10
BRANCH   1  21
ATOM     21  O   UNL     1      -4.148   2.003 128.730  0.00  0.00    +0.000 OA
BRANCH  21  23
ATOM     22  C   UNL     1      -2.772   3.047 126.977  0.00  0.00    +0.000 C 
ATOM     23  C   UNL     1      -3.262   3.097 128.431  0.00  0.00    +0.000 C 
ENDBRANCH  21  23
ENDBRANCH   1  21
BRANCH   5  24
ATOM     24  C   UNL     1      -6.713   3.537 128.047  0.00  0.00    +0.000 C 
BRANCH  24  25
ATOM     25  C   UNL     1      -7.217   2.536 127.068  0.00  0.00    +0.000 A 
ATOM     26  C   UNL     1      -8.486   2.000 127.248  0.00  0.00    +0.000 A 
ATOM     27  C   UNL     1      -8.819   0.861 126.549  0.00  0.00    +0.000 A 
ATOM     28  C   UNL     1      -7.930   0.271 125.626  0.00  0.00    +0.000 A 
ATOM     29  C   UNL     1      -6.784   0.985 125.278  0.00  0.00    +0.000 A 
ATOM     30  C   UNL     1      -6.404   2.088 126.026  0.00  0.00    +0.000 A 
BRANCH  28  31
ATOM     31  C   UNL     1      -8.187  -1.054 125.033  0.00  0.00    +0.000 A 
ATOM     32  C   UNL     1      -8.798  -1.170 123.760  0.00  0.00    +0.000 A 
ATOM     33  C   UNL     1      -9.228  -2.410 123.281  0.00  0.00    +0.000 A 
ATOM     34  C   UNL     1      -8.903  -3.566 123.983  0.00  0.00    +0.000 A 
ATOM     35  C   UNL     1      -8.120  -3.485 125.135  0.00  0.00    +0.000 A 
ATOM     36  C   UNL     1      -7.825  -2.238 125.693  0.00  0.00    +0.000 A 
BRANCH  36  37
ATOM     37  C   UNL     1      -7.124  -2.198 126.982  0.00  0.00    +0.000 A 
ATOM     38  N   UNL     1      -7.695  -2.191 128.139  0.00  0.00    +0.000 NA
ATOM     39  O   UNL     1      -6.614  -2.250 129.078  0.00  0.00    +0.000 OA
ATOM     40  C   UNL     1      -5.453  -2.275 128.340  0.00  0.00    +0.000 A 
ATOM     41  O   UNL     1      -4.328  -2.339 128.791  0.00  0.00    +0.000 OA
ATOM     42  N   UNL     1      -5.783  -2.221 127.037  0.00  0.00    +0.000 N 
ATOM     43  H   UNL     1      -5.115  -2.321 126.292  0.00  0.00    +0.000 HD
ENDBRANCH  36  37
ENDBRANCH  28  31
ENDBRANCH  24  25
ENDBRANCH   5  24
TORSDOF 10
ENDMDL
MODEL 7
REMARK VINA RESULT:      -9.0      1.665      4.960
REMARK  Name = Azilsartan medoxomil
REMARK  12 active torsions:
REMARK  status: ('A' for Active; 'I' for Inactive)
REMARK    1  A    between atoms: C_1  and  C_2
REMARK    2  A    between atoms: C_2  and  O_3
REMARK    3  A    between atoms: O_3  and  C_4
REMARK    4  A    between atoms: N_8  and  C_9
REMARK    5  A    between atoms: C_9  and  C_10
REMARK    6  A    between atoms: C_13  and  C_16
REMARK    7  A    between atoms: C_21  and  C_22
REMARK    8  A    between atoms: C_28  and  C_32
REMARK    9  A    between atoms: C_32  and  O_34
REMARK   10  A    between atoms: O_34  and  C_35
REMARK   11  A    between atoms: C_35  and  C_36
REMARK   12  A    between atoms: C_37  and  C_38
REMARK                            x       y       z     vdW  Elec       q    Type
REMARK                         _______ _______ _______ _____ _____    ______ ____
ROOT
ATOM      1  C   UNL     1      -8.136   1.807 124.184  0.00  0.00    +0.000 A 
ATOM      2  N   UNL     1      -8.890   1.227 123.286  0.00  0.00    +0.000 NA
ATOM      3  C   UNL     1      -8.764  -0.124 123.519  0.00  0.00    +0.000 A 
ATOM      4  C   UNL     1      -7.946  -0.411 124.625  0.00  0.00    +0.000 A 
ATOM      5  N   UNL     1      -7.557   0.871 125.032  0.00  0.00    +0.000 N 
ATOM      6  C   UNL     1      -7.698  -1.761 125.065  0.00  0.00    +0.000 A 
ATOM      7  C   UNL     1      -8.316  -2.770 124.296  0.00  0.00    +0.000 A 
ATOM      8  C   UNL     1      -9.115  -2.483 123.182  0.00  0.00    +0.000 A 
ATOM      9  C   UNL     1      -9.348  -1.166 122.786  0.00  0.00    +0.000 A 
ENDROOT
BRANCH   6  10
ATOM     10  C   UNL     1      -6.845  -2.146 126.261  0.00  0.00    +0.000 C 
ATOM     11  O   UNL     1      -5.691  -2.531 126.167  0.00  0.00    +0.000 OA
BRANCH  10  12
ATOM     12  O   UNL     1      -7.452  -2.022 127.487  0.00  0.00    +0.000 OA
BRANCH  12  13
ATOM     13  C   UNL     1      -6.590  -2.416 128.600  0.00  0.00    +0.000 C 
BRANCH  13  14
ATOM     14  C   UNL     1      -6.121  -1.224 129.395  0.00  0.00    +0.000 A 
ATOM     15  C   UNL     1      -6.555  -0.631 130.499  0.00  0.00    +0.000 A 
ATOM     16  C   UNL     1      -7.682  -0.909 131.445  0.00  0.00    +0.000 C 
ATOM     17  O   UNL     1      -5.779   0.484 130.802  0.00  0.00    +0.000 OA
ATOM     18  C   UNL     1      -4.861   0.495 129.767  0.00  0.00    +0.000 A 
ATOM     19  O   UNL     1      -3.974   1.333 129.660  0.00  0.00    +0.000 OA
ATOM     20  O   UNL     1      -5.041  -0.530 128.859  0.00  0.00    +0.000 OA
ENDBRANCH  13  14
ENDBRANCH  12  13
ENDBRANCH  10  12
ENDBRANCH   6  10
BRANCH   1  21
ATOM     21  O   UNL     1      -7.875   3.125 124.202  0.00  0.00    +0.000 OA
BRANCH  21  23
ATOM     22  C   UNL     1      -5.669   4.214 124.265  0.00  0.00    +0.000 C 
ATOM     23  C   UNL     1      -6.759   3.560 123.404  0.00  0.00    +0.000 C 
ENDBRANCH  21  23
ENDBRANCH   1  21
BRANCH   5  24
ATOM     24  C   UNL     1      -6.708   1.110 126.196  0.00  0.00    +0.000 C 
BRANCH  24  25
ATOM     25  C   UNL     1      -7.321   1.865 127.322  0.00  0.00    +0.000 A 
ATOM     26  C   UNL     1      -6.705   3.027 127.768  0.00  0.00    +0.000 A 
ATOM     27  C   UNL     1      -7.079   3.536 128.992  0.00  0.00    +0.000 A 
ATOM     28  C   UNL     1      -8.100   2.941 129.762  0.00  0.00    +0.000 A 
ATOM     29  C   UNL     1      -8.872   1.946 129.163  0.00  0.00    +0.000 A 
ATOM     30  C   UNL     1      -8.459   1.377 127.968  0.00  0.00    +0.000 A 
BRANCH  28  31
ATOM     31  C   UNL     1      -8.365   3.347 131.154  0.00  0.00    +0.000 A 
ATOM     32  C   UNL     1      -7.715   2.697 132.232  0.00  0.00    +0.000 A 
ATOM     33  C   UNL     1      -8.108   2.932 133.553  0.00  0.00    +0.000 A 
ATOM     34  C   UNL     1      -9.030   3.937 133.825  0.00  0.00    +0.000 A 
ATOM     35  C   UNL     1      -9.526   4.727 132.788  0.00  0.00    +0.000 A 
ATOM     36  C   UNL     1      -9.252   4.391 131.460  0.00  0.00    +0.000 A 
BRANCH  36  37
ATOM     37  C   UNL     1      -9.909   5.157 130.395  0.00  0.00    +0.000 A 
ATOM     38  N   UNL     1     -11.073   4.897 129.901  0.00  0.00    +0.000 NA
ATOM     39  O   UNL     1     -11.322   5.964 128.978  0.00  0.00    +0.000 OA
ATOM     40  C   UNL     1     -10.216   6.783 129.014  0.00  0.00    +0.000 A 
ATOM     41  O   UNL     1     -10.069   7.802 128.374  0.00  0.00    +0.000 OA
ATOM     42  N   UNL     1      -9.336   6.258 129.886  0.00  0.00    +0.000 N 
ATOM     43  H   UNL     1      -8.487   6.722 130.161  0.00  0.00    +0.000 HD
ENDBRANCH  36  37
ENDBRANCH  28  31
ENDBRANCH  24  25
ENDBRANCH   5  24
TORSDOF 10
ENDMDL
MODEL 8
REMARK VINA RESULT:      -8.9      3.084      6.715
REMARK  Name = Azilsartan medoxomil
REMARK  12 active torsions:
REMARK  status: ('A' for Active; 'I' for Inactive)
REMARK    1  A    between atoms: C_1  and  C_2
REMARK    2  A    between atoms: C_2  and  O_3
REMARK    3  A    between atoms: O_3  and  C_4
REMARK    4  A    between atoms: N_8  and  C_9
REMARK    5  A    between atoms: C_9  and  C_10
REMARK    6  A    between atoms: C_13  and  C_16
REMARK    7  A    between atoms: C_21  and  C_22
REMARK    8  A    between atoms: C_28  and  C_32
REMARK    9  A    between atoms: C_32  and  O_34
REMARK   10  A    between atoms: O_34  and  C_35
REMARK   11  A    between atoms: C_35  and  C_36
REMARK   12  A    between atoms: C_37  and  C_38
REMARK                            x       y       z     vdW  Elec       q    Type
REMARK                         _______ _______ _______ _____ _____    ______ ____
ROOT
ATOM      1  C   UNL     1      -5.394   0.886 130.161  0.00  0.00    +0.000 A 
ATOM      2  N   UNL     1      -4.360   0.254 130.653  0.00  0.00    +0.000 NA
ATOM      3  C   UNL     1      -4.611  -1.082 130.439  0.00  0.00    +0.000 A 
ATOM      4  C   UNL     1      -5.815  -1.306 129.749  0.00  0.00    +0.000 A 
ATOM      5  N   UNL     1      -6.294  -0.000 129.584  0.00  0.00    +0.000 N 
ATOM      6  C   UNL     1      -6.261  -2.629 129.395  0.00  0.00    +0.000 A 
ATOM      7  C   UNL     1      -5.417  -3.682 129.808  0.00  0.00    +0.000 A 
ATOM      8  C   UNL     1      -4.227  -3.459 130.513  0.00  0.00    +0.000 A 
ATOM      9  C   UNL     1      -3.814  -2.166 130.832  0.00  0.00    +0.000 A 
ENDROOT
BRANCH   6  10
ATOM     10  C   UNL     1      -7.536  -2.946 128.632  0.00  0.00    +0.000 C 
ATOM     11  O   UNL     1      -8.598  -3.197 129.175  0.00  0.00    +0.000 OA
BRANCH  10  12
ATOM     12  O   UNL     1      -7.430  -2.919 127.263  0.00  0.00    +0.000 OA
BRANCH  12  13
ATOM     13  C   UNL     1      -8.707  -2.694 126.590  0.00  0.00    +0.000 C 
BRANCH  13  14
ATOM     14  C   UNL     1      -8.520  -2.087 125.222  0.00  0.00    +0.000 A 
ATOM     15  C   UNL     1      -7.612  -2.242 124.268  0.00  0.00    +0.000 A 
ATOM     16  C   UNL     1      -6.397  -3.106 124.131  0.00  0.00    +0.000 C 
ATOM     17  O   UNL     1      -7.873  -1.399 123.192  0.00  0.00    +0.000 OA
ATOM     18  C   UNL     1      -9.010  -0.730 123.610  0.00  0.00    +0.000 A 
ATOM     19  O   UNL     1      -9.581   0.117 122.934  0.00  0.00    +0.000 OA
ATOM     20  O   UNL     1      -9.440  -1.106 124.868  0.00  0.00    +0.000 OA
ENDBRANCH  13  14
ENDBRANCH  12  13
ENDBRANCH  10  12
ENDBRANCH   6  10
BRANCH   1  21
ATOM     21  O   UNL     1      -5.599   2.206 130.301  0.00  0.00    +0.000 OA
BRANCH  21  23
ATOM     22  C   UNL     1      -7.640   3.191 131.259  0.00  0.00    +0.000 C 
ATOM     23  C   UNL     1      -6.239   2.621 131.521  0.00  0.00    +0.000 C 
ENDBRANCH  21  23
ENDBRANCH   1  21
BRANCH   5  24
ATOM     24  C   UNL     1      -7.533   0.305 128.874  0.00  0.00    +0.000 C 
BRANCH  24  25
ATOM     25  C   UNL     1      -7.398   0.716 127.450  0.00  0.00    +0.000 A 
ATOM     26  C   UNL     1      -6.299   0.277 126.724  0.00  0.00    +0.000 A 
ATOM     27  C   UNL     1      -6.008   0.907 125.534  0.00  0.00    +0.000 A 
ATOM     28  C   UNL     1      -6.826   1.934 125.019  0.00  0.00    +0.000 A 
ATOM     29  C   UNL     1      -8.056   2.157 125.636  0.00  0.00    +0.000 A 
ATOM     30  C   UNL     1      -8.324   1.586 126.871  0.00  0.00    +0.000 A 
BRANCH  28  31
ATOM     31  C   UNL     1      -6.417   2.754 123.864  0.00  0.00    +0.000 A 
ATOM     32  C   UNL     1      -6.840   2.420 122.555  0.00  0.00    +0.000 A 
ATOM     33  C   UNL     1      -6.297   3.064 121.439  0.00  0.00    +0.000 A 
ATOM     34  C   UNL     1      -5.458   4.158 121.621  0.00  0.00    +0.000 A 
ATOM     35  C   UNL     1      -5.196   4.629 122.907  0.00  0.00    +0.000 A 
ATOM     36  C   UNL     1      -5.612   3.894 124.020  0.00  0.00    +0.000 A 
BRANCH  36  37
ATOM     37  C   UNL     1      -5.193   4.344 125.352  0.00  0.00    +0.000 A 
ATOM     38  N   UNL     1      -5.861   5.146 126.111  0.00  0.00    +0.000 NA
ATOM     39  O   UNL     1      -5.110   5.205 127.328  0.00  0.00    +0.000 OA
ATOM     40  C   UNL     1      -4.009   4.397 127.152  0.00  0.00    +0.000 A 
ATOM     41  O   UNL     1      -3.146   4.185 127.977  0.00  0.00    +0.000 OA
ATOM     42  N   UNL     1      -4.062   3.884 125.909  0.00  0.00    +0.000 N 
ATOM     43  H   UNL     1      -3.421   3.187 125.571  0.00  0.00    +0.000 HD
ENDBRANCH  36  37
ENDBRANCH  28  31
ENDBRANCH  24  25
ENDBRANCH   5  24
TORSDOF 10
ENDMDL
MODEL 9
REMARK VINA RESULT:      -8.9      2.977      4.505
REMARK  Name = Azilsartan medoxomil
REMARK  12 active torsions:
REMARK  status: ('A' for Active; 'I' for Inactive)
REMARK    1  A    between atoms: C_1  and  C_2
REMARK    2  A    between atoms: C_2  and  O_3
REMARK    3  A    between atoms: O_3  and  C_4
REMARK    4  A    between atoms: N_8  and  C_9
REMARK    5  A    between atoms: C_9  and  C_10
REMARK    6  A    between atoms: C_13  and  C_16
REMARK    7  A    between atoms: C_21  and  C_22
REMARK    8  A    between atoms: C_28  and  C_32
REMARK    9  A    between atoms: C_32  and  O_34
REMARK   10  A    between atoms: O_34  and  C_35
REMARK   11  A    between atoms: C_35  and  C_36
REMARK   12  A    between atoms: C_37  and  C_38
REMARK                            x       y       z     vdW  Elec       q    Type
REMARK                         _______ _______ _______ _____ _____    ______ ____
ROOT
ATOM      1  C   UNL     1      -5.884  -1.761 127.363  0.00  0.00    +0.000 A 
ATOM      2  N   UNL     1      -5.240  -2.695 126.713  0.00  0.00    +0.000 NA
ATOM      3  C   UNL     1      -5.562  -2.508 125.388  0.00  0.00    +0.000 A 
ATOM      4  C   UNL     1      -6.396  -1.395 125.182  0.00  0.00    +0.000 A 
ATOM      5  N   UNL     1      -6.581  -0.934 126.492  0.00  0.00    +0.000 N 
ATOM      6  C   UNL     1      -6.835  -0.999 123.869  0.00  0.00    +0.000 A 
ATOM      7  C   UNL     1      -6.388  -1.818 122.810  0.00  0.00    +0.000 A 
ATOM      8  C   UNL     1      -5.573  -2.938 123.017  0.00  0.00    +0.000 A 
ATOM      9  C   UNL     1      -5.153  -3.291 124.299  0.00  0.00    +0.000 A 
ENDROOT
BRANCH   6  10
ATOM     10  C   UNL     1      -7.715   0.202 123.568  0.00  0.00    +0.000 C 
ATOM     11  O   UNL     1      -8.925   0.129 123.426  0.00  0.00    +0.000 OA
BRANCH  10  12
ATOM     12  O   UNL     1      -7.064   1.407 123.475  0.00  0.00    +0.000 OA
BRANCH  12  13
ATOM     13  C   UNL     1      -7.964   2.532 123.232  0.00  0.00    +0.000 C 
BRANCH  13  14
ATOM     14  C   UNL     1      -7.712   3.668 124.192  0.00  0.00    +0.000 A 
ATOM     15  C   UNL     1      -6.653   4.417 124.468  0.00  0.00    +0.000 A 
ATOM     16  C   UNL     1      -5.259   4.472 123.924  0.00  0.00    +0.000 C 
ATOM     17  O   UNL     1      -6.935   5.320 125.488  0.00  0.00    +0.000 OA
ATOM     18  C   UNL     1      -8.252   5.022 125.791  0.00  0.00    +0.000 A 
ATOM     19  O   UNL     1      -8.895   5.608 126.652  0.00  0.00    +0.000 OA
ATOM     20  O   UNL     1      -8.774   3.994 125.030  0.00  0.00    +0.000 OA
ENDBRANCH  13  14
ENDBRANCH  12  13
ENDBRANCH  10  12
ENDBRANCH   6  10
BRANCH   1  21
ATOM     21  O   UNL     1      -5.944  -1.689 128.703  0.00  0.00    +0.000 OA
BRANCH  21  23
ATOM     22  C   UNL     1      -7.961  -3.017 129.179  0.00  0.00    +0.000 C 
ATOM     23  C   UNL     1      -6.446  -2.857 129.377  0.00  0.00    +0.000 C 
ENDBRANCH  21  23
ENDBRANCH   1  21
BRANCH   5  24
ATOM     24  C   UNL     1      -7.365   0.257 126.808  0.00  0.00    +0.000 C 
BRANCH  24  25
ATOM     25  C   UNL     1      -6.600   1.507 127.064  0.00  0.00    +0.000 A 
ATOM     26  C   UNL     1      -5.335   1.647 126.510  0.00  0.00    +0.000 A 
ATOM     27  C   UNL     1      -4.512   2.636 127.002  0.00  0.00    +0.000 A 
ATOM     28  C   UNL     1      -4.945   3.532 128.001  0.00  0.00    +0.000 A 
ATOM     29  C   UNL     1      -6.299   3.531 128.335  0.00  0.00    +0.000 A 
ATOM     30  C   UNL     1      -7.115   2.496 127.905  0.00  0.00    +0.000 A 
BRANCH  28  31
ATOM     31  C   UNL     1      -4.016   4.454 128.680  0.00  0.00    +0.000 A 
ATOM     32  C   UNL     1      -3.434   5.539 127.981  0.00  0.00    +0.000 A 
ATOM     33  C   UNL     1      -2.404   6.291 128.553  0.00  0.00    +0.000 A 
ATOM     34  C   UNL     1      -2.060   6.081 129.885  0.00  0.00    +0.000 A 
ATOM     35  C   UNL     1      -2.769   5.154 130.649  0.00  0.00    +0.000 A 
ATOM     36  C   UNL     1      -3.689   4.300 130.037  0.00  0.00    +0.000 A 
BRANCH  36  37
ATOM     37  C   UNL     1      -4.306   3.242 130.846  0.00  0.00    +0.000 A 
ATOM     38  N   UNL     1      -3.968   1.997 130.825  0.00  0.00    +0.000 NA
ATOM     39  O   UNL     1      -4.772   1.385 131.841  0.00  0.00    +0.000 OA
ATOM     40  C   UNL     1      -5.553   2.383 132.379  0.00  0.00    +0.000 A 
ATOM     41  O   UNL     1      -6.355   2.247 133.279  0.00  0.00    +0.000 OA
ATOM     42  N   UNL     1      -5.268   3.530 131.736  0.00  0.00    +0.000 N 
ATOM     43  H   UNL     1      -5.638   4.424 132.009  0.00  0.00    +0.000 HD
ENDBRANCH  36  37
ENDBRANCH  28  31
ENDBRANCH  24  25
ENDBRANCH   5  24
TORSDOF 10
ENDMDL
