MODEL 1
REMARK VINA RESULT:      -9.1      0.000      0.000
REMARK  Name = Azlocillin
REMARK  8 active torsions:
REMARK  status: ('A' for Active; 'I' for Inactive)
REMARK    1  A    between atoms: CA_2  and  N_3
REMARK    2  A    between atoms: CA_2  and  C_12
REMARK    3  A    between atoms: CA_2  and  C_29
REMARK    4  A    between atoms: N_14  and  CA_15
REMARK    5  A    between atoms: CA_19  and  C_20
REMARK    6  A    between atoms: C_20  and  O_21
REMARK    7  A    between atoms: C_23  and  C_24
REMARK    8  A    between atoms: C_23  and  C_25
REMARK                            x       y       z     vdW  Elec       q    Type
REMARK                         _______ _______ _______ _____ _____    ______ ____
ROOT
ATOM      1  CA  UNL     1      -8.998   4.756 129.857  0.00  0.00    +0.000 C 
ENDROOT
BRANCH   1   2
ATOM      2  N   UNL     1      -9.745   6.015 129.581  0.00  0.00    +0.000 N 
ATOM      3  C   UNL     1     -11.123   6.140 129.503  0.00  0.00    +0.000 C 
ATOM      4  O   UNL     1     -11.957   5.244 129.500  0.00  0.00    +0.000 OA
ATOM      5  N   UNL     1     -11.578   7.430 129.541  0.00  0.00    +0.000 N 
ATOM      6  C   UNL     1     -12.887   7.711 130.111  0.00  0.00    +0.000 C 
ATOM      7  C   UNL     1     -12.907   9.220 130.039  0.00  0.00    +0.000 C 
ATOM      8  N   UNL     1     -12.204   9.459 128.805  0.00  0.00    +0.000 N 
ATOM      9  C   UNL     1     -11.338   8.391 128.545  0.00  0.00    +0.000 C 
ATOM     10  O   UNL     1     -10.494   8.379 127.665  0.00  0.00    +0.000 OA
ATOM     11  H   UNL     1      -9.228   6.883 129.568  0.00  0.00    +0.000 HD
ATOM     12  H   UNL     1     -12.151  10.323 128.284  0.00  0.00    +0.000 HD
ENDBRANCH   1   2
BRANCH   1  13
ATOM     13  C   UNL     1      -8.628   4.637 131.327  0.00  0.00    +0.000 A 
ATOM     14  C   UNL     1      -8.685   3.414 132.001  0.00  0.00    +0.000 A 
ATOM     15  C   UNL     1      -8.758   3.413 133.396  0.00  0.00    +0.000 A 
ATOM     16  C   UNL     1      -8.678   4.608 134.118  0.00  0.00    +0.000 A 
ATOM     17  C   UNL     1      -8.542   5.820 133.457  0.00  0.00    +0.000 A 
ATOM     18  C   UNL     1      -8.500   5.829 132.074  0.00  0.00    +0.000 A 
ENDBRANCH   1  13
BRANCH   1  19
ATOM     19  C   UNL     1      -7.738   4.539 128.947  0.00  0.00    +0.000 C 
ATOM     20  O   UNL     1      -6.605   4.925 129.245  0.00  0.00    +0.000 OA
ATOM     21  N   UNL     1      -7.866   3.744 127.826  0.00  0.00    +0.000 N 
ATOM     22  H   UNL     1      -8.704   3.198 127.671  0.00  0.00    +0.000 HD
BRANCH  21  23
ATOM     23  CA  UNL     1      -6.634   3.542 126.988  0.00  0.00    +0.000 C 
ATOM     24  C   UNL     1      -6.473   4.478 125.745  0.00  0.00    +0.000 C 
ATOM     25  O   UNL     1      -6.618   5.661 125.495  0.00  0.00    +0.000 OA
ATOM     26  N   UNL     1      -6.335   3.409 124.895  0.00  0.00    +0.000 N 
ATOM     27  CA  UNL     1      -7.098   3.354 123.632  0.00  0.00    +0.000 C 
ATOM     28  C   UNL     1      -7.850   2.002 123.643  0.00  0.00    +0.000 C 
ATOM     29  C   UNL     1      -9.181   2.067 122.893  0.00  0.00    +0.000 C 
ATOM     30  C   UNL     1      -7.010   0.780 123.231  0.00  0.00    +0.000 C 
ATOM     31  S   UNL     1      -8.265   1.734 125.446  0.00  0.00    +0.000 S 
ATOM     32  C   UNL     1      -6.649   2.422 125.943  0.00  0.00    +0.000 C 
BRANCH  27  33
ATOM     33  C   UNL     1      -6.193   3.725 122.432  0.00  0.00    +0.000 C 
ATOM     34  OXT UNL     1      -6.277   3.170 121.343  0.00  0.00    +0.000 OA
BRANCH  33  35
ATOM     35  O   UNL     1      -5.255   4.680 122.585  0.00  0.00    +0.000 OA
ATOM     36  H   UNL     1      -4.507   4.555 123.186  0.00  0.00    +0.000 HD
ENDBRANCH  33  35
ENDBRANCH  27  33
ENDBRANCH  21  23
ENDBRANCH   1  19
TORSDOF 6
ENDMDL
MODEL 2
REMARK VINA RESULT:      -9.0      4.861      8.858
REMARK  Name = Azlocillin
REMARK  8 active torsions:
REMARK  status: ('A' for Active; 'I' for Inactive)
REMARK    1  A    between atoms: CA_2  and  N_3
REMARK    2  A    between atoms: CA_2  and  C_12
REMARK    3  A    between atoms: CA_2  and  C_29
REMARK    4  A    between atoms: N_14  and  CA_15
REMARK    5  A    between atoms: CA_19  and  C_20
REMARK    6  A    between atoms: C_20  and  O_21
REMARK    7  A    between atoms: C_23  and  C_24
REMARK    8  A    between atoms: C_23  and  C_25
REMARK                            x       y       z     vdW  Elec       q    Type
REMARK                         _______ _______ _______ _____ _____    ______ ____
ROOT
ATOM      1  CA  UNL     1      -8.360   2.022 123.315  0.00  0.00    +0.000 C 
ENDROOT
BRANCH   1   2
ATOM      2  N   UNL     1      -7.943   0.615 123.569  0.00  0.00    +0.000 N 
ATOM      3  C   UNL     1      -8.406  -0.195 124.595  0.00  0.00    +0.000 C 
ATOM      4  O   UNL     1      -9.112   0.127 125.542  0.00  0.00    +0.000 OA
ATOM      5  N   UNL     1      -8.111  -1.523 124.445  0.00  0.00    +0.000 N 
ATOM      6  C   UNL     1      -9.010  -2.523 124.999  0.00  0.00    +0.000 C 
ATOM      7  C   UNL     1      -8.355  -3.793 124.508  0.00  0.00    +0.000 C 
ATOM      8  N   UNL     1      -6.959  -3.447 124.588  0.00  0.00    +0.000 N 
ATOM      9  C   UNL     1      -6.813  -2.060 124.475  0.00  0.00    +0.000 C 
ATOM     10  O   UNL     1      -5.748  -1.482 124.345  0.00  0.00    +0.000 OA
ATOM     11  H   UNL     1      -7.369   0.156 122.878  0.00  0.00    +0.000 HD
ATOM     12  H   UNL     1      -6.166  -4.070 124.528  0.00  0.00    +0.000 HD
ENDBRANCH   1   2
BRANCH   1  13
ATOM     13  C   UNL     1      -7.686   2.589 122.075  0.00  0.00    +0.000 A 
ATOM     14  C   UNL     1      -6.296   2.709 121.987  0.00  0.00    +0.000 A 
ATOM     15  C   UNL     1      -5.752   3.597 121.055  0.00  0.00    +0.000 A 
ATOM     16  C   UNL     1      -6.574   4.286 120.157  0.00  0.00    +0.000 A 
ATOM     17  C   UNL     1      -7.949   4.110 120.188  0.00  0.00    +0.000 A 
ATOM     18  C   UNL     1      -8.495   3.255 121.129  0.00  0.00    +0.000 A 
ENDBRANCH   1  13
BRANCH   1  19
ATOM     19  C   UNL     1      -8.171   2.985 124.539  0.00  0.00    +0.000 C 
ATOM     20  O   UNL     1      -8.994   3.842 124.869  0.00  0.00    +0.000 OA
ATOM     21  N   UNL     1      -7.101   2.770 125.385  0.00  0.00    +0.000 N 
ATOM     22  H   UNL     1      -6.540   1.931 125.307  0.00  0.00    +0.000 HD
BRANCH  21  23
ATOM     23  CA  UNL     1      -6.961   3.699 126.558  0.00  0.00    +0.000 C 
ATOM     24  C   UNL     1      -6.132   5.005 126.319  0.00  0.00    +0.000 C 
ATOM     25  O   UNL     1      -6.041   5.858 125.456  0.00  0.00    +0.000 OA
ATOM     26  N   UNL     1      -5.299   4.728 127.375  0.00  0.00    +0.000 N 
ATOM     27  CA  UNL     1      -3.834   4.840 127.221  0.00  0.00    +0.000 C 
ATOM     28  C   UNL     1      -3.250   3.479 127.666  0.00  0.00    +0.000 C 
ATOM     29  C   UNL     1      -1.964   3.122 126.921  0.00  0.00    +0.000 C 
ATOM     30  C   UNL     1      -3.113   3.288 129.187  0.00  0.00    +0.000 C 
ATOM     31  S   UNL     1      -4.542   2.239 127.125  0.00  0.00    +0.000 S 
ATOM     32  C   UNL     1      -5.876   3.392 127.596  0.00  0.00    +0.000 C 
BRANCH  27  33
ATOM     33  C   UNL     1      -3.317   6.150 127.865  0.00  0.00    +0.000 C 
ATOM     34  OXT UNL     1      -4.067   7.034 128.262  0.00  0.00    +0.000 OA
BRANCH  33  35
ATOM     35  O   UNL     1      -1.989   6.348 127.979  0.00  0.00    +0.000 OA
ATOM     36  H   UNL     1      -1.549   6.313 128.841  0.00  0.00    +0.000 HD
ENDBRANCH  33  35
ENDBRANCH  27  33
ENDBRANCH  21  23
ENDBRANCH   1  19
TORSDOF 6
ENDMDL
MODEL 3
REMARK VINA RESULT:      -8.7      5.379      7.847
REMARK  Name = Azlocillin
REMARK  8 active torsions:
REMARK  status: ('A' for Active; 'I' for Inactive)
REMARK    1  A    between atoms: CA_2  and  N_3
REMARK    2  A    between atoms: CA_2  and  C_12
REMARK    3  A    between atoms: CA_2  and  C_29
REMARK    4  A    between atoms: N_14  and  CA_15
REMARK    5  A    between atoms: CA_19  and  C_20
REMARK    6  A    between atoms: C_20  and  O_21
REMARK    7  A    between atoms: C_23  and  C_24
REMARK    8  A    between atoms: C_23  and  C_25
REMARK                            x       y       z     vdW  Elec       q    Type
REMARK                         _______ _______ _______ _____ _____    ______ ____
ROOT
ATOM      1  CA  UNL     1      -6.374   4.249 125.026  0.00  0.00    +0.000 C 
ENDROOT
BRANCH   1   2
ATOM      2  N   UNL     1      -6.091   4.614 123.611  0.00  0.00    +0.000 N 
ATOM      3  C   UNL     1      -6.122   3.750 122.528  0.00  0.00    +0.000 C 
ATOM      4  O   UNL     1      -6.241   2.531 122.546  0.00  0.00    +0.000 OA
ATOM      5  N   UNL     1      -6.126   4.368 121.308  0.00  0.00    +0.000 N 
ATOM      6  C   UNL     1      -6.787   3.728 120.181  0.00  0.00    +0.000 C 
ATOM      7  C   UNL     1      -6.631   4.793 119.121  0.00  0.00    +0.000 C 
ATOM      8  N   UNL     1      -5.331   5.326 119.436  0.00  0.00    +0.000 N 
ATOM      9  C   UNL     1      -5.060   5.127 120.795  0.00  0.00    +0.000 C 
ATOM     10  O   UNL     1      -4.114   5.610 121.393  0.00  0.00    +0.000 OA
ATOM     11  H   UNL     1      -5.986   5.592 123.383  0.00  0.00    +0.000 HD
ATOM     12  H   UNL     1      -4.759   5.933 118.866  0.00  0.00    +0.000 HD
ENDBRANCH   1   2
BRANCH   1  13
ATOM     13  C   UNL     1      -5.172   3.588 125.683  0.00  0.00    +0.000 A 
ATOM     14  C   UNL     1      -5.315   2.712 126.763  0.00  0.00    +0.000 A 
ATOM     15  C   UNL     1      -4.215   2.472 127.589  0.00  0.00    +0.000 A 
ATOM     16  C   UNL     1      -2.963   3.018 127.292  0.00  0.00    +0.000 A 
ATOM     17  C   UNL     1      -2.796   3.824 126.176  0.00  0.00    +0.000 A 
ATOM     18  C   UNL     1      -3.890   4.090 125.371  0.00  0.00    +0.000 A 
ENDBRANCH   1  13
BRANCH   1  19
ATOM     19  C   UNL     1      -7.664   3.377 125.225  0.00  0.00    +0.000 C 
ATOM     20  O   UNL     1      -8.795   3.851 125.358  0.00  0.00    +0.000 OA
ATOM     21  N   UNL     1      -7.558   2.007 125.094  0.00  0.00    +0.000 N 
ATOM     22  H   UNL     1      -6.710   1.585 124.737  0.00  0.00    +0.000 HD
BRANCH  21  23
ATOM     23  CA  UNL     1      -8.817   1.205 125.271  0.00  0.00    +0.000 C 
ATOM     24  C   UNL     1      -8.821   0.161 126.436  0.00  0.00    +0.000 C 
ATOM     25  O   UNL     1      -8.468   0.122 127.601  0.00  0.00    +0.000 OA
ATOM     26  N   UNL     1      -9.162  -0.862 125.585  0.00  0.00    +0.000 N 
ATOM     27  CA  UNL     1      -8.439  -2.148 125.633  0.00  0.00    +0.000 C 
ATOM     28  C   UNL     1      -7.945  -2.417 124.193  0.00  0.00    +0.000 C 
ATOM     29  C   UNL     1      -6.634  -3.203 124.160  0.00  0.00    +0.000 C 
ATOM     30  C   UNL     1      -8.998  -3.003 123.235  0.00  0.00    +0.000 C 
ATOM     31  S   UNL     1      -7.562  -0.713 123.524  0.00  0.00    +0.000 S 
ATOM     32  C   UNL     1      -9.019  -0.025 124.381  0.00  0.00    +0.000 C 
BRANCH  27  33
ATOM     33  C   UNL     1      -9.277  -3.218 126.374  0.00  0.00    +0.000 C 
ATOM     34  OXT UNL     1      -8.790  -3.997 127.184  0.00  0.00    +0.000 OA
BRANCH  33  35
ATOM     35  O   UNL     1     -10.595  -3.321 126.110  0.00  0.00    +0.000 OA
ATOM     36  H   UNL     1     -10.930  -3.266 125.204  0.00  0.00    +0.000 HD
ENDBRANCH  33  35
ENDBRANCH  27  33
ENDBRANCH  21  23
ENDBRANCH   1  19
TORSDOF 6
ENDMDL
MODEL 4
REMARK VINA RESULT:      -8.5      3.549      8.144
REMARK  Name = Azlocillin
REMARK  8 active torsions:
REMARK  status: ('A' for Active; 'I' for Inactive)
REMARK    1  A    between atoms: CA_2  and  N_3
REMARK    2  A    between atoms: CA_2  and  C_12
REMARK    3  A    between atoms: CA_2  and  C_29
REMARK    4  A    between atoms: N_14  and  CA_15
REMARK    5  A    between atoms: CA_19  and  C_20
REMARK    6  A    between atoms: C_20  and  O_21
REMARK    7  A    between atoms: C_23  and  C_24
REMARK    8  A    between atoms: C_23  and  C_25
REMARK                            x       y       z     vdW  Elec       q    Type
REMARK                         _______ _______ _______ _____ _____    ______ ____
ROOT
ATOM      1  CA  UNL     1      -6.891  -0.237 127.640  0.00  0.00    +0.000 C 
ENDROOT
BRANCH   1   2
ATOM      2  N   UNL     1      -7.243   0.684 126.524  0.00  0.00    +0.000 N 
ATOM      3  C   UNL     1      -6.629   1.896 126.248  0.00  0.00    +0.000 C 
ATOM      4  O   UNL     1      -5.806   2.490 126.932  0.00  0.00    +0.000 OA
ATOM      5  N   UNL     1      -6.917   2.409 125.013  0.00  0.00    +0.000 N 
ATOM      6  C   UNL     1      -5.932   3.236 124.333  0.00  0.00    +0.000 C 
ATOM      7  C   UNL     1      -6.625   3.469 123.011  0.00  0.00    +0.000 C 
ATOM      8  N   UNL     1      -8.002   3.564 123.420  0.00  0.00    +0.000 N 
ATOM      9  C   UNL     1      -8.188   2.851 124.609  0.00  0.00    +0.000 C 
ATOM     10  O   UNL     1      -9.272   2.611 125.114  0.00  0.00    +0.000 OA
ATOM     11  H   UNL     1      -7.898   0.360 125.827  0.00  0.00    +0.000 HD
ATOM     12  H   UNL     1      -8.785   3.899 122.875  0.00  0.00    +0.000 HD
ENDBRANCH   1   2
BRANCH   1  13
ATOM     13  C   UNL     1      -7.844  -1.420 127.709  0.00  0.00    +0.000 A 
ATOM     14  C   UNL     1      -7.916  -2.239 128.840  0.00  0.00    +0.000 A 
ATOM     15  C   UNL     1      -8.460  -3.520 128.714  0.00  0.00    +0.000 A 
ATOM     16  C   UNL     1      -9.012  -3.947 127.503  0.00  0.00    +0.000 A 
ATOM     17  C   UNL     1      -9.015  -3.109 126.398  0.00  0.00    +0.000 A 
ATOM     18  C   UNL     1      -8.450  -1.851 126.509  0.00  0.00    +0.000 A 
ENDBRANCH   1  13
BRANCH   1  19
ATOM     19  C   UNL     1      -6.768   0.460 129.041  0.00  0.00    +0.000 C 
ATOM     20  O   UNL     1      -5.762   0.396 129.750  0.00  0.00    +0.000 OA
ATOM     21  N   UNL     1      -7.776   1.315 129.439  0.00  0.00    +0.000 N 
ATOM     22  H   UNL     1      -8.500   1.600 128.791  0.00  0.00    +0.000 HD
BRANCH  21  23
ATOM     23  CA  UNL     1      -7.617   1.980 130.778  0.00  0.00    +0.000 C 
ATOM     24  C   UNL     1      -8.935   2.375 131.523  0.00  0.00    +0.000 C 
ATOM     25  O   UNL     1     -10.018   1.867 131.749  0.00  0.00    +0.000 OA
ATOM     26  N   UNL     1      -8.533   3.682 131.646  0.00  0.00    +0.000 N 
ATOM     27  CA  UNL     1      -9.455   4.784 131.304  0.00  0.00    +0.000 C 
ATOM     28  C   UNL     1      -8.706   5.669 130.281  0.00  0.00    +0.000 C 
ATOM     29  C   UNL     1      -9.653   6.348 129.290  0.00  0.00    +0.000 C 
ATOM     30  C   UNL     1      -7.691   6.657 130.885  0.00  0.00    +0.000 C 
ATOM     31  S   UNL     1      -7.686   4.450 129.295  0.00  0.00    +0.000 S 
ATOM     32  C   UNL     1      -7.339   3.486 130.806  0.00  0.00    +0.000 C 
BRANCH  27  33
ATOM     33  C   UNL     1     -10.045   5.418 132.587  0.00  0.00    +0.000 C 
ATOM     34  OXT UNL     1     -10.741   6.426 132.568  0.00  0.00    +0.000 OA
BRANCH  33  35
ATOM     35  O   UNL     1      -9.772   4.860 133.783  0.00  0.00    +0.000 OA
ATOM     36  H   UNL     1     -10.113   3.985 134.018  0.00  0.00    +0.000 HD
ENDBRANCH  33  35
ENDBRANCH  27  33
ENDBRANCH  21  23
ENDBRANCH   1  19
TORSDOF 6
ENDMDL
MODEL 5
REMARK VINA RESULT:      -8.5      3.621      8.379
REMARK  Name = Azlocillin
REMARK  8 active torsions:
REMARK  status: ('A' for Active; 'I' for Inactive)
REMARK    1  A    between atoms: CA_2  and  N_3
REMARK    2  A    between atoms: CA_2  and  C_12
REMARK    3  A    between atoms: CA_2  and  C_29
REMARK    4  A    between atoms: N_14  and  CA_15
REMARK    5  A    between atoms: CA_19  and  C_20
REMARK    6  A    between atoms: C_20  and  O_21
REMARK    7  A    between atoms: C_23  and  C_24
REMARK    8  A    between atoms: C_23  and  C_25
REMARK                            x       y       z     vdW  Elec       q    Type
REMARK                         _______ _______ _______ _____ _____    ______ ____
ROOT
ATOM      1  CA  UNL     1      -7.716   0.546 125.149  0.00  0.00    +0.000 C 
ENDROOT
BRANCH   1   2
ATOM      2  N   UNL     1      -7.641   1.406 123.936  0.00  0.00    +0.000 N 
ATOM      3  C   UNL     1      -6.974   2.618 123.841  0.00  0.00    +0.000 C 
ATOM      4  O   UNL     1      -6.461   3.262 124.746  0.00  0.00    +0.000 OA
ATOM      5  N   UNL     1      -6.794   3.067 122.561  0.00  0.00    +0.000 N 
ATOM      6  C   UNL     1      -5.633   3.885 122.246  0.00  0.00    +0.000 C 
ATOM      7  C   UNL     1      -5.797   4.041 120.752  0.00  0.00    +0.000 C 
ATOM      8  N   UNL     1      -7.229   4.123 120.625  0.00  0.00    +0.000 N 
ATOM      9  C   UNL     1      -7.832   3.460 121.700  0.00  0.00    +0.000 C 
ATOM     10  O   UNL     1      -9.024   3.219 121.787  0.00  0.00    +0.000 OA
ATOM     11  H   UNL     1      -7.995   1.036 123.066  0.00  0.00    +0.000 HD
ATOM     12  H   UNL     1      -7.761   4.414 119.817  0.00  0.00    +0.000 HD
ENDBRANCH   1   2
BRANCH   1  13
ATOM     13  C   UNL     1      -8.463  -0.749 124.870  0.00  0.00    +0.000 A 
ATOM     14  C   UNL     1      -8.594  -1.745 125.842  0.00  0.00    +0.000 A 
ATOM     15  C   UNL     1      -8.894  -3.048 125.440  0.00  0.00    +0.000 A 
ATOM     16  C   UNL     1      -9.154  -3.342 124.097  0.00  0.00    +0.000 A 
ATOM     17  C   UNL     1      -9.102  -2.341 123.138  0.00  0.00    +0.000 A 
ATOM     18  C   UNL     1      -8.776  -1.055 123.527  0.00  0.00    +0.000 A 
ENDBRANCH   1  13
BRANCH   1  19
ATOM     19  C   UNL     1      -8.302   1.263 126.416  0.00  0.00    +0.000 C 
ATOM     20  O   UNL     1      -9.508   1.323 126.670  0.00  0.00    +0.000 OA
ATOM     21  N   UNL     1      -7.424   1.721 127.377  0.00  0.00    +0.000 N 
ATOM     22  H   UNL     1      -6.443   1.475 127.341  0.00  0.00    +0.000 HD
BRANCH  21  23
ATOM     23  CA  UNL     1      -8.022   2.387 128.586  0.00  0.00    +0.000 C 
ATOM     24  C   UNL     1      -8.051   3.951 128.579  0.00  0.00    +0.000 C 
ATOM     25  O   UNL     1      -8.322   4.835 127.787  0.00  0.00    +0.000 OA
ATOM     26  N   UNL     1      -7.386   4.018 129.779  0.00  0.00    +0.000 N 
ATOM     27  CA  UNL     1      -6.239   4.933 129.949  0.00  0.00    +0.000 C 
ATOM     28  C   UNL     1      -5.068   4.062 130.460  0.00  0.00    +0.000 C 
ATOM     29  C   UNL     1      -3.707   4.583 129.997  0.00  0.00    +0.000 C 
ATOM     30  C   UNL     1      -5.089   3.749 131.967  0.00  0.00    +0.000 C 
ATOM     31  S   UNL     1      -5.327   2.417 129.608  0.00  0.00    +0.000 S 
ATOM     32  C   UNL     1      -7.134   2.568 129.821  0.00  0.00    +0.000 C 
BRANCH  27  33
ATOM     33  C   UNL     1      -6.663   6.197 130.737  0.00  0.00    +0.000 C 
ATOM     34  OXT UNL     1      -7.605   6.204 131.521  0.00  0.00    +0.000 OA
BRANCH  33  35
ATOM     35  O   UNL     1      -5.990   7.348 130.545  0.00  0.00    +0.000 OA
ATOM     36  H   UNL     1      -6.196   8.141 131.060  0.00  0.00    +0.000 HD
ENDBRANCH  33  35
ENDBRANCH  27  33
ENDBRANCH  21  23
ENDBRANCH   1  19
TORSDOF 6
ENDMDL
MODEL 6
REMARK VINA RESULT:      -8.3      3.756      9.220
REMARK  Name = Azlocillin
REMARK  8 active torsions:
REMARK  status: ('A' for Active; 'I' for Inactive)
REMARK    1  A    between atoms: CA_2  and  N_3
REMARK    2  A    between atoms: CA_2  and  C_12
REMARK    3  A    between atoms: CA_2  and  C_29
REMARK    4  A    between atoms: N_14  and  CA_15
REMARK    5  A    between atoms: CA_19  and  C_20
REMARK    6  A    between atoms: C_20  and  O_21
REMARK    7  A    between atoms: C_23  and  C_24
REMARK    8  A    between atoms: C_23  and  C_25
REMARK                            x       y       z     vdW  Elec       q    Type
REMARK                         _______ _______ _______ _____ _____    ______ ____
ROOT
ATOM      1  CA  UNL     1      -7.668   2.732 123.801  0.00  0.00    +0.000 C 
ENDROOT
BRANCH   1   2
ATOM      2  N   UNL     1      -6.983   1.427 124.014  0.00  0.00    +0.000 N 
ATOM      3  C   UNL     1      -7.477   0.183 123.655  0.00  0.00    +0.000 C 
ATOM      4  O   UNL     1      -8.597  -0.086 123.241  0.00  0.00    +0.000 OA
ATOM      5  N   UNL     1      -6.550  -0.823 123.677  0.00  0.00    +0.000 N 
ATOM      6  C   UNL     1      -6.691  -1.946 122.762  0.00  0.00    +0.000 C 
ATOM      7  C   UNL     1      -5.425  -2.714 123.065  0.00  0.00    +0.000 C 
ATOM      8  N   UNL     1      -5.289  -2.500 124.482  0.00  0.00    +0.000 N 
ATOM      9  C   UNL     1      -5.919  -1.302 124.837  0.00  0.00    +0.000 C 
ATOM     10  O   UNL     1      -5.835  -0.770 125.931  0.00  0.00    +0.000 OA
ATOM     11  H   UNL     1      -6.025   1.438 124.335  0.00  0.00    +0.000 HD
ATOM     12  H   UNL     1      -4.679  -2.988 125.124  0.00  0.00    +0.000 HD
ENDBRANCH   1   2
BRANCH   1  13
ATOM     13  C   UNL     1      -7.002   3.538 122.696  0.00  0.00    +0.000 A 
ATOM     14  C   UNL     1      -7.483   3.520 121.384  0.00  0.00    +0.000 A 
ATOM     15  C   UNL     1      -6.630   3.906 120.346  0.00  0.00    +0.000 A 
ATOM     16  C   UNL     1      -5.349   4.395 120.617  0.00  0.00    +0.000 A 
ATOM     17  C   UNL     1      -4.895   4.489 121.924  0.00  0.00    +0.000 A 
ATOM     18  C   UNL     1      -5.724   4.080 122.953  0.00  0.00    +0.000 A 
ENDBRANCH   1  13
BRANCH   1  19
ATOM     19  C   UNL     1      -7.831   3.598 125.099  0.00  0.00    +0.000 C 
ATOM     20  O   UNL     1      -8.713   4.447 125.249  0.00  0.00    +0.000 OA
ATOM     21  N   UNL     1      -7.045   3.296 126.193  0.00  0.00    +0.000 N 
ATOM     22  H   UNL     1      -6.486   2.452 126.212  0.00  0.00    +0.000 HD
BRANCH  21  23
ATOM     23  CA  UNL     1      -7.241   4.134 127.426  0.00  0.00    +0.000 C 
ATOM     24  C   UNL     1      -6.115   4.054 128.510  0.00  0.00    +0.000 C 
ATOM     25  O   UNL     1      -4.898   4.056 128.533  0.00  0.00    +0.000 OA
ATOM     26  N   UNL     1      -7.013   3.712 129.490  0.00  0.00    +0.000 N 
ATOM     27  CA  UNL     1      -6.732   2.587 130.404  0.00  0.00    +0.000 C 
ATOM     28  C   UNL     1      -7.954   1.644 130.314  0.00  0.00    +0.000 C 
ATOM     29  C   UNL     1      -7.581   0.178 130.537  0.00  0.00    +0.000 C 
ATOM     30  C   UNL     1      -9.174   2.068 131.152  0.00  0.00    +0.000 C 
ATOM     31  S   UNL     1      -8.503   1.790 128.532  0.00  0.00    +0.000 S 
ATOM     32  C   UNL     1      -8.132   3.577 128.541  0.00  0.00    +0.000 C 
BRANCH  27  33
ATOM     33  C   UNL     1      -6.260   3.110 131.783  0.00  0.00    +0.000 C 
ATOM     34  OXT UNL     1      -5.798   2.374 132.647  0.00  0.00    +0.000 OA
BRANCH  33  35
ATOM     35  O   UNL     1      -6.377   4.422 132.065  0.00  0.00    +0.000 OA
ATOM     36  H   UNL     1      -5.598   4.992 132.131  0.00  0.00    +0.000 HD
ENDBRANCH  33  35
ENDBRANCH  27  33
ENDBRANCH  21  23
ENDBRANCH   1  19
TORSDOF 6
ENDMDL
MODEL 7
REMARK VINA RESULT:      -8.3      4.638      6.552
REMARK  Name = Azlocillin
REMARK  8 active torsions:
REMARK  status: ('A' for Active; 'I' for Inactive)
REMARK    1  A    between atoms: CA_2  and  N_3
REMARK    2  A    between atoms: CA_2  and  C_12
REMARK    3  A    between atoms: CA_2  and  C_29
REMARK    4  A    between atoms: N_14  and  CA_15
REMARK    5  A    between atoms: CA_19  and  C_20
REMARK    6  A    between atoms: C_20  and  O_21
REMARK    7  A    between atoms: C_23  and  C_24
REMARK    8  A    between atoms: C_23  and  C_25
REMARK                            x       y       z     vdW  Elec       q    Type
REMARK                         _______ _______ _______ _____ _____    ______ ____
ROOT
ATOM      1  CA  UNL     1      -8.544   5.623 131.457  0.00  0.00    +0.000 C 
ENDROOT
BRANCH   1   2
ATOM      2  N   UNL     1      -9.370   6.589 130.681  0.00  0.00    +0.000 N 
ATOM      3  C   UNL     1     -10.738   6.504 130.474  0.00  0.00    +0.000 C 
ATOM      4  O   UNL     1     -11.480   5.572 130.756  0.00  0.00    +0.000 OA
ATOM      5  N   UNL     1     -11.312   7.650 129.996  0.00  0.00    +0.000 N 
ATOM      6  C   UNL     1     -12.695   7.953 130.334  0.00  0.00    +0.000 C 
ATOM      7  C   UNL     1     -12.846   9.316 129.698  0.00  0.00    +0.000 C 
ATOM      8  N   UNL     1     -12.042   9.172 128.512  0.00  0.00    +0.000 N 
ATOM      9  C   UNL     1     -11.058   8.201 128.729  0.00  0.00    +0.000 C 
ATOM     10  O   UNL     1     -10.129   7.972 127.973  0.00  0.00    +0.000 OA
ATOM     11  H   UNL     1      -8.938   7.449 130.375  0.00  0.00    +0.000 HD
ATOM     12  H   UNL     1     -12.014   9.784 127.709  0.00  0.00    +0.000 HD
ENDBRANCH   1   2
BRANCH   1  13
ATOM     13  C   UNL     1      -7.194   6.216 131.828  0.00  0.00    +0.000 A 
ATOM     14  C   UNL     1      -6.430   6.937 130.906  0.00  0.00    +0.000 A 
ATOM     15  C   UNL     1      -5.060   7.089 131.133  0.00  0.00    +0.000 A 
ATOM     16  C   UNL     1      -4.473   6.614 132.310  0.00  0.00    +0.000 A 
ATOM     17  C   UNL     1      -5.241   5.967 133.267  0.00  0.00    +0.000 A 
ATOM     18  C   UNL     1      -6.592   5.787 133.032  0.00  0.00    +0.000 A 
ENDBRANCH   1  13
BRANCH   1  19
ATOM     19  C   UNL     1      -8.365   4.225 130.768  0.00  0.00    +0.000 C 
ATOM     20  O   UNL     1      -8.209   4.076 129.553  0.00  0.00    +0.000 OA
ATOM     21  N   UNL     1      -8.225   3.110 131.570  0.00  0.00    +0.000 N 
ATOM     22  H   UNL     1      -8.092   3.205 132.569  0.00  0.00    +0.000 HD
BRANCH  21  23
ATOM     23  CA  UNL     1      -8.037   1.790 130.876  0.00  0.00    +0.000 C 
ATOM     24  C   UNL     1      -8.792   0.565 131.491  0.00  0.00    +0.000 C 
ATOM     25  O   UNL     1      -9.901   0.331 131.934  0.00  0.00    +0.000 OA
ATOM     26  N   UNL     1      -7.630  -0.159 131.600  0.00  0.00    +0.000 N 
ATOM     27  CA  UNL     1      -7.306  -0.870 132.854  0.00  0.00    +0.000 C 
ATOM     28  C   UNL     1      -5.897  -0.386 133.270  0.00  0.00    +0.000 C 
ATOM     29  C   UNL     1      -5.705  -0.379 134.787  0.00  0.00    +0.000 C 
ATOM     30  C   UNL     1      -4.726  -1.067 132.538  0.00  0.00    +0.000 C 
ATOM     31  S   UNL     1      -5.854   1.400 132.717  0.00  0.00    +0.000 S 
ATOM     32  C   UNL     1      -6.780   0.977 131.203  0.00  0.00    +0.000 C 
BRANCH  27  33
ATOM     33  C   UNL     1      -7.592  -2.384 132.712  0.00  0.00    +0.000 C 
ATOM     34  OXT UNL     1      -7.524  -2.973 131.639  0.00  0.00    +0.000 OA
BRANCH  33  35
ATOM     35  O   UNL     1      -7.954  -3.091 133.801  0.00  0.00    +0.000 OA
ATOM     36  H   UNL     1      -7.613  -3.984 133.954  0.00  0.00    +0.000 HD
ENDBRANCH  33  35
ENDBRANCH  27  33
ENDBRANCH  21  23
ENDBRANCH   1  19
TORSDOF 6
ENDMDL
MODEL 8
REMARK VINA RESULT:      -8.3      3.940      8.863
REMARK  Name = Azlocillin
REMARK  8 active torsions:
REMARK  status: ('A' for Active; 'I' for Inactive)
REMARK    1  A    between atoms: CA_2  and  N_3
REMARK    2  A    between atoms: CA_2  and  C_12
REMARK    3  A    between atoms: CA_2  and  C_29
REMARK    4  A    between atoms: N_14  and  CA_15
REMARK    5  A    between atoms: CA_19  and  C_20
REMARK    6  A    between atoms: C_20  and  O_21
REMARK    7  A    between atoms: C_23  and  C_24
REMARK    8  A    between atoms: C_23  and  C_25
REMARK                            x       y       z     vdW  Elec       q    Type
REMARK                         _______ _______ _______ _____ _____    ______ ____
ROOT
ATOM      1  CA  UNL     1      -8.659   2.582 123.947  0.00  0.00    +0.000 C 
ENDROOT
BRANCH   1   2
ATOM      2  N   UNL     1      -8.547   1.149 124.337  0.00  0.00    +0.000 N 
ATOM      3  C   UNL     1      -9.308   0.108 123.830  0.00  0.00    +0.000 C 
ATOM      4  O   UNL     1     -10.285   0.185 123.096  0.00  0.00    +0.000 OA
ATOM      5  N   UNL     1      -8.823  -1.139 124.112  0.00  0.00    +0.000 N 
ATOM      6  C   UNL     1      -9.068  -2.231 123.182  0.00  0.00    +0.000 C 
ATOM      7  C   UNL     1      -8.279  -3.340 123.838  0.00  0.00    +0.000 C 
ATOM      8  N   UNL     1      -8.489  -3.058 125.234  0.00  0.00    +0.000 N 
ATOM      9  C   UNL     1      -8.750  -1.694 125.402  0.00  0.00    +0.000 C 
ATOM     10  O   UNL     1      -8.808  -1.124 126.478  0.00  0.00    +0.000 OA
ATOM     11  H   UNL     1      -7.776   0.875 124.929  0.00  0.00    +0.000 HD
ATOM     12  H   UNL     1      -8.290  -3.660 126.021  0.00  0.00    +0.000 HD
ENDBRANCH   1   2
BRANCH   1  13
ATOM     13  C   UNL     1      -7.960   2.857 122.625  0.00  0.00    +0.000 A 
ATOM     14  C   UNL     1      -6.570   2.981 122.542  0.00  0.00    +0.000 A 
ATOM     15  C   UNL     1      -6.014   3.638 121.442  0.00  0.00    +0.000 A 
ATOM     16  C   UNL     1      -6.821   4.083 120.390  0.00  0.00    +0.000 A 
ATOM     17  C   UNL     1      -8.195   3.893 120.430  0.00  0.00    +0.000 A 
ATOM     18  C   UNL     1      -8.754   3.270 121.532  0.00  0.00    +0.000 A 
ENDBRANCH   1  13
BRANCH   1  19
ATOM     19  C   UNL     1      -8.181   3.592 125.049  0.00  0.00    +0.000 C 
ATOM     20  O   UNL     1      -8.738   4.669 125.277  0.00  0.00    +0.000 OA
ATOM     21  N   UNL     1      -7.180   3.197 125.913  0.00  0.00    +0.000 N 
ATOM     22  H   UNL     1      -6.864   2.235 125.934  0.00  0.00    +0.000 HD
BRANCH  21  23
ATOM     23  CA  UNL     1      -6.760   4.183 126.968  0.00  0.00    +0.000 C 
ATOM     24  C   UNL     1      -5.352   3.958 127.613  0.00  0.00    +0.000 C 
ATOM     25  O   UNL     1      -4.231   3.678 127.231  0.00  0.00    +0.000 OA
ATOM     26  N   UNL     1      -5.880   3.941 128.880  0.00  0.00    +0.000 N 
ATOM     27  CA  UNL     1      -5.495   2.884 129.837  0.00  0.00    +0.000 C 
ATOM     28  C   UNL     1      -6.816   2.248 130.329  0.00  0.00    +0.000 C 
ATOM     29  C   UNL     1      -6.659   0.767 130.678  0.00  0.00    +0.000 C 
ATOM     30  C   UNL     1      -7.551   3.030 131.433  0.00  0.00    +0.000 C 
ATOM     31  S   UNL     1      -7.937   2.329 128.834  0.00  0.00    +0.000 S 
ATOM     32  C   UNL     1      -7.271   3.970 128.397  0.00  0.00    +0.000 C 
BRANCH  27  33
ATOM     33  C   UNL     1      -4.469   3.424 130.862  0.00  0.00    +0.000 C 
ATOM     34  OXT UNL     1      -4.232   4.619 130.994  0.00  0.00    +0.000 OA
BRANCH  33  35
ATOM     35  O   UNL     1      -3.786   2.554 131.631  0.00  0.00    +0.000 OA
ATOM     36  H   UNL     1      -3.173   1.914 131.241  0.00  0.00    +0.000 HD
ENDBRANCH  33  35
ENDBRANCH  27  33
ENDBRANCH  21  23
ENDBRANCH   1  19
TORSDOF 6
ENDMDL
MODEL 9
REMARK VINA RESULT:      -8.2      3.421      8.233
REMARK  Name = Azlocillin
REMARK  8 active torsions:
REMARK  status: ('A' for Active; 'I' for Inactive)
REMARK    1  A    between atoms: CA_2  and  N_3
REMARK    2  A    between atoms: CA_2  and  C_12
REMARK    3  A    between atoms: CA_2  and  C_29
REMARK    4  A    between atoms: N_14  and  CA_15
REMARK    5  A    between atoms: CA_19  and  C_20
REMARK    6  A    between atoms: C_20  and  O_21
REMARK    7  A    between atoms: C_23  and  C_24
REMARK    8  A    between atoms: C_23  and  C_25
REMARK                            x       y       z     vdW  Elec       q    Type
REMARK                         _______ _______ _______ _____ _____    ______ ____
ROOT
ATOM      1  CA  UNL     1      -7.139   0.026 127.995  0.00  0.00    +0.000 C 
ENDROOT
BRANCH   1   2
ATOM      2  N   UNL     1      -7.235   1.061 126.928  0.00  0.00    +0.000 N 
ATOM      3  C   UNL     1      -6.498   2.233 126.866  0.00  0.00    +0.000 C 
ATOM      4  O   UNL     1      -5.756   2.696 127.723  0.00  0.00    +0.000 OA
ATOM      5  N   UNL     1      -6.542   2.867 125.655  0.00  0.00    +0.000 N 
ATOM      6  C   UNL     1      -5.401   3.657 125.218  0.00  0.00    +0.000 C 
ATOM      7  C   UNL     1      -5.850   4.055 123.831  0.00  0.00    +0.000 C 
ATOM      8  N   UNL     1      -7.265   4.237 124.026  0.00  0.00    +0.000 N 
ATOM      9  C   UNL     1      -7.694   3.449 125.100  0.00  0.00    +0.000 C 
ATOM     10  O   UNL     1      -8.860   3.264 125.404  0.00  0.00    +0.000 OA
ATOM     11  H   UNL     1      -7.790   0.853 126.111  0.00  0.00    +0.000 HD
ATOM     12  H   UNL     1      -7.922   4.682 123.400  0.00  0.00    +0.000 HD
ENDBRANCH   1   2
BRANCH   1  13
ATOM     13  C   UNL     1      -7.640  -1.325 127.508  0.00  0.00    +0.000 A 
ATOM     14  C   UNL     1      -8.369  -1.454 126.323  0.00  0.00    +0.000 A 
ATOM     15  C   UNL     1      -9.156  -2.592 126.133  0.00  0.00    +0.000 A 
ATOM     16  C   UNL     1      -9.146  -3.634 127.066  0.00  0.00    +0.000 A 
ATOM     17  C   UNL     1      -8.362  -3.547 128.207  0.00  0.00    +0.000 A 
ATOM     18  C   UNL     1      -7.604  -2.408 128.414  0.00  0.00    +0.000 A 
ENDBRANCH   1  13
BRANCH   1  19
ATOM     19  C   UNL     1      -7.832   0.422 129.346  0.00  0.00    +0.000 C 
ATOM     20  O   UNL     1      -7.768  -0.259 130.372  0.00  0.00    +0.000 OA
ATOM     21  N   UNL     1      -8.420   1.666 129.442  0.00  0.00    +0.000 N 
ATOM     22  H   UNL     1      -8.283   2.362 128.719  0.00  0.00    +0.000 HD
BRANCH  21  23
ATOM     23  CA  UNL     1      -9.059   2.020 130.757  0.00  0.00    +0.000 C 
ATOM     24  C   UNL     1     -10.102   3.186 130.735  0.00  0.00    +0.000 C 
ATOM     25  O   UNL     1     -11.030   3.539 130.032  0.00  0.00    +0.000 OA
ATOM     26  N   UNL     1      -9.427   3.874 131.713  0.00  0.00    +0.000 N 
ATOM     27  CA  UNL     1      -9.151   5.316 131.558  0.00  0.00    +0.000 C 
ATOM     28  C   UNL     1      -7.626   5.484 131.751  0.00  0.00    +0.000 C 
ATOM     29  C   UNL     1      -7.057   6.646 130.934  0.00  0.00    +0.000 C 
ATOM     30  C   UNL     1      -7.147   5.512 133.213  0.00  0.00    +0.000 C 
ATOM     31  S   UNL     1      -6.907   3.918 131.023  0.00  0.00    +0.000 S 
ATOM     32  C   UNL     1      -8.288   2.941 131.708  0.00  0.00    +0.000 C 
BRANCH  27  33
ATOM     33  C   UNL     1     -10.134   6.154 132.412  0.00  0.00    +0.000 C 
ATOM     34  OXT UNL     1     -11.243   6.486 132.010  0.00  0.00    +0.000 OA
BRANCH  33  35
ATOM     35  O   UNL     1      -9.757   6.562 133.640  0.00  0.00    +0.000 OA
ATOM     36  H   UNL     1     -10.348   7.091 134.195  0.00  0.00    +0.000 HD
ENDBRANCH  33  35
ENDBRANCH  27  33
ENDBRANCH  21  23
ENDBRANCH   1  19
TORSDOF 6
ENDMDL
