MODEL 1
REMARK VINA RESULT:      -7.5      0.000      0.000
REMARK  Name = Aztreonam
REMARK  12 active torsions:
REMARK  status: ('A' for Active; 'I' for Inactive)
REMARK    1  A    between atoms: C_1  and  C_2
REMARK    2  A    between atoms: C_3  and  N_4
REMARK    3  A    between atoms: C_5  and  C_7
REMARK    4  A    between atoms: C_7  and  C_16
REMARK    5  A    between atoms: N_8  and  O_9
REMARK    6  A    between atoms: O_9  and  C_10
REMARK    7  A    between atoms: C_10  and  C_11
REMARK    8  A    between atoms: C_10  and  C_12
REMARK    9  A    between atoms: C_10  and  C_13
REMARK   10  A    between atoms: C_13  and  O_15
REMARK   11  A    between atoms: C_19  and  N_20
REMARK   12  A    between atoms: N_24  and  S_25
REMARK                            x       y       z     vdW  Elec       q    Type
REMARK                         _______ _______ _______ _____ _____    ______ ____
ROOT
ATOM      1  C   UNL     1      -8.971   4.841 129.781  0.00  0.00    +0.000 C 
ATOM      2  N   UNL     1     -10.094   5.422 129.434  0.00  0.00    +0.000 NA
ENDROOT
BRANCH   1   3
ATOM      3  C   UNL     1      -8.944   4.089 131.079  0.00  0.00    +0.000 A 
ATOM      4  C   UNL     1      -9.428   4.634 132.263  0.00  0.00    +0.000 A 
ATOM      5  S   UNL     1      -9.220   3.562 133.580  0.00  0.00    +0.000 S 
ATOM      6  C   UNL     1      -8.483   2.455 132.528  0.00  0.00    +0.000 A 
ATOM      7  N   UNL     1      -8.414   2.778 131.259  0.00  0.00    +0.000 NA
BRANCH   6   8
ATOM      8  N   UNL     1      -8.001   1.222 133.026  0.00  0.00    +0.000 NA
ATOM      9  H   UNL     1      -7.975   1.215 134.050  0.00  0.00    +0.000 HD
ATOM     10  H   UNL     1      -8.514   0.429 132.634  0.00  0.00    +0.000 HD
ATOM     11  H   UNL     1      -7.032   1.082 132.716  0.00  0.00    +0.000 HD
ENDBRANCH   6   8
ENDBRANCH   1   3
BRANCH   1  13
ATOM     12  N   UNL     1      -7.541   4.268 127.753  0.00  0.00    +0.000 N 
ATOM     13  C   UNL     1      -7.648   4.909 128.970  0.00  0.00    +0.000 C 
ATOM     14  O   UNL     1      -6.721   5.542 129.452  0.00  0.00    +0.000 OA
ATOM     15  H   UNL     1      -8.344   3.713 127.460  0.00  0.00    +0.000 HD
BRANCH  12  18
ATOM     16  C   UNL     1      -4.632   2.257 126.223  0.00  0.00    +0.000 C 
ATOM     17  C   UNL     1      -6.066   2.785 126.208  0.00  0.00    +0.000 C 
ATOM     18  C   UNL     1      -6.269   4.138 126.961  0.00  0.00    +0.000 C 
ATOM     19  C   UNL     1      -6.243   4.745 125.484  0.00  0.00    +0.000 C 
ATOM     20  O   UNL     1      -6.135   5.832 124.954  0.00  0.00    +0.000 OA
ATOM     21  N   UNL     1      -6.386   3.478 124.943  0.00  0.00    +0.000 N 
BRANCH  21  22
ATOM     22  S   UNL     1      -7.169   3.029 123.545  0.00  0.00    +0.000 S 
ATOM     23  O   UNL     1      -6.571   3.779 122.448  0.00  0.00    +0.000 OA
ATOM     24  O   UNL     1      -6.959   1.589 123.471  0.00  0.00    +0.000 OA
ATOM     25  O   UNL     1      -8.549   3.422 123.824  0.00  0.00    +0.000 OA
ENDBRANCH  21  22
ENDBRANCH  12  18
ENDBRANCH   1  13
BRANCH   2  26
ATOM     26  O   UNL     1      -9.972   6.158 128.233  0.00  0.00    +0.000 OA
BRANCH  26  27
ATOM     27  C   UNL     1     -10.930   7.231 128.084  0.00  0.00    +0.000 C 
ATOM     28  C   UNL     1     -12.195   6.906 128.864  0.00  0.00    +0.000 C 
ATOM     29  C   UNL     1     -10.306   8.554 128.513  0.00  0.00    +0.000 C 
BRANCH  27  30
ATOM     30  C   UNL     1     -11.245   7.277 126.570  0.00  0.00    +0.000 C 
ATOM     31  O   UNL     1     -10.625   7.983 125.779  0.00  0.00    +0.000 OA
BRANCH  30  32
ATOM     32  O   UNL     1     -12.262   6.489 126.145  0.00  0.00    +0.000 OA
ATOM     33  H   UNL     1     -12.537   6.547 125.210  0.00  0.00    +0.000 HD
ENDBRANCH  30  32
ENDBRANCH  27  30
ENDBRANCH  26  27
ENDBRANCH   2  26
TORSDOF 9
ENDMDL
MODEL 2
REMARK VINA RESULT:      -7.4      3.317      7.415
REMARK  Name = Aztreonam
REMARK  12 active torsions:
REMARK  status: ('A' for Active; 'I' for Inactive)
REMARK    1  A    between atoms: C_1  and  C_2
REMARK    2  A    between atoms: C_3  and  N_4
REMARK    3  A    between atoms: C_5  and  C_7
REMARK    4  A    between atoms: C_7  and  C_16
REMARK    5  A    between atoms: N_8  and  O_9
REMARK    6  A    between atoms: O_9  and  C_10
REMARK    7  A    between atoms: C_10  and  C_11
REMARK    8  A    between atoms: C_10  and  C_12
REMARK    9  A    between atoms: C_10  and  C_13
REMARK   10  A    between atoms: C_13  and  O_15
REMARK   11  A    between atoms: C_19  and  N_20
REMARK   12  A    between atoms: N_24  and  S_25
REMARK                            x       y       z     vdW  Elec       q    Type
REMARK                         _______ _______ _______ _____ _____    ______ ____
ROOT
ATOM      1  C   UNL     1      -6.754   4.020 126.966  0.00  0.00    +0.000 C 
ATOM      2  N   UNL     1      -5.664   4.737 126.840  0.00  0.00    +0.000 NA
ENDROOT
BRANCH   1   3
ATOM      3  C   UNL     1      -7.358   3.438 125.722  0.00  0.00    +0.000 A 
ATOM      4  C   UNL     1      -6.688   3.434 124.503  0.00  0.00    +0.000 A 
ATOM      5  S   UNL     1      -7.644   2.749 123.262  0.00  0.00    +0.000 S 
ATOM      6  C   UNL     1      -8.892   2.520 124.386  0.00  0.00    +0.000 A 
ATOM      7  N   UNL     1      -8.658   2.861 125.630  0.00  0.00    +0.000 NA
BRANCH   6   8
ATOM      8  N   UNL     1     -10.119   1.950 123.973  0.00  0.00    +0.000 NA
ATOM      9  H   UNL     1     -10.211   1.955 122.952  0.00  0.00    +0.000 HD
ATOM     10  H   UNL     1     -10.262   1.023 124.381  0.00  0.00    +0.000 HD
ATOM     11  H   UNL     1     -10.899   2.514 124.331  0.00  0.00    +0.000 HD
ENDBRANCH   6   8
ENDBRANCH   1   3
BRANCH   1  13
ATOM     12  N   UNL     1      -8.255   4.755 128.889  0.00  0.00    +0.000 N 
ATOM     13  C   UNL     1      -7.497   3.760 128.306  0.00  0.00    +0.000 C 
ATOM     14  O   UNL     1      -7.377   2.656 128.814  0.00  0.00    +0.000 OA
ATOM     15  H   UNL     1      -8.246   5.663 128.426  0.00  0.00    +0.000 HD
BRANCH  12  18
ATOM     16  C   UNL     1      -9.002   6.087 132.426  0.00  0.00    +0.000 C 
ATOM     17  C   UNL     1      -9.262   6.026 130.921  0.00  0.00    +0.000 C 
ATOM     18  C   UNL     1      -8.885   4.666 130.251  0.00  0.00    +0.000 C 
ATOM     19  C   UNL     1     -10.460   4.408 130.331  0.00  0.00    +0.000 C 
ATOM     20  O   UNL     1     -11.231   3.477 130.218  0.00  0.00    +0.000 OA
ATOM     21  N   UNL     1     -10.681   5.745 130.617  0.00  0.00    +0.000 N 
BRANCH  21  22
ATOM     22  S   UNL     1     -11.983   6.694 130.201  0.00  0.00    +0.000 S 
ATOM     23  O   UNL     1     -12.635   6.066 129.058  0.00  0.00    +0.000 OA
ATOM     24  O   UNL     1     -12.795   6.727 131.410  0.00  0.00    +0.000 OA
ATOM     25  O   UNL     1     -11.345   7.967 129.869  0.00  0.00    +0.000 OA
ENDBRANCH  21  22
ENDBRANCH  12  18
ENDBRANCH   1  13
BRANCH   2  26
ATOM     26  O   UNL     1      -5.236   5.289 128.069  0.00  0.00    +0.000 OA
BRANCH  26  27
ATOM     27  C   UNL     1      -3.814   5.181 128.315  0.00  0.00    +0.000 C 
ATOM     28  C   UNL     1      -3.573   4.546 129.677  0.00  0.00    +0.000 C 
ATOM     29  C   UNL     1      -3.143   4.408 127.186  0.00  0.00    +0.000 C 
BRANCH  27  30
ATOM     30  C   UNL     1      -3.299   6.639 128.318  0.00  0.00    +0.000 C 
ATOM     31  O   UNL     1      -2.133   6.937 128.073  0.00  0.00    +0.000 OA
BRANCH  30  32
ATOM     32  O   UNL     1      -4.210   7.597 128.614  0.00  0.00    +0.000 OA
ATOM     33  H   UNL     1      -4.067   8.147 129.408  0.00  0.00    +0.000 HD
ENDBRANCH  30  32
ENDBRANCH  27  30
ENDBRANCH  26  27
ENDBRANCH   2  26
TORSDOF 9
ENDMDL
MODEL 3
REMARK VINA RESULT:      -7.2      4.411      7.945
REMARK  Name = Aztreonam
REMARK  12 active torsions:
REMARK  status: ('A' for Active; 'I' for Inactive)
REMARK    1  A    between atoms: C_1  and  C_2
REMARK    2  A    between atoms: C_3  and  N_4
REMARK    3  A    between atoms: C_5  and  C_7
REMARK    4  A    between atoms: C_7  and  C_16
REMARK    5  A    between atoms: N_8  and  O_9
REMARK    6  A    between atoms: O_9  and  C_10
REMARK    7  A    between atoms: C_10  and  C_11
REMARK    8  A    between atoms: C_10  and  C_12
REMARK    9  A    between atoms: C_10  and  C_13
REMARK   10  A    between atoms: C_13  and  O_15
REMARK   11  A    between atoms: C_19  and  N_20
REMARK   12  A    between atoms: N_24  and  S_25
REMARK                            x       y       z     vdW  Elec       q    Type
REMARK                         _______ _______ _______ _____ _____    ______ ____
ROOT
ATOM      1  C   UNL     1      -7.858   2.768 123.185  0.00  0.00    +0.000 C 
ATOM      2  N   UNL     1      -7.548   3.607 124.144  0.00  0.00    +0.000 NA
ENDROOT
BRANCH   1   3
ATOM      3  C   UNL     1      -7.896   3.292 121.780  0.00  0.00    +0.000 A 
ATOM      4  C   UNL     1      -6.749   3.710 121.113  0.00  0.00    +0.000 A 
ATOM      5  S   UNL     1      -7.111   4.298 119.549  0.00  0.00    +0.000 S 
ATOM      6  C   UNL     1      -8.753   3.997 119.844  0.00  0.00    +0.000 A 
ATOM      7  N   UNL     1      -9.072   3.446 120.990  0.00  0.00    +0.000 NA
BRANCH   6   8
ATOM      8  N   UNL     1      -9.717   4.309 118.856  0.00  0.00    +0.000 NA
ATOM      9  H   UNL     1      -9.555   5.237 118.454  0.00  0.00    +0.000 HD
ATOM     10  H   UNL     1      -9.785   3.574 118.149  0.00  0.00    +0.000 HD
ATOM     11  H   UNL     1     -10.649   4.343 119.285  0.00  0.00    +0.000 HD
ENDBRANCH   6   8
ENDBRANCH   1   3
BRANCH   1  13
ATOM     12  N   UNL     1      -7.294   0.379 123.868  0.00  0.00    +0.000 N 
ATOM     13  C   UNL     1      -8.233   1.275 123.399  0.00  0.00    +0.000 C 
ATOM     14  O   UNL     1      -9.376   0.936 123.132  0.00  0.00    +0.000 OA
ATOM     15  H   UNL     1      -6.351   0.739 124.003  0.00  0.00    +0.000 HD
BRANCH  12  18
ATOM     16  C   UNL     1      -6.048  -3.257 124.132  0.00  0.00    +0.000 C 
ATOM     17  C   UNL     1      -6.405  -1.902 124.743  0.00  0.00    +0.000 C 
ATOM     18  C   UNL     1      -7.502  -1.107 123.964  0.00  0.00    +0.000 C 
ATOM     19  C   UNL     1      -8.453  -1.656 125.124  0.00  0.00    +0.000 C 
ATOM     20  O   UNL     1      -9.642  -1.756 125.348  0.00  0.00    +0.000 OA
ATOM     21  N   UNL     1      -7.350  -2.037 125.871  0.00  0.00    +0.000 N 
BRANCH  21  22
ATOM     22  S   UNL     1      -7.177  -2.068 127.525  0.00  0.00    +0.000 S 
ATOM     23  O   UNL     1      -7.563  -0.756 128.030  0.00  0.00    +0.000 OA
ATOM     24  O   UNL     1      -8.050  -3.154 127.950  0.00  0.00    +0.000 OA
ATOM     25  O   UNL     1      -5.750  -2.345 127.682  0.00  0.00    +0.000 OA
ENDBRANCH  21  22
ENDBRANCH  12  18
ENDBRANCH   1  13
BRANCH   2  26
ATOM     26  O   UNL     1      -7.619   3.014 125.425  0.00  0.00    +0.000 OA
BRANCH  26  27
ATOM     27  C   UNL     1      -7.047   3.808 126.490  0.00  0.00    +0.000 C 
ATOM     28  C   UNL     1      -6.663   2.909 127.655  0.00  0.00    +0.000 C 
ATOM     29  C   UNL     1      -5.865   4.615 125.965  0.00  0.00    +0.000 C 
BRANCH  27  30
ATOM     30  C   UNL     1      -8.178   4.771 126.920  0.00  0.00    +0.000 C 
ATOM     31  O   UNL     1      -8.529   4.912 128.088  0.00  0.00    +0.000 OA
BRANCH  30  32
ATOM     32  O   UNL     1      -8.785   5.465 125.927  0.00  0.00    +0.000 OA
ATOM     33  H   UNL     1      -9.210   4.968 125.203  0.00  0.00    +0.000 HD
ENDBRANCH  30  32
ENDBRANCH  27  30
ENDBRANCH  26  27
ENDBRANCH   2  26
TORSDOF 9
ENDMDL
MODEL 4
REMARK VINA RESULT:      -7.0      5.084      8.723
REMARK  Name = Aztreonam
REMARK  12 active torsions:
REMARK  status: ('A' for Active; 'I' for Inactive)
REMARK    1  A    between atoms: C_1  and  C_2
REMARK    2  A    between atoms: C_3  and  N_4
REMARK    3  A    between atoms: C_5  and  C_7
REMARK    4  A    between atoms: C_7  and  C_16
REMARK    5  A    between atoms: N_8  and  O_9
REMARK    6  A    between atoms: O_9  and  C_10
REMARK    7  A    between atoms: C_10  and  C_11
REMARK    8  A    between atoms: C_10  and  C_12
REMARK    9  A    between atoms: C_10  and  C_13
REMARK   10  A    between atoms: C_13  and  O_15
REMARK   11  A    between atoms: C_19  and  N_20
REMARK   12  A    between atoms: N_24  and  S_25
REMARK                            x       y       z     vdW  Elec       q    Type
REMARK                         _______ _______ _______ _____ _____    ______ ____
ROOT
ATOM      1  C   UNL     1      -8.494   0.670 124.937  0.00  0.00    +0.000 C 
ATOM      2  N   UNL     1      -8.965  -0.482 124.522  0.00  0.00    +0.000 NA
ENDROOT
BRANCH   1   3
ATOM      3  C   UNL     1      -8.071   1.668 123.900  0.00  0.00    +0.000 A 
ATOM      4  C   UNL     1      -6.775   2.169 123.838  0.00  0.00    +0.000 A 
ATOM      5  S   UNL     1      -6.605   3.320 122.586  0.00  0.00    +0.000 S 
ATOM      6  C   UNL     1      -8.246   3.118 122.213  0.00  0.00    +0.000 A 
ATOM      7  N   UNL     1      -8.919   2.229 122.902  0.00  0.00    +0.000 NA
BRANCH   6   8
ATOM      8  N   UNL     1      -8.832   3.872 121.169  0.00  0.00    +0.000 NA
ATOM      9  H   UNL     1      -8.300   3.783 120.298  0.00  0.00    +0.000 HD
ATOM     10  H   UNL     1      -9.824   3.653 121.054  0.00  0.00    +0.000 HD
ATOM     11  H   UNL     1      -8.813   4.869 121.413  0.00  0.00    +0.000 HD
ENDBRANCH   6   8
ENDBRANCH   1   3
BRANCH   1  13
ATOM     12  N   UNL     1      -7.278   0.510 127.170  0.00  0.00    +0.000 N 
ATOM     13  C   UNL     1      -8.300   1.065 126.427  0.00  0.00    +0.000 C 
ATOM     14  O   UNL     1      -9.082   1.873 126.905  0.00  0.00    +0.000 OA
ATOM     15  H   UNL     1      -6.714  -0.201 126.706  0.00  0.00    +0.000 HD
BRANCH  12  18
ATOM     16  C   UNL     1      -8.437   0.285 130.838  0.00  0.00    +0.000 C 
ATOM     17  C   UNL     1      -7.835  -0.321 129.570  0.00  0.00    +0.000 C 
ATOM     18  C   UNL     1      -7.093   0.701 128.650  0.00  0.00    +0.000 C 
ATOM     19  C   UNL     1      -5.790   0.074 129.328  0.00  0.00    +0.000 C 
ATOM     20  O   UNL     1      -4.608   0.333 129.428  0.00  0.00    +0.000 OA
ATOM     21  N   UNL     1      -6.538  -0.977 129.833  0.00  0.00    +0.000 N 
BRANCH  21  22
ATOM     22  S   UNL     1      -6.071  -2.553 130.092  0.00  0.00    +0.000 S 
ATOM     23  O   UNL     1      -7.272  -3.322 130.394  0.00  0.00    +0.000 OA
ATOM     24  O   UNL     1      -5.412  -2.934 128.850  0.00  0.00    +0.000 OA
ATOM     25  O   UNL     1      -5.170  -2.424 131.237  0.00  0.00    +0.000 OA
ENDBRANCH  21  22
ENDBRANCH  12  18
ENDBRANCH   1  13
BRANCH   2  26
ATOM     26  O   UNL     1      -9.259  -1.360 125.590  0.00  0.00    +0.000 OA
BRANCH  26  27
ATOM     27  C   UNL     1      -8.806  -2.720 125.393  0.00  0.00    +0.000 C 
ATOM     28  C   UNL     1      -9.127  -3.554 126.624  0.00  0.00    +0.000 C 
ATOM     29  C   UNL     1      -9.420  -3.298 124.123  0.00  0.00    +0.000 C 
BRANCH  27  30
ATOM     30  C   UNL     1      -7.274  -2.608 125.220  0.00  0.00    +0.000 C 
ATOM     31  O   UNL     1      -6.685  -2.981 124.208  0.00  0.00    +0.000 OA
BRANCH  30  32
ATOM     32  O   UNL     1      -6.590  -2.074 126.260  0.00  0.00    +0.000 OA
ATOM     33  H   UNL     1      -6.193  -1.189 126.152  0.00  0.00    +0.000 HD
ENDBRANCH  30  32
ENDBRANCH  27  30
ENDBRANCH  26  27
ENDBRANCH   2  26
TORSDOF 9
ENDMDL
MODEL 5
REMARK VINA RESULT:      -6.9      2.004      2.528
REMARK  Name = Aztreonam
REMARK  12 active torsions:
REMARK  status: ('A' for Active; 'I' for Inactive)
REMARK    1  A    between atoms: C_1  and  C_2
REMARK    2  A    between atoms: C_3  and  N_4
REMARK    3  A    between atoms: C_5  and  C_7
REMARK    4  A    between atoms: C_7  and  C_16
REMARK    5  A    between atoms: N_8  and  O_9
REMARK    6  A    between atoms: O_9  and  C_10
REMARK    7  A    between atoms: C_10  and  C_11
REMARK    8  A    between atoms: C_10  and  C_12
REMARK    9  A    between atoms: C_10  and  C_13
REMARK   10  A    between atoms: C_13  and  O_15
REMARK   11  A    between atoms: C_19  and  N_20
REMARK   12  A    between atoms: N_24  and  S_25
REMARK                            x       y       z     vdW  Elec       q    Type
REMARK                         _______ _______ _______ _____ _____    ______ ____
ROOT
ATOM      1  C   UNL     1      -9.542   4.386 130.485  0.00  0.00    +0.000 C 
ATOM      2  N   UNL     1     -10.727   4.933 130.611  0.00  0.00    +0.000 NA
ENDROOT
BRANCH   1   3
ATOM      3  C   UNL     1      -8.894   3.825 131.717  0.00  0.00    +0.000 A 
ATOM      4  C   UNL     1      -8.672   4.594 132.854  0.00  0.00    +0.000 A 
ATOM      5  S   UNL     1      -7.878   3.697 134.074  0.00  0.00    +0.000 S 
ATOM      6  C   UNL     1      -7.846   2.360 133.033  0.00  0.00    +0.000 A 
ATOM      7  N   UNL     1      -8.419   2.490 131.861  0.00  0.00    +0.000 NA
BRANCH   6   8
ATOM      8  N   UNL     1      -7.245   1.150 133.455  0.00  0.00    +0.000 NA
ATOM      9  H   UNL     1      -7.604   0.348 132.928  0.00  0.00    +0.000 HD
ATOM     10  H   UNL     1      -6.224   1.211 133.443  0.00  0.00    +0.000 HD
ATOM     11  H   UNL     1      -7.483   0.973 134.438  0.00  0.00    +0.000 HD
ENDBRANCH   6   8
ENDBRANCH   1   3
BRANCH   1  13
ATOM     12  N   UNL     1      -8.483   3.095 128.561  0.00  0.00    +0.000 N 
ATOM     13  C   UNL     1      -8.733   4.313 129.160  0.00  0.00    +0.000 C 
ATOM     14  O   UNL     1      -8.333   5.364 128.683  0.00  0.00    +0.000 OA
ATOM     15  H   UNL     1      -8.802   2.268 129.063  0.00  0.00    +0.000 HD
BRANCH  12  18
ATOM     16  C   UNL     1      -5.805   1.185 126.555  0.00  0.00    +0.000 C 
ATOM     17  C   UNL     1      -7.245   1.413 127.013  0.00  0.00    +0.000 C 
ATOM     18  C   UNL     1      -7.587   2.895 127.370  0.00  0.00    +0.000 C 
ATOM     19  C   UNL     1      -8.260   2.888 125.921  0.00  0.00    +0.000 C 
ATOM     20  O   UNL     1      -8.684   3.692 125.117  0.00  0.00    +0.000 OA
ATOM     21  N   UNL     1      -8.178   1.506 125.871  0.00  0.00    +0.000 N 
BRANCH  21  22
ATOM     22  S   UNL     1      -9.212   0.432 125.133  0.00  0.00    +0.000 S 
ATOM     23  O   UNL     1     -10.572   0.909 125.355  0.00  0.00    +0.000 OA
ATOM     24  O   UNL     1      -8.794   0.443 123.737  0.00  0.00    +0.000 OA
ATOM     25  O   UNL     1      -8.919  -0.814 125.839  0.00  0.00    +0.000 OA
ENDBRANCH  21  22
ENDBRANCH  12  18
ENDBRANCH   1  13
BRANCH   2  26
ATOM     26  O   UNL     1     -11.196   5.488 129.399  0.00  0.00    +0.000 OA
BRANCH  26  27
ATOM     27  C   UNL     1     -11.892   6.748 129.543  0.00  0.00    +0.000 C 
ATOM     28  C   UNL     1     -13.141   6.750 128.674  0.00  0.00    +0.000 C 
ATOM     29  C   UNL     1     -12.206   7.009 131.011  0.00  0.00    +0.000 C 
BRANCH  27  30
ATOM     30  C   UNL     1     -10.895   7.814 129.032  0.00  0.00    +0.000 C 
ATOM     31  O   UNL     1     -11.194   8.664 128.197  0.00  0.00    +0.000 OA
BRANCH  30  32
ATOM     32  O   UNL     1      -9.645   7.764 129.551  0.00  0.00    +0.000 OA
ATOM     33  H   UNL     1      -9.087   8.564 129.501  0.00  0.00    +0.000 HD
ENDBRANCH  30  32
ENDBRANCH  27  30
ENDBRANCH  26  27
ENDBRANCH   2  26
TORSDOF 9
ENDMDL
MODEL 6
REMARK VINA RESULT:      -6.9      2.847      7.751
REMARK  Name = Aztreonam
REMARK  12 active torsions:
REMARK  status: ('A' for Active; 'I' for Inactive)
REMARK    1  A    between atoms: C_1  and  C_2
REMARK    2  A    between atoms: C_3  and  N_4
REMARK    3  A    between atoms: C_5  and  C_7
REMARK    4  A    between atoms: C_7  and  C_16
REMARK    5  A    between atoms: N_8  and  O_9
REMARK    6  A    between atoms: O_9  and  C_10
REMARK    7  A    between atoms: C_10  and  C_11
REMARK    8  A    between atoms: C_10  and  C_12
REMARK    9  A    between atoms: C_10  and  C_13
REMARK   10  A    between atoms: C_13  and  O_15
REMARK   11  A    between atoms: C_19  and  N_20
REMARK   12  A    between atoms: N_24  and  S_25
REMARK                            x       y       z     vdW  Elec       q    Type
REMARK                         _______ _______ _______ _____ _____    ______ ____
ROOT
ATOM      1  C   UNL     1      -6.167   4.506 126.518  0.00  0.00    +0.000 C 
ATOM      2  N   UNL     1      -5.027   4.984 126.956  0.00  0.00    +0.000 NA
ENDROOT
BRANCH   1   3
ATOM      3  C   UNL     1      -6.233   4.045 125.092  0.00  0.00    +0.000 A 
ATOM      4  C   UNL     1      -6.764   2.810 124.735  0.00  0.00    +0.000 A 
ATOM      5  S   UNL     1      -6.660   2.544 123.049  0.00  0.00    +0.000 S 
ATOM      6  C   UNL     1      -5.900   4.051 122.886  0.00  0.00    +0.000 A 
ATOM      7  N   UNL     1      -5.752   4.776 123.967  0.00  0.00    +0.000 NA
BRANCH   6   8
ATOM      8  N   UNL     1      -5.482   4.496 121.609  0.00  0.00    +0.000 NA
ATOM      9  H   UNL     1      -5.621   5.505 121.499  0.00  0.00    +0.000 HD
ATOM     10  H   UNL     1      -4.525   4.200 121.400  0.00  0.00    +0.000 HD
ATOM     11  H   UNL     1      -6.056   4.050 120.884  0.00  0.00    +0.000 HD
ENDBRANCH   6   8
ENDBRANCH   1   3
BRANCH   1  13
ATOM     12  N   UNL     1      -7.475   3.801 128.587  0.00  0.00    +0.000 N 
ATOM     13  C   UNL     1      -7.474   4.421 127.354  0.00  0.00    +0.000 C 
ATOM     14  O   UNL     1      -8.484   4.915 126.877  0.00  0.00    +0.000 OA
ATOM     15  H   UNL     1      -6.602   3.363 128.876  0.00  0.00    +0.000 HD
BRANCH  12  18
ATOM     16  C   UNL     1      -9.351   2.186 131.540  0.00  0.00    +0.000 C 
ATOM     17  C   UNL     1      -8.471   3.277 130.931  0.00  0.00    +0.000 C 
ATOM     18  C   UNL     1      -8.706   3.526 129.407  0.00  0.00    +0.000 C 
ATOM     19  C   UNL     1      -9.547   4.778 129.935  0.00  0.00    +0.000 C 
ATOM     20  O   UNL     1     -10.352   5.575 129.501  0.00  0.00    +0.000 OA
ATOM     21  N   UNL     1      -9.003   4.629 131.201  0.00  0.00    +0.000 N 
BRANCH  21  22
ATOM     22  S   UNL     1      -8.654   5.805 132.325  0.00  0.00    +0.000 S 
ATOM     23  O   UNL     1      -9.910   6.453 132.686  0.00  0.00    +0.000 OA
ATOM     24  O   UNL     1      -8.022   5.074 133.415  0.00  0.00    +0.000 OA
ATOM     25  O   UNL     1      -7.750   6.683 131.584  0.00  0.00    +0.000 OA
ENDBRANCH  21  22
ENDBRANCH  12  18
ENDBRANCH   1  13
BRANCH   2  26
ATOM     26  O   UNL     1      -5.113   5.451 128.287  0.00  0.00    +0.000 OA
BRANCH  26  27
ATOM     27  C   UNL     1      -3.914   5.259 129.072  0.00  0.00    +0.000 C 
ATOM     28  C   UNL     1      -3.945   6.166 130.293  0.00  0.00    +0.000 C 
ATOM     29  C   UNL     1      -3.762   3.789 129.444  0.00  0.00    +0.000 C 
BRANCH  27  30
ATOM     30  C   UNL     1      -2.755   5.677 128.137  0.00  0.00    +0.000 C 
ATOM     31  O   UNL     1      -2.370   6.838 128.027  0.00  0.00    +0.000 OA
BRANCH  30  32
ATOM     32  O   UNL     1      -2.172   4.684 127.423  0.00  0.00    +0.000 OA
ATOM     33  H   UNL     1      -1.393   4.234 127.800  0.00  0.00    +0.000 HD
ENDBRANCH  30  32
ENDBRANCH  27  30
ENDBRANCH  26  27
ENDBRANCH   2  26
TORSDOF 9
ENDMDL
MODEL 7
REMARK VINA RESULT:      -6.9      3.063      6.847
REMARK  Name = Aztreonam
REMARK  12 active torsions:
REMARK  status: ('A' for Active; 'I' for Inactive)
REMARK    1  A    between atoms: C_1  and  C_2
REMARK    2  A    between atoms: C_3  and  N_4
REMARK    3  A    between atoms: C_5  and  C_7
REMARK    4  A    between atoms: C_7  and  C_16
REMARK    5  A    between atoms: N_8  and  O_9
REMARK    6  A    between atoms: O_9  and  C_10
REMARK    7  A    between atoms: C_10  and  C_11
REMARK    8  A    between atoms: C_10  and  C_12
REMARK    9  A    between atoms: C_10  and  C_13
REMARK   10  A    between atoms: C_13  and  O_15
REMARK   11  A    between atoms: C_19  and  N_20
REMARK   12  A    between atoms: N_24  and  S_25
REMARK                            x       y       z     vdW  Elec       q    Type
REMARK                         _______ _______ _______ _____ _____    ______ ____
ROOT
ATOM      1  C   UNL     1      -6.112   2.812 127.258  0.00  0.00    +0.000 C 
ATOM      2  N   UNL     1      -6.605   2.196 126.210  0.00  0.00    +0.000 NA
ENDROOT
BRANCH   1   3
ATOM      3  C   UNL     1      -4.700   3.313 127.177  0.00  0.00    +0.000 A 
ATOM      4  C   UNL     1      -3.688   2.581 126.565  0.00  0.00    +0.000 A 
ATOM      5  S   UNL     1      -2.181   3.384 126.670  0.00  0.00    +0.000 S 
ATOM      6  C   UNL     1      -2.936   4.631 127.535  0.00  0.00    +0.000 A 
ATOM      7  N   UNL     1      -4.231   4.543 127.720  0.00  0.00    +0.000 NA
BRANCH   6   8
ATOM      8  N   UNL     1      -2.175   5.731 127.998  0.00  0.00    +0.000 NA
ATOM      9  H   UNL     1      -1.882   5.602 128.971  0.00  0.00    +0.000 HD
ATOM     10  H   UNL     1      -1.395   5.942 127.371  0.00  0.00    +0.000 HD
ATOM     11  H   UNL     1      -2.754   6.579 127.986  0.00  0.00    +0.000 HD
ENDBRANCH   6   8
ENDBRANCH   1   3
BRANCH   1  13
ATOM     12  N   UNL     1      -7.796   4.040 128.723  0.00  0.00    +0.000 N 
ATOM     13  C   UNL     1      -6.868   3.026 128.599  0.00  0.00    +0.000 C 
ATOM     14  O   UNL     1      -6.604   2.273 129.523  0.00  0.00    +0.000 OA
ATOM     15  H   UNL     1      -7.904   4.658 127.920  0.00  0.00    +0.000 HD
BRANCH  12  18
ATOM     16  C   UNL     1      -8.223   6.266 131.839  0.00  0.00    +0.000 C 
ATOM     17  C   UNL     1      -8.441   5.956 130.359  0.00  0.00    +0.000 C 
ATOM     18  C   UNL     1      -8.467   4.433 130.010  0.00  0.00    +0.000 C 
ATOM     19  C   UNL     1     -10.048   4.661 129.989  0.00  0.00    +0.000 C 
ATOM     20  O   UNL     1     -11.059   3.989 129.991  0.00  0.00    +0.000 OA
ATOM     21  N   UNL     1      -9.867   6.034 129.982  0.00  0.00    +0.000 N 
BRANCH  21  22
ATOM     22  S   UNL     1     -10.811   7.201 129.265  0.00  0.00    +0.000 S 
ATOM     23  O   UNL     1      -9.924   8.270 128.821  0.00  0.00    +0.000 OA
ATOM     24  O   UNL     1     -11.484   6.494 128.183  0.00  0.00    +0.000 OA
ATOM     25  O   UNL     1     -11.691   7.605 130.360  0.00  0.00    +0.000 OA
ENDBRANCH  21  22
ENDBRANCH  12  18
ENDBRANCH   1  13
BRANCH   2  26
ATOM     26  O   UNL     1      -7.913   1.709 126.436  0.00  0.00    +0.000 OA
BRANCH  26  27
ATOM     27  C   UNL     1      -8.442   0.888 125.369  0.00  0.00    +0.000 C 
ATOM     28  C   UNL     1      -7.347   0.588 124.357  0.00  0.00    +0.000 C 
ATOM     29  C   UNL     1      -9.066  -0.379 125.944  0.00  0.00    +0.000 C 
BRANCH  27  30
ATOM     30  C   UNL     1      -9.543   1.752 124.711  0.00  0.00    +0.000 C 
ATOM     31  O   UNL     1     -10.557   1.274 124.209  0.00  0.00    +0.000 OA
BRANCH  30  32
ATOM     32  O   UNL     1      -9.334   3.090 124.706  0.00  0.00    +0.000 OA
ATOM     33  H   UNL     1      -9.262   3.554 125.562  0.00  0.00    +0.000 HD
ENDBRANCH  30  32
ENDBRANCH  27  30
ENDBRANCH  26  27
ENDBRANCH   2  26
TORSDOF 9
ENDMDL
MODEL 8
REMARK VINA RESULT:      -6.8      4.972      6.626
REMARK  Name = Aztreonam
REMARK  12 active torsions:
REMARK  status: ('A' for Active; 'I' for Inactive)
REMARK    1  A    between atoms: C_1  and  C_2
REMARK    2  A    between atoms: C_3  and  N_4
REMARK    3  A    between atoms: C_5  and  C_7
REMARK    4  A    between atoms: C_7  and  C_16
REMARK    5  A    between atoms: N_8  and  O_9
REMARK    6  A    between atoms: O_9  and  C_10
REMARK    7  A    between atoms: C_10  and  C_11
REMARK    8  A    between atoms: C_10  and  C_12
REMARK    9  A    between atoms: C_10  and  C_13
REMARK   10  A    between atoms: C_13  and  O_15
REMARK   11  A    between atoms: C_19  and  N_20
REMARK   12  A    between atoms: N_24  and  S_25
REMARK                            x       y       z     vdW  Elec       q    Type
REMARK                         _______ _______ _______ _____ _____    ______ ____
ROOT
ATOM      1  C   UNL     1      -5.365   2.722 125.848  0.00  0.00    +0.000 C 
ATOM      2  N   UNL     1      -5.827   3.035 124.661  0.00  0.00    +0.000 NA
ENDROOT
BRANCH   1   3
ATOM      3  C   UNL     1      -4.499   3.725 126.550  0.00  0.00    +0.000 A 
ATOM      4  C   UNL     1      -3.198   3.433 126.946  0.00  0.00    +0.000 A 
ATOM      5  S   UNL     1      -2.478   4.753 127.762  0.00  0.00    +0.000 S 
ATOM      6  C   UNL     1      -3.921   5.622 127.573  0.00  0.00    +0.000 A 
ATOM      7  N   UNL     1      -4.894   5.045 126.910  0.00  0.00    +0.000 NA
BRANCH   6   8
ATOM      8  N   UNL     1      -4.030   6.933 128.096  0.00  0.00    +0.000 NA
ATOM      9  H   UNL     1      -4.831   7.019 128.729  0.00  0.00    +0.000 HD
ATOM     10  H   UNL     1      -3.152   7.245 128.517  0.00  0.00    +0.000 HD
ATOM     11  H   UNL     1      -4.200   7.595 127.330  0.00  0.00    +0.000 HD
ENDBRANCH   6   8
ENDBRANCH   1   3
BRANCH   1  13
ATOM     12  N   UNL     1      -5.402   0.175 125.906  0.00  0.00    +0.000 N 
ATOM     13  C   UNL     1      -5.614   1.367 126.568  0.00  0.00    +0.000 C 
ATOM     14  O   UNL     1      -6.002   1.405 127.725  0.00  0.00    +0.000 OA
ATOM     15  H   UNL     1      -5.139   0.241 124.924  0.00  0.00    +0.000 HD
BRANCH  12  18
ATOM     16  C   UNL     1      -7.613  -2.253 127.922  0.00  0.00    +0.000 C 
ATOM     17  C   UNL     1      -7.278  -1.460 126.659  0.00  0.00    +0.000 C 
ATOM     18  C   UNL     1      -5.755  -1.182 126.450  0.00  0.00    +0.000 C 
ATOM     19  C   UNL     1      -5.869  -2.395 125.418  0.00  0.00    +0.000 C 
ATOM     20  O   UNL     1      -5.127  -3.139 124.810  0.00  0.00    +0.000 OA
ATOM     21  N   UNL     1      -7.252  -2.321 125.458  0.00  0.00    +0.000 N 
BRANCH  21  22
ATOM     22  S   UNL     1      -8.344  -2.647 124.246  0.00  0.00    +0.000 S 
ATOM     23  O   UNL     1      -7.759  -2.185 122.993  0.00  0.00    +0.000 OA
ATOM     24  O   UNL     1      -8.535  -4.089 124.323  0.00  0.00    +0.000 OA
ATOM     25  O   UNL     1      -9.507  -1.863 124.659  0.00  0.00    +0.000 OA
ENDBRANCH  21  22
ENDBRANCH  12  18
ENDBRANCH   1  13
BRANCH   2  26
ATOM     26  O   UNL     1      -6.566   1.983 124.074  0.00  0.00    +0.000 OA
BRANCH  26  27
ATOM     27  C   UNL     1      -7.840   2.380 123.517  0.00  0.00    +0.000 C 
ATOM     28  C   UNL     1      -7.619   3.306 122.331  0.00  0.00    +0.000 C 
ATOM     29  C   UNL     1      -8.657   1.147 123.147  0.00  0.00    +0.000 C 
BRANCH  27  30
ATOM     30  C   UNL     1      -8.552   3.147 124.656  0.00  0.00    +0.000 C 
ATOM     31  O   UNL     1      -9.235   2.591 125.512  0.00  0.00    +0.000 OA
BRANCH  30  32
ATOM     32  O   UNL     1      -8.390   4.491 124.666  0.00  0.00    +0.000 OA
ATOM     33  H   UNL     1      -7.615   4.865 125.127  0.00  0.00    +0.000 HD
ENDBRANCH  30  32
ENDBRANCH  27  30
ENDBRANCH  26  27
ENDBRANCH   2  26
TORSDOF 9
ENDMDL
MODEL 9
REMARK VINA RESULT:      -6.8      3.273      7.096
REMARK  Name = Aztreonam
REMARK  12 active torsions:
REMARK  status: ('A' for Active; 'I' for Inactive)
REMARK    1  A    between atoms: C_1  and  C_2
REMARK    2  A    between atoms: C_3  and  N_4
REMARK    3  A    between atoms: C_5  and  C_7
REMARK    4  A    between atoms: C_7  and  C_16
REMARK    5  A    between atoms: N_8  and  O_9
REMARK    6  A    between atoms: O_9  and  C_10
REMARK    7  A    between atoms: C_10  and  C_11
REMARK    8  A    between atoms: C_10  and  C_12
REMARK    9  A    between atoms: C_10  and  C_13
REMARK   10  A    between atoms: C_13  and  O_15
REMARK   11  A    between atoms: C_19  and  N_20
REMARK   12  A    between atoms: N_24  and  S_25
REMARK                            x       y       z     vdW  Elec       q    Type
REMARK                         _______ _______ _______ _____ _____    ______ ____
ROOT
ATOM      1  C   UNL     1      -6.526   2.590 127.285  0.00  0.00    +0.000 C 
ATOM      2  N   UNL     1      -6.829   2.122 126.098  0.00  0.00    +0.000 NA
ENDROOT
BRANCH   1   3
ATOM      3  C   UNL     1      -5.346   3.509 127.397  0.00  0.00    +0.000 A 
ATOM      4  C   UNL     1      -4.036   3.048 127.315  0.00  0.00    +0.000 A 
ATOM      5  S   UNL     1      -2.909   4.317 127.524  0.00  0.00    +0.000 S 
ATOM      6  C   UNL     1      -4.201   5.394 127.737  0.00  0.00    +0.000 A 
ATOM      7  N   UNL     1      -5.416   4.915 127.619  0.00  0.00    +0.000 NA
BRANCH   6   8
ATOM      8  N   UNL     1      -3.946   6.761 127.998  0.00  0.00    +0.000 NA
ATOM      9  H   UNL     1      -2.966   7.001 127.817  0.00  0.00    +0.000 HD
ATOM     10  H   UNL     1      -4.603   7.370 127.505  0.00  0.00    +0.000 HD
ATOM     11  H   UNL     1      -4.106   6.957 128.993  0.00  0.00    +0.000 HD
ENDBRANCH   6   8
ENDBRANCH   1   3
BRANCH   1  13
ATOM     12  N   UNL     1      -8.441   2.882 128.940  0.00  0.00    +0.000 N 
ATOM     13  C   UNL     1      -7.274   2.229 128.598  0.00  0.00    +0.000 C 
ATOM     14  O   UNL     1      -6.789   1.359 129.305  0.00  0.00    +0.000 OA
ATOM     15  H   UNL     1      -8.737   3.637 128.322  0.00  0.00    +0.000 HD
BRANCH  12  18
ATOM     16  C   UNL     1      -8.588   2.776 132.789  0.00  0.00    +0.000 C 
ATOM     17  C   UNL     1      -8.568   3.524 131.456  0.00  0.00    +0.000 C 
ATOM     18  C   UNL     1      -9.159   2.724 130.252  0.00  0.00    +0.000 C 
ATOM     19  C   UNL     1     -10.440   3.640 130.518  0.00  0.00    +0.000 C 
ATOM     20  O   UNL     1     -11.610   3.674 130.199  0.00  0.00    +0.000 OA
ATOM     21  N   UNL     1      -9.695   4.472 131.338  0.00  0.00    +0.000 N 
BRANCH  21  22
ATOM     22  S   UNL     1      -9.857   6.110 131.576  0.00  0.00    +0.000 S 
ATOM     23  O   UNL     1     -11.246   6.366 131.937  0.00  0.00    +0.000 OA
ATOM     24  O   UNL     1      -8.899   6.410 132.632  0.00  0.00    +0.000 OA
ATOM     25  O   UNL     1      -9.497   6.650 130.266  0.00  0.00    +0.000 OA
ENDBRANCH  21  22
ENDBRANCH  12  18
ENDBRANCH   1  13
BRANCH   2  26
ATOM     26  O   UNL     1      -7.910   1.213 126.135  0.00  0.00    +0.000 OA
BRANCH  26  27
ATOM     27  C   UNL     1      -8.383   0.785 124.836  0.00  0.00    +0.000 C 
ATOM     28  C   UNL     1      -7.290   0.987 123.798  0.00  0.00    +0.000 C 
ATOM     29  C   UNL     1      -8.863  -0.660 124.903  0.00  0.00    +0.000 C 
BRANCH  27  30
ATOM     30  C   UNL     1      -9.581   1.712 124.524  0.00  0.00    +0.000 C 
ATOM     31  O   UNL     1     -10.673   1.291 124.153  0.00  0.00    +0.000 OA
BRANCH  30  32
ATOM     32  O   UNL     1      -9.366   3.041 124.673  0.00  0.00    +0.000 OA
ATOM     33  H   UNL     1      -9.908   3.531 125.321  0.00  0.00    +0.000 HD
ENDBRANCH  30  32
ENDBRANCH  27  30
ENDBRANCH  26  27
ENDBRANCH   2  26
TORSDOF 9
ENDMDL
