MODEL 1
REMARK VINA RESULT:      -7.5      0.000      0.000
REMARK  Name = Bacampicillin
REMARK  15 active torsions:
REMARK  status: ('A' for Active; 'I' for Inactive)
REMARK    1  A    between atoms: C_4  and  C_5
REMARK    2  A    between atoms: C_4  and  C_6
REMARK    3  A    between atoms: C_7  and  C_23
REMARK    4  A    between atoms: C_11  and  N_12
REMARK    5  A    between atoms: C_13  and  C_15
REMARK    6  A    between atoms: C_15  and  N_16
REMARK    7  A    between atoms: C_15  and  C_17
REMARK    8  A    between atoms: C_23  and  O_25
REMARK    9  A    between atoms: O_25  and  C_26
REMARK   10  A    between atoms: C_26  and  C_27
REMARK   11  A    between atoms: C_26  and  O_28
REMARK   12  A    between atoms: O_28  and  C_29
REMARK   13  A    between atoms: C_29  and  O_31
REMARK   14  A    between atoms: O_31  and  C_32
REMARK   15  A    between atoms: C_32  and  C_33
REMARK                            x       y       z     vdW  Elec       q    Type
REMARK                         _______ _______ _______ _____ _____    ______ ____
ROOT
ATOM      1  C   UNL     1      -7.367   1.142 127.171  0.00  0.00    +0.000 C 
ATOM      2  S   UNL     1      -5.722   0.604 126.596  0.00  0.00    +0.000 S 
ATOM      3  C   UNL     1      -4.965   2.200 127.195  0.00  0.00    +0.000 C 
ATOM      4  C   UNL     1      -3.664   2.388 126.412  0.00  0.00    +0.000 C 
ATOM      5  C   UNL     1      -4.661   1.996 128.693  0.00  0.00    +0.000 C 
ATOM      6  C   UNL     1      -6.056   3.285 126.882  0.00  0.00    +0.000 C 
ATOM      7  N   UNL     1      -7.355   2.617 127.057  0.00  0.00    +0.000 N 
ATOM      8  C   UNL     1      -8.266   2.628 126.025  0.00  0.00    +0.000 C 
ATOM      9  O   UNL     1      -8.548   3.512 125.259  0.00  0.00    +0.000 OA
ATOM     10  C   UNL     1      -8.527   1.097 126.171  0.00  0.00    +0.000 C 
ENDROOT
BRANCH  10  11
ATOM     11  N   UNL     1      -8.360   0.254 124.954  0.00  0.00    +0.000 N 
ATOM     12  C   UNL     1      -9.052  -0.934 124.879  0.00  0.00    +0.000 C 
ATOM     13  O   UNL     1      -9.813  -1.269 125.790  0.00  0.00    +0.000 OA
ATOM     14  H   UNL     1      -7.822   0.581 124.158  0.00  0.00    +0.000 HD
BRANCH  12  15
ATOM     15  C   UNL     1      -8.783  -1.818 123.631  0.00  0.00    +0.000 C 
BRANCH  15  16
ATOM     16  C   UNL     1      -7.367  -2.380 123.606  0.00  0.00    +0.000 A 
ATOM     17  C   UNL     1      -6.411  -1.853 122.722  0.00  0.00    +0.000 A 
ATOM     18  C   UNL     1      -5.169  -2.478 122.572  0.00  0.00    +0.000 A 
ATOM     19  C   UNL     1      -4.829  -3.576 123.363  0.00  0.00    +0.000 A 
ATOM     20  C   UNL     1      -5.750  -4.087 124.265  0.00  0.00    +0.000 A 
ATOM     21  C   UNL     1      -7.009  -3.505 124.369  0.00  0.00    +0.000 A 
ENDBRANCH  15  16
BRANCH  15  22
ATOM     22  N   UNL     1      -9.763  -2.922 123.636  0.00  0.00    +0.000 NA
ATOM     23  H   UNL     1     -10.583  -2.587 124.149  0.00  0.00    +0.000 HD
ATOM     24  H   UNL     1      -9.396  -3.696 124.184  0.00  0.00    +0.000 HD
ENDBRANCH  15  22
ENDBRANCH  12  15
ENDBRANCH  10  11
BRANCH   6  25
ATOM     25  C   UNL     1      -5.916   4.563 127.747  0.00  0.00    +0.000 C 
ATOM     26  O   UNL     1      -6.631   4.769 128.721  0.00  0.00    +0.000 OA
BRANCH  25  27
ATOM     27  O   UNL     1      -4.919   5.431 127.404  0.00  0.00    +0.000 OA
BRANCH  27  28
ATOM     28  C   UNL     1      -4.061   5.857 128.527  0.00  0.00    +0.000 C 
ATOM     29  C   UNL     1      -2.585   5.522 128.236  0.00  0.00    +0.000 C 
BRANCH  28  30
ATOM     30  O   UNL     1      -4.193   7.294 128.747  0.00  0.00    +0.000 OA
BRANCH  30  31
ATOM     31  C   UNL     1      -4.571   7.700 129.998  0.00  0.00    +0.000 C 
ATOM     32  O   UNL     1      -5.659   7.489 130.517  0.00  0.00    +0.000 OA
BRANCH  31  33
ATOM     33  O   UNL     1      -3.543   8.366 130.608  0.00  0.00    +0.000 OA
BRANCH  33  34
ATOM     34  C   UNL     1      -2.872   7.613 131.642  0.00  0.00    +0.000 C 
ATOM     35  C   UNL     1      -2.520   8.516 132.817  0.00  0.00    +0.000 C 
ENDBRANCH  33  34
ENDBRANCH  31  33
ENDBRANCH  30  31
ENDBRANCH  28  30
ENDBRANCH  27  28
ENDBRANCH  25  27
ENDBRANCH   6  25
TORSDOF 11
ENDMDL
MODEL 2
REMARK VINA RESULT:      -7.4      5.045      9.810
REMARK  Name = Bacampicillin
REMARK  15 active torsions:
REMARK  status: ('A' for Active; 'I' for Inactive)
REMARK    1  A    between atoms: C_4  and  C_5
REMARK    2  A    between atoms: C_4  and  C_6
REMARK    3  A    between atoms: C_7  and  C_23
REMARK    4  A    between atoms: C_11  and  N_12
REMARK    5  A    between atoms: C_13  and  C_15
REMARK    6  A    between atoms: C_15  and  N_16
REMARK    7  A    between atoms: C_15  and  C_17
REMARK    8  A    between atoms: C_23  and  O_25
REMARK    9  A    between atoms: O_25  and  C_26
REMARK   10  A    between atoms: C_26  and  C_27
REMARK   11  A    between atoms: C_26  and  O_28
REMARK   12  A    between atoms: O_28  and  C_29
REMARK   13  A    between atoms: C_29  and  O_31
REMARK   14  A    between atoms: O_31  and  C_32
REMARK   15  A    between atoms: C_32  and  C_33
REMARK                            x       y       z     vdW  Elec       q    Type
REMARK                         _______ _______ _______ _____ _____    ______ ____
ROOT
ATOM      1  C   UNL     1      -7.602   3.715 131.100  0.00  0.00    +0.000 C 
ATOM      2  S   UNL     1      -8.669   2.706 132.181  0.00  0.00    +0.000 S 
ATOM      3  C   UNL     1      -8.016   1.141 131.404  0.00  0.00    +0.000 C 
ATOM      4  C   UNL     1      -9.064   0.056 131.659  0.00  0.00    +0.000 C 
ATOM      5  C   UNL     1      -6.708   0.805 132.149  0.00  0.00    +0.000 C 
ATOM      6  C   UNL     1      -7.839   1.509 129.887  0.00  0.00    +0.000 C 
ATOM      7  N   UNL     1      -7.454   2.928 129.856  0.00  0.00    +0.000 N 
ATOM      8  C   UNL     1      -8.196   3.814 129.109  0.00  0.00    +0.000 C 
ATOM      9  O   UNL     1      -8.694   3.673 128.022  0.00  0.00    +0.000 OA
ATOM     10  C   UNL     1      -8.259   4.836 130.286  0.00  0.00    +0.000 C 
ENDROOT
BRANCH  10  11
ATOM     11  N   UNL     1      -9.606   5.304 130.715  0.00  0.00    +0.000 N 
ATOM     12  C   UNL     1      -9.916   6.637 130.561  0.00  0.00    +0.000 C 
ATOM     13  O   UNL     1      -9.102   7.410 130.051  0.00  0.00    +0.000 OA
ATOM     14  H   UNL     1     -10.315   4.650 131.030  0.00  0.00    +0.000 HD
BRANCH  12  15
ATOM     15  C   UNL     1     -11.299   7.096 131.097  0.00  0.00    +0.000 C 
BRANCH  15  16
ATOM     16  C   UNL     1     -12.259   7.492 129.982  0.00  0.00    +0.000 A 
ATOM     17  C   UNL     1     -12.820   6.512 129.148  0.00  0.00    +0.000 A 
ATOM     18  C   UNL     1     -13.558   6.884 128.019  0.00  0.00    +0.000 A 
ATOM     19  C   UNL     1     -13.824   8.229 127.760  0.00  0.00    +0.000 A 
ATOM     20  C   UNL     1     -13.305   9.208 128.595  0.00  0.00    +0.000 A 
ATOM     21  C   UNL     1     -12.517   8.841 129.680  0.00  0.00    +0.000 A 
ENDBRANCH  15  16
BRANCH  15  22
ATOM     22  N   UNL     1     -11.873   5.987 131.884  0.00  0.00    +0.000 NA
ATOM     23  H   UNL     1     -11.823   5.150 131.296  0.00  0.00    +0.000 HD
ATOM     24  H   UNL     1     -12.864   6.157 132.033  0.00  0.00    +0.000 HD
ENDBRANCH  15  22
ENDBRANCH  12  15
ENDBRANCH  10  11
BRANCH   6  25
ATOM     25  C   UNL     1      -6.829   0.595 129.149  0.00  0.00    +0.000 C 
ATOM     26  O   UNL     1      -5.683   0.955 128.911  0.00  0.00    +0.000 OA
BRANCH  25  27
ATOM     27  O   UNL     1      -7.261  -0.658 128.820  0.00  0.00    +0.000 OA
BRANCH  27  28
ATOM     28  C   UNL     1      -6.184  -1.638 128.585  0.00  0.00    +0.000 C 
ATOM     29  C   UNL     1      -6.075  -2.616 129.772  0.00  0.00    +0.000 C 
BRANCH  28  30
ATOM     30  O   UNL     1      -6.445  -2.394 127.363  0.00  0.00    +0.000 OA
BRANCH  30  31
ATOM     31  C   UNL     1      -5.872  -1.928 126.210  0.00  0.00    +0.000 C 
ATOM     32  O   UNL     1      -5.264  -0.874 126.092  0.00  0.00    +0.000 OA
BRANCH  31  33
ATOM     33  O   UNL     1      -6.059  -2.828 125.196  0.00  0.00    +0.000 OA
BRANCH  33  34
ATOM     34  C   UNL     1      -5.259  -2.578 124.020  0.00  0.00    +0.000 C 
ATOM     35  C   UNL     1      -4.516  -3.840 123.601  0.00  0.00    +0.000 C 
ENDBRANCH  33  34
ENDBRANCH  31  33
ENDBRANCH  30  31
ENDBRANCH  28  30
ENDBRANCH  27  28
ENDBRANCH  25  27
ENDBRANCH   6  25
TORSDOF 11
ENDMDL
MODEL 3
REMARK VINA RESULT:      -7.4      4.956      7.964
REMARK  Name = Bacampicillin
REMARK  15 active torsions:
REMARK  status: ('A' for Active; 'I' for Inactive)
REMARK    1  A    between atoms: C_4  and  C_5
REMARK    2  A    between atoms: C_4  and  C_6
REMARK    3  A    between atoms: C_7  and  C_23
REMARK    4  A    between atoms: C_11  and  N_12
REMARK    5  A    between atoms: C_13  and  C_15
REMARK    6  A    between atoms: C_15  and  N_16
REMARK    7  A    between atoms: C_15  and  C_17
REMARK    8  A    between atoms: C_23  and  O_25
REMARK    9  A    between atoms: O_25  and  C_26
REMARK   10  A    between atoms: C_26  and  C_27
REMARK   11  A    between atoms: C_26  and  O_28
REMARK   12  A    between atoms: O_28  and  C_29
REMARK   13  A    between atoms: C_29  and  O_31
REMARK   14  A    between atoms: O_31  and  C_32
REMARK   15  A    between atoms: C_32  and  C_33
REMARK                            x       y       z     vdW  Elec       q    Type
REMARK                         _______ _______ _______ _____ _____    ______ ____
ROOT
ATOM      1  C   UNL     1      -8.886  -0.344 123.853  0.00  0.00    +0.000 C 
ATOM      2  S   UNL     1      -7.545  -1.319 123.092  0.00  0.00    +0.000 S 
ATOM      3  C   UNL     1      -7.898  -2.744 124.243  0.00  0.00    +0.000 C 
ATOM      4  C   UNL     1      -6.622  -3.586 124.299  0.00  0.00    +0.000 C 
ATOM      5  C   UNL     1      -9.040  -3.549 123.591  0.00  0.00    +0.000 C 
ATOM      6  C   UNL     1      -8.265  -2.056 125.606  0.00  0.00    +0.000 C 
ATOM      7  N   UNL     1      -8.952  -0.804 125.257  0.00  0.00    +0.000 N 
ATOM      8  C   UNL     1      -8.480   0.389 125.758  0.00  0.00    +0.000 C 
ATOM      9  O   UNL     1      -8.047   0.645 126.851  0.00  0.00    +0.000 OA
ATOM     10  C   UNL     1      -8.553   1.066 124.354  0.00  0.00    +0.000 C 
ENDROOT
BRANCH  10  11
ATOM     11  N   UNL     1      -7.312   1.709 123.839  0.00  0.00    +0.000 N 
ATOM     12  C   UNL     1      -7.289   3.080 123.710  0.00  0.00    +0.000 C 
ATOM     13  O   UNL     1      -8.267   3.752 124.044  0.00  0.00    +0.000 OA
ATOM     14  H   UNL     1      -6.470   1.168 123.670  0.00  0.00    +0.000 HD
BRANCH  12  15
ATOM     15  C   UNL     1      -6.006   3.698 123.091  0.00  0.00    +0.000 C 
BRANCH  15  16
ATOM     16  C   UNL     1      -6.168   4.027 121.612  0.00  0.00    +0.000 A 
ATOM     17  C   UNL     1      -5.179   4.759 120.936  0.00  0.00    +0.000 A 
ATOM     18  C   UNL     1      -5.404   5.213 119.632  0.00  0.00    +0.000 A 
ATOM     19  C   UNL     1      -6.573   4.865 118.955  0.00  0.00    +0.000 A 
ATOM     20  C   UNL     1      -7.545   4.112 119.597  0.00  0.00    +0.000 A 
ATOM     21  C   UNL     1      -7.349   3.716 120.916  0.00  0.00    +0.000 A 
ENDBRANCH  15  16
BRANCH  15  22
ATOM     22  N   UNL     1      -5.682   4.924 123.847  0.00  0.00    +0.000 NA
ATOM     23  H   UNL     1      -5.971   4.759 124.816  0.00  0.00    +0.000 HD
ATOM     24  H   UNL     1      -6.265   5.689 123.515  0.00  0.00    +0.000 HD
ENDBRANCH  15  22
ENDBRANCH  12  15
ENDBRANCH  10  11
BRANCH   6  25
ATOM     25  C   UNL     1      -9.104  -2.962 126.543  0.00  0.00    +0.000 C 
ATOM     26  O   UNL     1     -10.289  -3.191 126.332  0.00  0.00    +0.000 OA
BRANCH  25  27
ATOM     27  O   UNL     1      -8.446  -3.538 127.591  0.00  0.00    +0.000 OA
BRANCH  27  28
ATOM     28  C   UNL     1      -7.590  -2.616 128.362  0.00  0.00    +0.000 C 
ATOM     29  C   UNL     1      -8.095  -2.496 129.814  0.00  0.00    +0.000 C 
BRANCH  28  30
ATOM     30  O   UNL     1      -6.211  -3.096 128.372  0.00  0.00    +0.000 OA
BRANCH  30  31
ATOM     31  C   UNL     1      -5.302  -2.361 129.085  0.00  0.00    +0.000 C 
ATOM     32  O   UNL     1      -5.268  -1.140 129.149  0.00  0.00    +0.000 OA
BRANCH  31  33
ATOM     33  O   UNL     1      -4.437  -3.192 129.742  0.00  0.00    +0.000 OA
BRANCH  33  34
ATOM     34  C   UNL     1      -4.828  -3.515 131.094  0.00  0.00    +0.000 C 
ATOM     35  C   UNL     1      -5.381  -4.932 131.167  0.00  0.00    +0.000 C 
ENDBRANCH  33  34
ENDBRANCH  31  33
ENDBRANCH  30  31
ENDBRANCH  28  30
ENDBRANCH  27  28
ENDBRANCH  25  27
ENDBRANCH   6  25
TORSDOF 11
ENDMDL
MODEL 4
REMARK VINA RESULT:      -7.3      2.409      3.657
REMARK  Name = Bacampicillin
REMARK  15 active torsions:
REMARK  status: ('A' for Active; 'I' for Inactive)
REMARK    1  A    between atoms: C_4  and  C_5
REMARK    2  A    between atoms: C_4  and  C_6
REMARK    3  A    between atoms: C_7  and  C_23
REMARK    4  A    between atoms: C_11  and  N_12
REMARK    5  A    between atoms: C_13  and  C_15
REMARK    6  A    between atoms: C_15  and  N_16
REMARK    7  A    between atoms: C_15  and  C_17
REMARK    8  A    between atoms: C_23  and  O_25
REMARK    9  A    between atoms: O_25  and  C_26
REMARK   10  A    between atoms: C_26  and  C_27
REMARK   11  A    between atoms: C_26  and  O_28
REMARK   12  A    between atoms: O_28  and  C_29
REMARK   13  A    between atoms: C_29  and  O_31
REMARK   14  A    between atoms: O_31  and  C_32
REMARK   15  A    between atoms: C_32  and  C_33
REMARK                            x       y       z     vdW  Elec       q    Type
REMARK                         _______ _______ _______ _____ _____    ______ ____
ROOT
ATOM      1  C   UNL     1      -7.020   1.274 127.915  0.00  0.00    +0.000 C 
ATOM      2  S   UNL     1      -5.329   1.050 127.271  0.00  0.00    +0.000 S 
ATOM      3  C   UNL     1      -4.744   2.544 128.223  0.00  0.00    +0.000 C 
ATOM      4  C   UNL     1      -3.472   3.034 127.528  0.00  0.00    +0.000 C 
ATOM      5  C   UNL     1      -4.417   2.046 129.645  0.00  0.00    +0.000 C 
ATOM      6  C   UNL     1      -5.946   3.552 128.132  0.00  0.00    +0.000 C 
ATOM      7  N   UNL     1      -7.165   2.731 128.128  0.00  0.00    +0.000 N 
ATOM      8  C   UNL     1      -8.074   2.875 127.104  0.00  0.00    +0.000 C 
ATOM      9  O   UNL     1      -8.450   3.872 126.546  0.00  0.00    +0.000 OA
ATOM     10  C   UNL     1      -8.172   1.330 126.904  0.00  0.00    +0.000 C 
ENDROOT
BRANCH  10  11
ATOM     11  N   UNL     1      -7.918   0.800 125.536  0.00  0.00    +0.000 N 
ATOM     12  C   UNL     1      -8.968   0.234 124.847  0.00  0.00    +0.000 C 
ATOM     13  O   UNL     1     -10.094   0.199 125.349  0.00  0.00    +0.000 OA
ATOM     14  H   UNL     1      -7.021   0.929 125.079  0.00  0.00    +0.000 HD
BRANCH  12  15
ATOM     15  C   UNL     1      -8.639  -0.379 123.459  0.00  0.00    +0.000 C 
BRANCH  15  16
ATOM     16  C   UNL     1      -7.720  -1.592 123.557  0.00  0.00    +0.000 A 
ATOM     17  C   UNL     1      -8.160  -2.765 124.189  0.00  0.00    +0.000 A 
ATOM     18  C   UNL     1      -7.266  -3.812 124.435  0.00  0.00    +0.000 A 
ATOM     19  C   UNL     1      -5.951  -3.742 123.974  0.00  0.00    +0.000 A 
ATOM     20  C   UNL     1      -5.511  -2.602 123.317  0.00  0.00    +0.000 A 
ATOM     21  C   UNL     1      -6.382  -1.535 123.129  0.00  0.00    +0.000 A 
ENDBRANCH  15  16
BRANCH  15  22
ATOM     22  N   UNL     1      -9.912  -0.763 122.818  0.00  0.00    +0.000 NA
ATOM     23  H   UNL     1      -9.705  -0.936 121.830  0.00  0.00    +0.000 HD
ATOM     24  H   UNL     1     -10.547   0.031 122.828  0.00  0.00    +0.000 HD
ENDBRANCH  15  22
ENDBRANCH  12  15
ENDBRANCH  10  11
BRANCH   6  25
ATOM     25  C   UNL     1      -5.940   4.614 129.261  0.00  0.00    +0.000 C 
ATOM     26  O   UNL     1      -5.300   5.655 129.168  0.00  0.00    +0.000 OA
BRANCH  25  27
ATOM     27  O   UNL     1      -6.725   4.359 130.348  0.00  0.00    +0.000 OA
BRANCH  27  28
ATOM     28  C   UNL     1      -7.841   5.306 130.537  0.00  0.00    +0.000 C 
ATOM     29  C   UNL     1      -7.379   6.529 131.354  0.00  0.00    +0.000 C 
BRANCH  28  30
ATOM     30  O   UNL     1      -8.347   5.756 129.244  0.00  0.00    +0.000 OA
BRANCH  30  31
ATOM     31  C   UNL     1      -9.655   6.155 129.193  0.00  0.00    +0.000 C 
ATOM     32  O   UNL     1     -10.625   5.446 129.420  0.00  0.00    +0.000 OA
BRANCH  31  33
ATOM     33  O   UNL     1      -9.730   7.482 128.867  0.00  0.00    +0.000 OA
BRANCH  33  34
ATOM     34  C   UNL     1     -10.995   7.890 128.304  0.00  0.00    +0.000 C 
ATOM     35  C   UNL     1     -10.958   7.800 126.784  0.00  0.00    +0.000 C 
ENDBRANCH  33  34
ENDBRANCH  31  33
ENDBRANCH  30  31
ENDBRANCH  28  30
ENDBRANCH  27  28
ENDBRANCH  25  27
ENDBRANCH   6  25
TORSDOF 11
ENDMDL
MODEL 5
REMARK VINA RESULT:      -7.3      4.280      9.798
REMARK  Name = Bacampicillin
REMARK  15 active torsions:
REMARK  status: ('A' for Active; 'I' for Inactive)
REMARK    1  A    between atoms: C_4  and  C_5
REMARK    2  A    between atoms: C_4  and  C_6
REMARK    3  A    between atoms: C_7  and  C_23
REMARK    4  A    between atoms: C_11  and  N_12
REMARK    5  A    between atoms: C_13  and  C_15
REMARK    6  A    between atoms: C_15  and  N_16
REMARK    7  A    between atoms: C_15  and  C_17
REMARK    8  A    between atoms: C_23  and  O_25
REMARK    9  A    between atoms: O_25  and  C_26
REMARK   10  A    between atoms: C_26  and  C_27
REMARK   11  A    between atoms: C_26  and  O_28
REMARK   12  A    between atoms: O_28  and  C_29
REMARK   13  A    between atoms: C_29  and  O_31
REMARK   14  A    between atoms: O_31  and  C_32
REMARK   15  A    between atoms: C_32  and  C_33
REMARK                            x       y       z     vdW  Elec       q    Type
REMARK                         _______ _______ _______ _____ _____    ______ ____
ROOT
ATOM      1  C   UNL     1      -6.979   2.812 130.107  0.00  0.00    +0.000 C 
ATOM      2  S   UNL     1      -7.856   2.120 131.548  0.00  0.00    +0.000 S 
ATOM      3  C   UNL     1      -7.549   0.387 130.932  0.00  0.00    +0.000 C 
ATOM      4  C   UNL     1      -8.606  -0.504 131.588  0.00  0.00    +0.000 C 
ATOM      5  C   UNL     1      -6.141  -0.002 131.428  0.00  0.00    +0.000 C 
ATOM      6  C   UNL     1      -7.694   0.501 129.372  0.00  0.00    +0.000 C 
ATOM      7  N   UNL     1      -7.197   1.838 129.015  0.00  0.00    +0.000 N 
ATOM      8  C   UNL     1      -8.005   2.693 128.301  0.00  0.00    +0.000 C 
ATOM      9  O   UNL     1      -8.752   2.459 127.387  0.00  0.00    +0.000 OA
ATOM     10  C   UNL     1      -7.699   3.876 129.271  0.00  0.00    +0.000 C 
ENDROOT
BRANCH  10  11
ATOM     11  N   UNL     1      -8.861   4.573 129.889  0.00  0.00    +0.000 N 
ATOM     12  C   UNL     1      -8.667   5.833 130.412  0.00  0.00    +0.000 C 
ATOM     13  O   UNL     1      -7.562   6.374 130.337  0.00  0.00    +0.000 OA
ATOM     14  H   UNL     1      -9.794   4.176 129.851  0.00  0.00    +0.000 HD
BRANCH  12  15
ATOM     15  C   UNL     1      -9.885   6.486 131.119  0.00  0.00    +0.000 C 
BRANCH  15  16
ATOM     16  C   UNL     1     -10.743   7.311 130.168  0.00  0.00    +0.000 A 
ATOM     17  C   UNL     1     -12.113   7.484 130.419  0.00  0.00    +0.000 A 
ATOM     18  C   UNL     1     -12.936   8.089 129.462  0.00  0.00    +0.000 A 
ATOM     19  C   UNL     1     -12.390   8.609 128.289  0.00  0.00    +0.000 A 
ATOM     20  C   UNL     1     -11.032   8.476 128.041  0.00  0.00    +0.000 A 
ATOM     21  C   UNL     1     -10.225   7.818 128.963  0.00  0.00    +0.000 A 
ENDBRANCH  15  16
BRANCH  15  22
ATOM     22  N   UNL     1     -10.694   5.409 131.722  0.00  0.00    +0.000 NA
ATOM     23  H   UNL     1     -11.590   5.399 131.226  0.00  0.00    +0.000 HD
ATOM     24  H   UNL     1     -10.917   5.652 132.684  0.00  0.00    +0.000 HD
ENDBRANCH  15  22
ENDBRANCH  12  15
ENDBRANCH  10  11
BRANCH   6  25
ATOM     25  C   UNL     1      -6.972  -0.635 128.605  0.00  0.00    +0.000 C 
ATOM     26  O   UNL     1      -5.876  -0.469 128.082  0.00  0.00    +0.000 OA
BRANCH  25  27
ATOM     27  O   UNL     1      -7.591  -1.851 128.582  0.00  0.00    +0.000 OA
BRANCH  27  28
ATOM     28  C   UNL     1      -7.930  -2.343 127.232  0.00  0.00    +0.000 C 
ATOM     29  C   UNL     1      -8.832  -3.590 127.323  0.00  0.00    +0.000 C 
BRANCH  28  30
ATOM     30  O   UNL     1      -8.622  -1.305 126.474  0.00  0.00    +0.000 OA
BRANCH  30  31
ATOM     31  C   UNL     1      -8.192  -1.081 125.194  0.00  0.00    +0.000 C 
ATOM     32  O   UNL     1      -7.027  -0.952 124.846  0.00  0.00    +0.000 OA
BRANCH  31  33
ATOM     33  O   UNL     1      -9.261  -1.039 124.340  0.00  0.00    +0.000 OA
BRANCH  33  34
ATOM     34  C   UNL     1      -9.139  -1.901 123.188  0.00  0.00    +0.000 C 
ATOM     35  C   UNL     1      -9.509  -3.334 123.551  0.00  0.00    +0.000 C 
ENDBRANCH  33  34
ENDBRANCH  31  33
ENDBRANCH  30  31
ENDBRANCH  28  30
ENDBRANCH  27  28
ENDBRANCH  25  27
ENDBRANCH   6  25
TORSDOF 11
ENDMDL
MODEL 6
REMARK VINA RESULT:      -7.3      4.563      9.746
REMARK  Name = Bacampicillin
REMARK  15 active torsions:
REMARK  status: ('A' for Active; 'I' for Inactive)
REMARK    1  A    between atoms: C_4  and  C_5
REMARK    2  A    between atoms: C_4  and  C_6
REMARK    3  A    between atoms: C_7  and  C_23
REMARK    4  A    between atoms: C_11  and  N_12
REMARK    5  A    between atoms: C_13  and  C_15
REMARK    6  A    between atoms: C_15  and  N_16
REMARK    7  A    between atoms: C_15  and  C_17
REMARK    8  A    between atoms: C_23  and  O_25
REMARK    9  A    between atoms: O_25  and  C_26
REMARK   10  A    between atoms: C_26  and  C_27
REMARK   11  A    between atoms: C_26  and  O_28
REMARK   12  A    between atoms: O_28  and  C_29
REMARK   13  A    between atoms: C_29  and  O_31
REMARK   14  A    between atoms: O_31  and  C_32
REMARK   15  A    between atoms: C_32  and  C_33
REMARK                            x       y       z     vdW  Elec       q    Type
REMARK                         _______ _______ _______ _____ _____    ______ ____
ROOT
ATOM      1  C   UNL     1      -8.161   2.089 128.790  0.00  0.00    +0.000 C 
ATOM      2  S   UNL     1      -6.596   3.025 128.849  0.00  0.00    +0.000 S 
ATOM      3  C   UNL     1      -5.624   1.437 128.959  0.00  0.00    +0.000 C 
ATOM      4  C   UNL     1      -4.271   1.796 129.575  0.00  0.00    +0.000 C 
ATOM      5  C   UNL     1      -5.437   0.946 127.509  0.00  0.00    +0.000 C 
ATOM      6  C   UNL     1      -6.507   0.507 129.866  0.00  0.00    +0.000 C 
ATOM      7  N   UNL     1      -7.904   0.855 129.565  0.00  0.00    +0.000 N 
ATOM      8  C   UNL     1      -8.745   1.224 130.590  0.00  0.00    +0.000 C 
ATOM      9  O   UNL     1      -8.840   0.777 131.704  0.00  0.00    +0.000 OA
ATOM     10  C   UNL     1      -9.259   2.462 129.792  0.00  0.00    +0.000 C 
ENDROOT
BRANCH  10  11
ATOM     11  N   UNL     1      -9.166   3.791 130.458  0.00  0.00    +0.000 N 
ATOM     12  C   UNL     1     -10.316   4.536 130.599  0.00  0.00    +0.000 C 
ATOM     13  O   UNL     1     -11.397   4.091 130.206  0.00  0.00    +0.000 OA
ATOM     14  H   UNL     1      -8.300   4.109 130.880  0.00  0.00    +0.000 HD
BRANCH  12  15
ATOM     15  C   UNL     1     -10.158   5.949 131.222  0.00  0.00    +0.000 C 
BRANCH  15  16
ATOM     16  C   UNL     1     -10.814   7.038 130.382  0.00  0.00    +0.000 A 
ATOM     17  C   UNL     1     -12.122   7.461 130.667  0.00  0.00    +0.000 A 
ATOM     18  C   UNL     1     -12.788   8.329 129.796  0.00  0.00    +0.000 A 
ATOM     19  C   UNL     1     -12.131   8.857 128.684  0.00  0.00    +0.000 A 
ATOM     20  C   UNL     1     -10.827   8.474 128.408  0.00  0.00    +0.000 A 
ATOM     21  C   UNL     1     -10.186   7.561 129.238  0.00  0.00    +0.000 A 
ENDBRANCH  15  16
BRANCH  15  22
ATOM     22  N   UNL     1     -10.759   5.922 132.570  0.00  0.00    +0.000 NA
ATOM     23  H   UNL     1     -11.019   4.949 132.758  0.00  0.00    +0.000 HD
ATOM     24  H   UNL     1     -11.635   6.439 132.559  0.00  0.00    +0.000 HD
ENDBRANCH  15  22
ENDBRANCH  12  15
ENDBRANCH  10  11
BRANCH   6  25
ATOM     25  C   UNL     1      -6.208  -1.001 129.671  0.00  0.00    +0.000 C 
ATOM     26  O   UNL     1      -5.063  -1.435 129.635  0.00  0.00    +0.000 OA
BRANCH  25  27
ATOM     27  O   UNL     1      -7.285  -1.836 129.593  0.00  0.00    +0.000 OA
BRANCH  27  28
ATOM     28  C   UNL     1      -7.435  -2.527 128.297  0.00  0.00    +0.000 C 
ATOM     29  C   UNL     1      -8.498  -3.639 128.398  0.00  0.00    +0.000 C 
BRANCH  28  30
ATOM     30  O   UNL     1      -7.830  -1.578 127.260  0.00  0.00    +0.000 OA
BRANCH  30  31
ATOM     31  C   UNL     1      -7.690  -1.983 125.961  0.00  0.00    +0.000 C 
ATOM     32  O   UNL     1      -6.670  -2.437 125.462  0.00  0.00    +0.000 OA
BRANCH  31  33
ATOM     33  O   UNL     1      -8.873  -1.827 125.290  0.00  0.00    +0.000 OA
BRANCH  33  34
ATOM     34  C   UNL     1      -8.784  -2.038 123.864  0.00  0.00    +0.000 C 
ATOM     35  C   UNL     1      -9.525  -3.308 123.465  0.00  0.00    +0.000 C 
ENDBRANCH  33  34
ENDBRANCH  31  33
ENDBRANCH  30  31
ENDBRANCH  28  30
ENDBRANCH  27  28
ENDBRANCH  25  27
ENDBRANCH   6  25
TORSDOF 11
ENDMDL
MODEL 7
REMARK VINA RESULT:      -7.2      4.359      5.991
REMARK  Name = Bacampicillin
REMARK  15 active torsions:
REMARK  status: ('A' for Active; 'I' for Inactive)
REMARK    1  A    between atoms: C_4  and  C_5
REMARK    2  A    between atoms: C_4  and  C_6
REMARK    3  A    between atoms: C_7  and  C_23
REMARK    4  A    between atoms: C_11  and  N_12
REMARK    5  A    between atoms: C_13  and  C_15
REMARK    6  A    between atoms: C_15  and  N_16
REMARK    7  A    between atoms: C_15  and  C_17
REMARK    8  A    between atoms: C_23  and  O_25
REMARK    9  A    between atoms: O_25  and  C_26
REMARK   10  A    between atoms: C_26  and  C_27
REMARK   11  A    between atoms: C_26  and  O_28
REMARK   12  A    between atoms: O_28  and  C_29
REMARK   13  A    between atoms: C_29  and  O_31
REMARK   14  A    between atoms: O_31  and  C_32
REMARK   15  A    between atoms: C_32  and  C_33
REMARK                            x       y       z     vdW  Elec       q    Type
REMARK                         _______ _______ _______ _____ _____    ______ ____
ROOT
ATOM      1  C   UNL     1      -9.065   2.778 130.097  0.00  0.00    +0.000 C 
ATOM      2  S   UNL     1      -8.237   1.642 131.259  0.00  0.00    +0.000 S 
ATOM      3  C   UNL     1      -8.042   3.020 132.501  0.00  0.00    +0.000 C 
ATOM      4  C   UNL     1      -6.894   2.613 133.428  0.00  0.00    +0.000 C 
ATOM      5  C   UNL     1      -9.367   3.080 133.288  0.00  0.00    +0.000 C 
ATOM      6  C   UNL     1      -7.731   4.287 131.626  0.00  0.00    +0.000 C 
ATOM      7  N   UNL     1      -8.484   4.110 130.376  0.00  0.00    +0.000 N 
ATOM      8  C   UNL     1      -7.819   4.165 129.171  0.00  0.00    +0.000 C 
ATOM      9  O   UNL     1      -6.929   4.893 128.819  0.00  0.00    +0.000 OA
ATOM     10  C   UNL     1      -8.520   2.865 128.667  0.00  0.00    +0.000 C 
ENDROOT
BRANCH  10  11
ATOM     11  N   UNL     1      -7.646   1.757 128.191  0.00  0.00    +0.000 N 
ATOM     12  C   UNL     1      -8.106   0.950 127.174  0.00  0.00    +0.000 C 
ATOM     13  O   UNL     1      -9.204   1.167 126.656  0.00  0.00    +0.000 OA
ATOM     14  H   UNL     1      -6.699   1.648 128.538  0.00  0.00    +0.000 HD
BRANCH  12  15
ATOM     15  C   UNL     1      -7.198  -0.241 126.767  0.00  0.00    +0.000 C 
BRANCH  15  16
ATOM     16  C   UNL     1      -7.741  -1.583 127.246  0.00  0.00    +0.000 A 
ATOM     17  C   UNL     1      -8.439  -2.421 126.363  0.00  0.00    +0.000 A 
ATOM     18  C   UNL     1      -9.087  -3.565 126.839  0.00  0.00    +0.000 A 
ATOM     19  C   UNL     1      -8.971  -3.937 128.179  0.00  0.00    +0.000 A 
ATOM     20  C   UNL     1      -8.255  -3.137 129.057  0.00  0.00    +0.000 A 
ATOM     21  C   UNL     1      -7.665  -1.965 128.596  0.00  0.00    +0.000 A 
ENDBRANCH  15  16
BRANCH  15  22
ATOM     22  N   UNL     1      -7.080  -0.243 125.295  0.00  0.00    +0.000 NA
ATOM     23  H   UNL     1      -7.819   0.371 124.939  0.00  0.00    +0.000 HD
ATOM     24  H   UNL     1      -7.301  -1.170 124.940  0.00  0.00    +0.000 HD
ENDBRANCH  15  22
ENDBRANCH  12  15
ENDBRANCH  10  11
BRANCH   6  25
ATOM     25  C   UNL     1      -8.059   5.621 132.342  0.00  0.00    +0.000 C 
ATOM     26  O   UNL     1      -7.755   5.820 133.512  0.00  0.00    +0.000 OA
BRANCH  25  27
ATOM     27  O   UNL     1      -8.659   6.590 131.591  0.00  0.00    +0.000 OA
BRANCH  27  28
ATOM     28  C   UNL     1     -10.033   6.270 131.158  0.00  0.00    +0.000 C 
ATOM     29  C   UNL     1     -11.015   6.393 132.341  0.00  0.00    +0.000 C 
BRANCH  28  30
ATOM     30  O   UNL     1     -10.452   7.175 130.091  0.00  0.00    +0.000 OA
BRANCH  30  31
ATOM     31  C   UNL     1     -10.722   6.615 128.872  0.00  0.00    +0.000 C 
ATOM     32  O   UNL     1      -9.981   6.636 127.899  0.00  0.00    +0.000 OA
BRANCH  31  33
ATOM     33  O   UNL     1     -11.945   6.002 128.896  0.00  0.00    +0.000 OA
BRANCH  33  34
ATOM     34  C   UNL     1     -13.057   6.895 129.117  0.00  0.00    +0.000 C 
ATOM     35  C   UNL     1     -13.611   7.398 127.790  0.00  0.00    +0.000 C 
ENDBRANCH  33  34
ENDBRANCH  31  33
ENDBRANCH  30  31
ENDBRANCH  28  30
ENDBRANCH  27  28
ENDBRANCH  25  27
ENDBRANCH   6  25
TORSDOF 11
ENDMDL
MODEL 8
REMARK VINA RESULT:      -7.1      4.674      8.254
REMARK  Name = Bacampicillin
REMARK  15 active torsions:
REMARK  status: ('A' for Active; 'I' for Inactive)
REMARK    1  A    between atoms: C_4  and  C_5
REMARK    2  A    between atoms: C_4  and  C_6
REMARK    3  A    between atoms: C_7  and  C_23
REMARK    4  A    between atoms: C_11  and  N_12
REMARK    5  A    between atoms: C_13  and  C_15
REMARK    6  A    between atoms: C_15  and  N_16
REMARK    7  A    between atoms: C_15  and  C_17
REMARK    8  A    between atoms: C_23  and  O_25
REMARK    9  A    between atoms: O_25  and  C_26
REMARK   10  A    between atoms: C_26  and  C_27
REMARK   11  A    between atoms: C_26  and  O_28
REMARK   12  A    between atoms: O_28  and  C_29
REMARK   13  A    between atoms: C_29  and  O_31
REMARK   14  A    between atoms: O_31  and  C_32
REMARK   15  A    between atoms: C_32  and  C_33
REMARK                            x       y       z     vdW  Elec       q    Type
REMARK                         _______ _______ _______ _____ _____    ______ ____
ROOT
ATOM      1  C   UNL     1      -6.934   4.641 132.510  0.00  0.00    +0.000 C 
ATOM      2  S   UNL     1      -6.954   3.176 131.425  0.00  0.00    +0.000 S 
ATOM      3  C   UNL     1      -5.111   3.309 131.173  0.00  0.00    +0.000 C 
ATOM      4  C   UNL     1      -4.793   2.570 129.872  0.00  0.00    +0.000 C 
ATOM      5  C   UNL     1      -4.460   2.585 132.370  0.00  0.00    +0.000 C 
ATOM      6  C   UNL     1      -4.842   4.855 131.107  0.00  0.00    +0.000 C 
ATOM      7  N   UNL     1      -5.817   5.476 132.015  0.00  0.00    +0.000 N 
ATOM      8  C   UNL     1      -6.653   6.461 131.540  0.00  0.00    +0.000 C 
ATOM      9  O   UNL     1      -6.421   7.363 130.778  0.00  0.00    +0.000 OA
ATOM     10  C   UNL     1      -7.902   5.786 132.189  0.00  0.00    +0.000 C 
ENDROOT
BRANCH  10  11
ATOM     11  N   UNL     1      -9.057   5.486 131.299  0.00  0.00    +0.000 N 
ATOM     12  C   UNL     1     -10.307   5.925 131.676  0.00  0.00    +0.000 C 
ATOM     13  O   UNL     1     -10.450   6.577 132.713  0.00  0.00    +0.000 OA
ATOM     14  H   UNL     1      -8.924   5.049 130.392  0.00  0.00    +0.000 HD
BRANCH  12  15
ATOM     15  C   UNL     1     -11.493   5.518 130.761  0.00  0.00    +0.000 C 
BRANCH  15  16
ATOM     16  C   UNL     1     -11.798   6.565 129.696  0.00  0.00    +0.000 A 
ATOM     17  C   UNL     1     -12.938   6.441 128.886  0.00  0.00    +0.000 A 
ATOM     18  C   UNL     1     -13.127   7.298 127.797  0.00  0.00    +0.000 A 
ATOM     19  C   UNL     1     -12.235   8.344 127.557  0.00  0.00    +0.000 A 
ATOM     20  C   UNL     1     -11.121   8.501 128.370  0.00  0.00    +0.000 A 
ATOM     21  C   UNL     1     -10.899   7.609 129.414  0.00  0.00    +0.000 A 
ENDBRANCH  15  16
BRANCH  15  22
ATOM     22  N   UNL     1     -11.153   4.232 130.120  0.00  0.00    +0.000 NA
ATOM     23  H   UNL     1     -10.727   4.456 129.216  0.00  0.00    +0.000 HD
ATOM     24  H   UNL     1     -12.010   3.729 129.901  0.00  0.00    +0.000 HD
ENDBRANCH  15  22
ENDBRANCH  12  15
ENDBRANCH  10  11
BRANCH   6  25
ATOM     25  C   UNL     1      -3.378   5.237 131.444  0.00  0.00    +0.000 C 
ATOM     26  O   UNL     1      -3.012   5.454 132.593  0.00  0.00    +0.000 OA
BRANCH  25  27
ATOM     27  O   UNL     1      -2.497   5.271 130.401  0.00  0.00    +0.000 OA
BRANCH  27  28
ATOM     28  C   UNL     1      -3.063   5.771 129.133  0.00  0.00    +0.000 C 
ATOM     29  C   UNL     1      -3.185   7.307 129.165  0.00  0.00    +0.000 C 
BRANCH  28  30
ATOM     30  O   UNL     1      -2.214   5.380 128.011  0.00  0.00    +0.000 OA
BRANCH  30  31
ATOM     31  C   UNL     1      -2.605   4.287 127.288  0.00  0.00    +0.000 C 
ATOM     32  O   UNL     1      -1.879   3.364 126.943  0.00  0.00    +0.000 OA
BRANCH  31  33
ATOM     33  O   UNL     1      -3.944   4.357 127.015  0.00  0.00    +0.000 OA
BRANCH  33  34
ATOM     34  C   UNL     1      -4.325   3.789 125.743  0.00  0.00    +0.000 C 
ATOM     35  C   UNL     1      -5.160   2.531 125.948  0.00  0.00    +0.000 C 
ENDBRANCH  33  34
ENDBRANCH  31  33
ENDBRANCH  30  31
ENDBRANCH  28  30
ENDBRANCH  27  28
ENDBRANCH  25  27
ENDBRANCH   6  25
TORSDOF 11
ENDMDL
MODEL 9
REMARK VINA RESULT:      -7.1      2.210      2.955
REMARK  Name = Bacampicillin
REMARK  15 active torsions:
REMARK  status: ('A' for Active; 'I' for Inactive)
REMARK    1  A    between atoms: C_4  and  C_5
REMARK    2  A    between atoms: C_4  and  C_6
REMARK    3  A    between atoms: C_7  and  C_23
REMARK    4  A    between atoms: C_11  and  N_12
REMARK    5  A    between atoms: C_13  and  C_15
REMARK    6  A    between atoms: C_15  and  N_16
REMARK    7  A    between atoms: C_15  and  C_17
REMARK    8  A    between atoms: C_23  and  O_25
REMARK    9  A    between atoms: O_25  and  C_26
REMARK   10  A    between atoms: C_26  and  C_27
REMARK   11  A    between atoms: C_26  and  O_28
REMARK   12  A    between atoms: O_28  and  C_29
REMARK   13  A    between atoms: C_29  and  O_31
REMARK   14  A    between atoms: O_31  and  C_32
REMARK   15  A    between atoms: C_32  and  C_33
REMARK                            x       y       z     vdW  Elec       q    Type
REMARK                         _______ _______ _______ _____ _____    ______ ____
ROOT
ATOM      1  C   UNL     1      -6.970   0.565 127.474  0.00  0.00    +0.000 C 
ATOM      2  S   UNL     1      -5.363   0.425 126.622  0.00  0.00    +0.000 S 
ATOM      3  C   UNL     1      -4.814   2.056 127.342  0.00  0.00    +0.000 C 
ATOM      4  C   UNL     1      -3.701   2.581 126.434  0.00  0.00    +0.000 C 
ATOM      5  C   UNL     1      -4.254   1.740 128.744  0.00  0.00    +0.000 C 
ATOM      6  C   UNL     1      -6.113   2.939 127.329  0.00  0.00    +0.000 C 
ATOM      7  N   UNL     1      -7.233   2.018 127.572  0.00  0.00    +0.000 N 
ATOM      8  C   UNL     1      -8.278   1.973 126.677  0.00  0.00    +0.000 C 
ATOM      9  O   UNL     1      -8.823   2.870 126.089  0.00  0.00    +0.000 OA
ATOM     10  C   UNL     1      -8.243   0.414 126.634  0.00  0.00    +0.000 C 
ENDROOT
BRANCH  10  11
ATOM     11  N   UNL     1      -8.119  -0.232 125.298  0.00  0.00    +0.000 N 
ATOM     12  C   UNL     1      -8.995  -1.245 124.975  0.00  0.00    +0.000 C 
ATOM     13  O   UNL     1      -9.876  -1.581 125.769  0.00  0.00    +0.000 OA
ATOM     14  H   UNL     1      -7.468   0.119 124.603  0.00  0.00    +0.000 HD
BRANCH  12  15
ATOM     15  C   UNL     1      -8.775  -1.944 123.607  0.00  0.00    +0.000 C 
BRANCH  15  16
ATOM     16  C   UNL     1      -7.385  -2.555 123.477  0.00  0.00    +0.000 A 
ATOM     17  C   UNL     1      -7.015  -3.650 124.273  0.00  0.00    +0.000 A 
ATOM     18  C   UNL     1      -5.690  -4.101 124.283  0.00  0.00    +0.000 A 
ATOM     19  C   UNL     1      -4.743  -3.528 123.435  0.00  0.00    +0.000 A 
ATOM     20  C   UNL     1      -5.102  -2.467 122.617  0.00  0.00    +0.000 A 
ATOM     21  C   UNL     1      -6.403  -1.977 122.654  0.00  0.00    +0.000 A 
ENDBRANCH  15  16
BRANCH  15  22
ATOM     22  N   UNL     1      -9.802  -2.994 123.462  0.00  0.00    +0.000 NA
ATOM     23  H   UNL     1     -10.351  -2.992 124.327  0.00  0.00    +0.000 HD
ATOM     24  H   UNL     1      -9.351  -3.905 123.429  0.00  0.00    +0.000 HD
ENDBRANCH  15  22
ENDBRANCH  12  15
ENDBRANCH  10  11
BRANCH   6  25
ATOM     25  C   UNL     1      -6.067   4.109 128.344  0.00  0.00    +0.000 C 
ATOM     26  O   UNL     1      -5.507   5.169 128.087  0.00  0.00    +0.000 OA
BRANCH  25  27
ATOM     27  O   UNL     1      -6.726   3.924 129.525  0.00  0.00    +0.000 OA
BRANCH  27  28
ATOM     28  C   UNL     1      -7.895   4.804 129.722  0.00  0.00    +0.000 C 
ATOM     29  C   UNL     1      -9.196   3.977 129.740  0.00  0.00    +0.000 C 
BRANCH  28  30
ATOM     30  O   UNL     1      -7.773   5.534 130.980  0.00  0.00    +0.000 OA
BRANCH  30  31
ATOM     31  C   UNL     1      -8.638   6.576 131.180  0.00  0.00    +0.000 C 
ATOM     32  O   UNL     1      -8.945   7.417 130.346  0.00  0.00    +0.000 OA
BRANCH  31  33
ATOM     33  O   UNL     1      -9.135   6.538 132.454  0.00  0.00    +0.000 OA
BRANCH  33  34
ATOM     34  C   UNL     1      -8.815   5.334 133.185  0.00  0.00    +0.000 C 
ATOM     35  C   UNL     1      -7.997   5.664 134.427  0.00  0.00    +0.000 C 
ENDBRANCH  33  34
ENDBRANCH  31  33
ENDBRANCH  30  31
ENDBRANCH  28  30
ENDBRANCH  27  28
ENDBRANCH  25  27
ENDBRANCH   6  25
TORSDOF 11
ENDMDL
