MODEL 1
REMARK VINA RESULT:      -9.5      0.000      0.000
REMARK  Name = Baloxavir marboxil
REMARK  7 active torsions:
REMARK  status: ('A' for Active; 'I' for Inactive)
REMARK    1  A    between atoms: C_11  and  O_12
REMARK    2  A    between atoms: O_12  and  C_13
REMARK    3  A    between atoms: C_13  and  O_14
REMARK    4  A    between atoms: O_14  and  C_15
REMARK    5  A    between atoms: C_15  and  O_17
REMARK    6  A    between atoms: O_17  and  C_18
REMARK    7  A    between atoms: N_24  and  C_25
REMARK                            x       y       z     vdW  Elec       q    Type
REMARK                         _______ _______ _______ _____ _____    ______ ____
ROOT
ATOM      1  C   UNL     1      -8.986   2.853 130.679  0.00  0.00    +0.000 C 
ATOM      2  C   UNL     1     -10.452   3.097 130.489  0.00  0.00    +0.000 C 
ATOM      3  O   UNL     1     -11.457   4.013 130.107  0.00  0.00    +0.000 OA
ATOM      4  C   UNL     1     -11.056   5.333 129.973  0.00  0.00    +0.000 C 
ATOM      5  C   UNL     1      -9.650   5.560 130.491  0.00  0.00    +0.000 C 
ATOM      6  N   UNL     1      -8.661   4.403 130.735  0.00  0.00    +0.000 N 
ATOM      7  C   UNL     1      -7.578   4.783 131.460  0.00  0.00    +0.000 C 
ATOM      8  O   UNL     1      -7.555   5.776 132.183  0.00  0.00    +0.000 OA
ATOM      9  C   UNL     1      -6.441   3.931 130.997  0.00  0.00    +0.000 A 
ATOM     10  C   UNL     1      -5.228   4.522 131.293  0.00  0.00    +0.000 A 
ATOM     11  C   UNL     1      -4.067   3.761 130.770  0.00  0.00    +0.000 A 
ATOM     12  O   UNL     1      -2.904   4.080 130.984  0.00  0.00    +0.000 OA
ATOM     13  C   UNL     1      -4.278   2.549 129.979  0.00  0.00    +0.000 A 
ATOM     14  C   UNL     1      -5.483   2.118 129.674  0.00  0.00    +0.000 A 
ATOM     15  N   UNL     1      -6.628   2.694 130.043  0.00  0.00    +0.000 N 
ATOM     16  N   UNL     1      -7.830   1.575 129.991  0.00  0.00    +0.000 N 
ENDROOT
BRANCH  16  17
ATOM     17  C   UNL     1      -7.887   0.161 128.660  0.00  0.00    +0.000 C 
ATOM     18  C   UNL     1      -7.491  -0.344 126.617  0.00  0.00    +0.000 A 
ATOM     19  C   UNL     1      -7.590  -0.781 124.910  0.00  0.00    +0.000 A 
ATOM     20  C   UNL     1      -8.215  -1.864 123.616  0.00  0.00    +0.000 A 
ATOM     21  C   UNL     1      -9.132  -2.752 123.967  0.00  0.00    +0.000 A 
ATOM     22  F   UNL     1     -10.122  -3.292 123.222  0.00  0.00    +0.000 F 
ATOM     23  C   UNL     1      -9.016  -2.738 125.313  0.00  0.00    +0.000 A 
ATOM     24  F   UNL     1      -9.994  -3.394 125.942  0.00  0.00    +0.000 F 
ATOM     25  C   UNL     1      -8.111  -1.747 126.400  0.00  0.00    +0.000 A 
ATOM     26  C   UNL     1      -7.319  -2.898 127.024  0.00  0.00    +0.000 C 
ATOM     27  S   UNL     1      -8.452  -2.786 128.364  0.00  0.00    +0.000 S 
ATOM     28  C   UNL     1      -7.132  -2.178 129.271  0.00  0.00    +0.000 A 
ATOM     29  C   UNL     1      -6.385  -3.210 129.812  0.00  0.00    +0.000 A 
ATOM     30  C   UNL     1      -6.390  -3.482 131.149  0.00  0.00    +0.000 A 
ATOM     31  C   UNL     1      -6.866  -2.520 131.935  0.00  0.00    +0.000 A 
ATOM     32  C   UNL     1      -7.139  -1.314 131.226  0.00  0.00    +0.000 A 
ATOM     33  C   UNL     1      -7.375  -1.024 129.834  0.00  0.00    +0.000 A 
ENDBRANCH  16  17
BRANCH  10  34
ATOM     34  O   UNL     1      -5.017   5.726 132.021  0.00  0.00    +0.000 OA
BRANCH  34  35
ATOM     35  C   UNL     1      -4.465   6.902 131.334  0.00  0.00    +0.000 C 
BRANCH  35  36
ATOM     36  O   UNL     1      -4.817   6.947 129.920  0.00  0.00    +0.000 OA
BRANCH  36  37
ATOM     37  C   UNL     1      -3.764   6.873 129.043  0.00  0.00    +0.000 C 
ATOM     38  O   UNL     1      -2.586   7.027 129.330  0.00  0.00    +0.000 OA
BRANCH  37  39
ATOM     39  O   UNL     1      -4.224   6.600 127.782  0.00  0.00    +0.000 OA
ATOM     40  C   UNL     1      -4.107   5.230 127.348  0.00  0.00    +0.000 C 
ENDBRANCH  37  39
ENDBRANCH  36  37
ENDBRANCH  35  36
ENDBRANCH  34  35
ENDBRANCH  10  34
TORSDOF 6
ENDMDL
MODEL 2
REMARK VINA RESULT:      -9.5      2.578      5.947
REMARK  Name = Baloxavir marboxil
REMARK  7 active torsions:
REMARK  status: ('A' for Active; 'I' for Inactive)
REMARK    1  A    between atoms: C_11  and  O_12
REMARK    2  A    between atoms: O_12  and  C_13
REMARK    3  A    between atoms: C_13  and  O_14
REMARK    4  A    between atoms: O_14  and  C_15
REMARK    5  A    between atoms: C_15  and  O_17
REMARK    6  A    between atoms: O_17  and  C_18
REMARK    7  A    between atoms: N_24  and  C_25
REMARK                            x       y       z     vdW  Elec       q    Type
REMARK                         _______ _______ _______ _____ _____    ______ ____
ROOT
ATOM      1  C   UNL     1      -5.585   3.664 129.783  0.00  0.00    +0.000 C 
ATOM      2  C   UNL     1      -4.097   3.723 129.950  0.00  0.00    +0.000 C 
ATOM      3  O   UNL     1      -3.012   4.236 130.694  0.00  0.00    +0.000 OA
ATOM      4  C   UNL     1      -3.314   5.253 131.586  0.00  0.00    +0.000 C 
ATOM      5  C   UNL     1      -4.729   5.767 131.412  0.00  0.00    +0.000 C 
ATOM      6  N   UNL     1      -5.807   4.977 130.643  0.00  0.00    +0.000 N 
ATOM      7  C   UNL     1      -6.902   5.727 130.357  0.00  0.00    +0.000 C 
ATOM      8  O   UNL     1      -6.900   6.954 130.329  0.00  0.00    +0.000 OA
ATOM      9  C   UNL     1      -8.065   4.788 130.354  0.00  0.00    +0.000 A 
ATOM     10  C   UNL     1      -9.250   5.469 130.550  0.00  0.00    +0.000 A 
ATOM     11  C   UNL     1     -10.428   4.572 130.649  0.00  0.00    +0.000 A 
ATOM     12  O   UNL     1     -11.577   4.982 130.755  0.00  0.00    +0.000 OA
ATOM     13  C   UNL     1     -10.253   3.121 130.593  0.00  0.00    +0.000 A 
ATOM     14  C   UNL     1      -9.064   2.566 130.495  0.00  0.00    +0.000 A 
ATOM     15  N   UNL     1      -7.907   3.224 130.418  0.00  0.00    +0.000 N 
ATOM     16  N   UNL     1      -6.782   2.248 129.724  0.00  0.00    +0.000 N 
ENDROOT
BRANCH  16  17
ATOM     17  C   UNL     1      -6.744   0.326 130.009  0.00  0.00    +0.000 C 
ATOM     18  C   UNL     1      -7.151  -1.250 131.400  0.00  0.00    +0.000 A 
ATOM     19  C   UNL     1      -7.060  -2.584 132.553  0.00  0.00    +0.000 A 
ATOM     20  C   UNL     1      -6.450  -4.218 132.995  0.00  0.00    +0.000 A 
ATOM     21  C   UNL     1      -5.542  -4.756 132.196  0.00  0.00    +0.000 A 
ATOM     22  F   UNL     1      -4.559  -5.634 132.497  0.00  0.00    +0.000 F 
ATOM     23  C   UNL     1      -5.654  -3.976 131.100  0.00  0.00    +0.000 A 
ATOM     24  F   UNL     1      -4.681  -4.165 130.205  0.00  0.00    +0.000 F 
ATOM     25  C   UNL     1      -6.546  -2.532 130.775  0.00  0.00    +0.000 A 
ATOM     26  C   UNL     1      -7.348  -3.113 129.609  0.00  0.00    +0.000 C 
ATOM     27  S   UNL     1      -6.210  -2.268 128.568  0.00  0.00    +0.000 S 
ATOM     28  C   UNL     1      -7.521  -1.238 128.175  0.00  0.00    +0.000 A 
ATOM     29  C   UNL     1      -8.277  -1.769 127.146  0.00  0.00    +0.000 A 
ATOM     30  C   UNL     1      -8.271  -1.229 125.892  0.00  0.00    +0.000 A 
ATOM     31  C   UNL     1      -7.783   0.005 125.794  0.00  0.00    +0.000 A 
ATOM     32  C   UNL     1      -7.500   0.588 127.063  0.00  0.00    +0.000 A 
ATOM     33  C   UNL     1      -7.264   0.028 128.371  0.00  0.00    +0.000 A 
ENDBRANCH  16  17
BRANCH  10  34
ATOM     34  O   UNL     1      -9.422   6.878 130.654  0.00  0.00    +0.000 OA
BRANCH  34  35
ATOM     35  C   UNL     1     -10.163   7.598 129.609  0.00  0.00    +0.000 C 
BRANCH  35  36
ATOM     36  O   UNL     1      -9.703   7.272 128.264  0.00  0.00    +0.000 OA
BRANCH  36  37
ATOM     37  C   UNL     1     -10.684   6.927 127.369  0.00  0.00    +0.000 C 
ATOM     38  O   UNL     1     -10.541   6.821 126.160  0.00  0.00    +0.000 OA
BRANCH  37  39
ATOM     39  O   UNL     1     -11.866   6.717 128.030  0.00  0.00    +0.000 OA
ATOM     40  C   UNL     1     -13.057   7.178 127.360  0.00  0.00    +0.000 C 
ENDBRANCH  37  39
ENDBRANCH  36  37
ENDBRANCH  35  36
ENDBRANCH  34  35
ENDBRANCH  10  34
TORSDOF 6
ENDMDL
MODEL 3
REMARK VINA RESULT:      -9.4      3.751      5.024
REMARK  Name = Baloxavir marboxil
REMARK  7 active torsions:
REMARK  status: ('A' for Active; 'I' for Inactive)
REMARK    1  A    between atoms: C_11  and  O_12
REMARK    2  A    between atoms: O_12  and  C_13
REMARK    3  A    between atoms: C_13  and  O_14
REMARK    4  A    between atoms: O_14  and  C_15
REMARK    5  A    between atoms: C_15  and  O_17
REMARK    6  A    between atoms: O_17  and  C_18
REMARK    7  A    between atoms: N_24  and  C_25
REMARK                            x       y       z     vdW  Elec       q    Type
REMARK                         _______ _______ _______ _____ _____    ______ ____
ROOT
ATOM      1  C   UNL     1      -7.284   4.045 129.135  0.00  0.00    +0.000 C 
ATOM      2  C   UNL     1      -8.766   3.962 129.343  0.00  0.00    +0.000 C 
ATOM      3  O   UNL     1      -9.941   4.633 129.749  0.00  0.00    +0.000 OA
ATOM      4  C   UNL     1      -9.755   5.844 130.397  0.00  0.00    +0.000 C 
ATOM      5  C   UNL     1      -8.300   6.093 130.741  0.00  0.00    +0.000 C 
ATOM      6  N   UNL     1      -7.148   5.308 130.082  0.00  0.00    +0.000 N 
ATOM      7  C   UNL     1      -5.965   5.474 130.727  0.00  0.00    +0.000 C 
ATOM      8  O   UNL     1      -5.870   5.845 131.894  0.00  0.00    +0.000 OA
ATOM      9  C   UNL     1      -4.899   5.368 129.684  0.00  0.00    +0.000 A 
ATOM     10  C   UNL     1      -3.733   5.975 130.106  0.00  0.00    +0.000 A 
ATOM     11  C   UNL     1      -2.672   5.980 129.069  0.00  0.00    +0.000 A 
ATOM     12  O   UNL     1      -1.542   6.411 129.268  0.00  0.00    +0.000 OA
ATOM     13  C   UNL     1      -2.938   5.428 127.741  0.00  0.00    +0.000 A 
ATOM     14  C   UNL     1      -4.119   4.952 127.410  0.00  0.00    +0.000 A 
ATOM     15  N   UNL     1      -5.183   4.894 128.211  0.00  0.00    +0.000 N 
ATOM     16  N   UNL     1      -6.210   3.738 127.655  0.00  0.00    +0.000 N 
ENDROOT
BRANCH  16  17
ATOM     17  C   UNL     1      -6.449   3.375 125.761  0.00  0.00    +0.000 C 
ATOM     18  C   UNL     1      -5.654   3.695 123.798  0.00  0.00    +0.000 A 
ATOM     19  C   UNL     1      -5.350   4.199 122.134  0.00  0.00    +0.000 A 
ATOM     20  C   UNL     1      -5.915   4.374 120.435  0.00  0.00    +0.000 A 
ATOM     21  C   UNL     1      -7.195   4.131 120.199  0.00  0.00    +0.000 A 
ATOM     22  F   UNL     1      -7.998   4.651 119.245  0.00  0.00    +0.000 F 
ATOM     23  C   UNL     1      -7.556   3.483 121.328  0.00  0.00    +0.000 A 
ATOM     24  F   UNL     1      -8.875   3.313 121.451  0.00  0.00    +0.000 F 
ATOM     25  C   UNL     1      -6.733   3.174 122.815  0.00  0.00    +0.000 A 
ATOM     26  C   UNL     1      -6.827   1.650 122.722  0.00  0.00    +0.000 C 
ATOM     27  S   UNL     1      -8.165   1.788 123.856  0.00  0.00    +0.000 S 
ATOM     28  C   UNL     1      -7.116   1.055 124.994  0.00  0.00    +0.000 A 
ATOM     29  C   UNL     1      -7.164  -0.324 124.897  0.00  0.00    +0.000 A 
ATOM     30  C   UNL     1      -7.753  -1.096 125.855  0.00  0.00    +0.000 A 
ATOM     31  C   UNL     1      -7.970  -0.503 127.026  0.00  0.00    +0.000 A 
ATOM     32  C   UNL     1      -7.396   0.800 127.099  0.00  0.00    +0.000 A 
ATOM     33  C   UNL     1      -6.978   1.746 126.095  0.00  0.00    +0.000 A 
ENDBRANCH  16  17
BRANCH  10  34
ATOM     34  O   UNL     1      -3.483   6.557 131.380  0.00  0.00    +0.000 OA
BRANCH  34  35
ATOM     35  C   UNL     1      -3.162   7.988 131.474  0.00  0.00    +0.000 C 
BRANCH  35  36
ATOM     36  O   UNL     1      -2.705   8.378 132.803  0.00  0.00    +0.000 OA
BRANCH  36  37
ATOM     37  C   UNL     1      -1.345   8.430 132.971  0.00  0.00    +0.000 C 
ATOM     38  O   UNL     1      -0.550   7.570 132.621  0.00  0.00    +0.000 OA
BRANCH  37  39
ATOM     39  O   UNL     1      -0.996   9.597 133.599  0.00  0.00    +0.000 OA
ATOM     40  C   UNL     1       0.385   9.993 133.476  0.00  0.00    +0.000 C 
ENDBRANCH  37  39
ENDBRANCH  36  37
ENDBRANCH  35  36
ENDBRANCH  34  35
ENDBRANCH  10  34
TORSDOF 6
ENDMDL
MODEL 4
REMARK VINA RESULT:      -9.2      4.002      6.125
REMARK  Name = Baloxavir marboxil
REMARK  7 active torsions:
REMARK  status: ('A' for Active; 'I' for Inactive)
REMARK    1  A    between atoms: C_11  and  O_12
REMARK    2  A    between atoms: O_12  and  C_13
REMARK    3  A    between atoms: C_13  and  O_14
REMARK    4  A    between atoms: O_14  and  C_15
REMARK    5  A    between atoms: C_15  and  O_17
REMARK    6  A    between atoms: O_17  and  C_18
REMARK    7  A    between atoms: N_24  and  C_25
REMARK                            x       y       z     vdW  Elec       q    Type
REMARK                         _______ _______ _______ _____ _____    ______ ____
ROOT
ATOM      1  C   UNL     1      -8.358   0.959 130.625  0.00  0.00    +0.000 C 
ATOM      2  C   UNL     1      -9.371   2.045 130.819  0.00  0.00    +0.000 C 
ATOM      3  O   UNL     1      -9.667   3.291 131.415  0.00  0.00    +0.000 OA
ATOM      4  C   UNL     1      -8.774   3.730 132.379  0.00  0.00    +0.000 C 
ATOM      5  C   UNL     1      -7.771   2.660 132.761  0.00  0.00    +0.000 C 
ATOM      6  N   UNL     1      -7.520   1.412 131.891  0.00  0.00    +0.000 N 
ATOM      7  C   UNL     1      -6.812   0.454 132.541  0.00  0.00    +0.000 C 
ATOM      8  O   UNL     1      -6.726   0.380 133.764  0.00  0.00    +0.000 OA
ATOM      9  C   UNL     1      -6.014  -0.260 131.498  0.00  0.00    +0.000 A 
ATOM     10  C   UNL     1      -4.931  -0.906 132.061  0.00  0.00    +0.000 A 
ATOM     11  C   UNL     1      -4.052  -1.553 131.055  0.00  0.00    +0.000 A 
ATOM     12  O   UNL     1      -3.078  -2.233 131.353  0.00  0.00    +0.000 OA
ATOM     13  C   UNL     1      -4.345  -1.419 129.628  0.00  0.00    +0.000 A 
ATOM     14  C   UNL     1      -5.357  -0.701 129.190  0.00  0.00    +0.000 A 
ATOM     15  N   UNL     1      -6.226  -0.040 129.955  0.00  0.00    +0.000 N 
ATOM     16  N   UNL     1      -7.611   0.201 129.105  0.00  0.00    +0.000 N 
ENDROOT
BRANCH  16  17
ATOM     17  C   UNL     1      -7.620   0.528 127.189  0.00  0.00    +0.000 C 
ATOM     18  C   UNL     1      -6.687   1.598 125.586  0.00  0.00    +0.000 A 
ATOM     19  C   UNL     1      -6.289   2.691 124.259  0.00  0.00    +0.000 A 
ATOM     20  C   UNL     1      -6.705   3.421 122.668  0.00  0.00    +0.000 A 
ATOM     21  C   UNL     1      -7.916   3.175 122.193  0.00  0.00    +0.000 A 
ATOM     22  F   UNL     1      -8.681   3.938 121.381  0.00  0.00    +0.000 F 
ATOM     23  C   UNL     1      -8.301   2.137 122.966  0.00  0.00    +0.000 A 
ATOM     24  F   UNL     1      -9.594   1.827 122.844  0.00  0.00    +0.000 F 
ATOM     25  C   UNL     1      -7.593   1.380 124.348  0.00  0.00    +0.000 A 
ATOM     26  C   UNL     1      -7.488  -0.010 123.718  0.00  0.00    +0.000 C 
ATOM     27  S   UNL     1      -8.935  -0.399 124.639  0.00  0.00    +0.000 S 
ATOM     28  C   UNL     1      -7.918  -1.406 125.580  0.00  0.00    +0.000 A 
ATOM     29  C   UNL     1      -7.785  -2.656 125.003  0.00  0.00    +0.000 A 
ATOM     30  C   UNL     1      -8.363  -3.767 125.544  0.00  0.00    +0.000 A 
ATOM     31  C   UNL     1      -8.764  -3.656 126.808  0.00  0.00    +0.000 A 
ATOM     32  C   UNL     1      -8.365  -2.425 127.406  0.00  0.00    +0.000 A 
ATOM     33  C   UNL     1      -7.973  -1.149 126.860  0.00  0.00    +0.000 A 
ENDBRANCH  16  17
BRANCH  10  34
ATOM     34  O   UNL     1      -4.613  -1.000 133.444  0.00  0.00    +0.000 OA
BRANCH  34  35
ATOM     35  C   UNL     1      -4.717  -2.297 134.127  0.00  0.00    +0.000 C 
BRANCH  35  36
ATOM     36  O   UNL     1      -5.997  -2.956 133.895  0.00  0.00    +0.000 OA
BRANCH  36  37
ATOM     37  C   UNL     1      -5.927  -4.204 133.330  0.00  0.00    +0.000 C 
ATOM     38  O   UNL     1      -5.628  -5.235 133.913  0.00  0.00    +0.000 OA
BRANCH  37  39
ATOM     39  O   UNL     1      -6.246  -4.132 131.999  0.00  0.00    +0.000 OA
ATOM     40  C   UNL     1      -5.465  -4.963 131.116  0.00  0.00    +0.000 C 
ENDBRANCH  37  39
ENDBRANCH  36  37
ENDBRANCH  35  36
ENDBRANCH  34  35
ENDBRANCH  10  34
TORSDOF 6
ENDMDL
MODEL 5
REMARK VINA RESULT:      -9.2      3.086      5.855
REMARK  Name = Baloxavir marboxil
REMARK  7 active torsions:
REMARK  status: ('A' for Active; 'I' for Inactive)
REMARK    1  A    between atoms: C_11  and  O_12
REMARK    2  A    between atoms: O_12  and  C_13
REMARK    3  A    between atoms: C_13  and  O_14
REMARK    4  A    between atoms: O_14  and  C_15
REMARK    5  A    between atoms: C_15  and  O_17
REMARK    6  A    between atoms: O_17  and  C_18
REMARK    7  A    between atoms: N_24  and  C_25
REMARK                            x       y       z     vdW  Elec       q    Type
REMARK                         _______ _______ _______ _____ _____    ______ ____
ROOT
ATOM      1  C   UNL     1      -5.192   3.872 126.966  0.00  0.00    +0.000 C 
ATOM      2  C   UNL     1      -3.782   4.138 126.534  0.00  0.00    +0.000 C 
ATOM      3  O   UNL     1      -2.450   4.381 126.936  0.00  0.00    +0.000 OA
ATOM      4  C   UNL     1      -2.264   4.671 128.279  0.00  0.00    +0.000 C 
ATOM      5  C   UNL     1      -3.576   4.892 129.004  0.00  0.00    +0.000 C 
ATOM      6  N   UNL     1      -4.930   4.436 128.423  0.00  0.00    +0.000 N 
ATOM      7  C   UNL     1      -5.989   4.976 129.078  0.00  0.00    +0.000 C 
ATOM      8  O   UNL     1      -5.923   5.996 129.760  0.00  0.00    +0.000 OA
ATOM      9  C   UNL     1      -7.092   3.970 128.996  0.00  0.00    +0.000 A 
ATOM     10  C   UNL     1      -8.024   4.177 129.994  0.00  0.00    +0.000 A 
ATOM     11  C   UNL     1      -9.092   3.146 130.014  0.00  0.00    +0.000 A 
ATOM     12  O   UNL     1     -10.049   3.187 130.778  0.00  0.00    +0.000 OA
ATOM     13  C   UNL     1      -9.051   2.027 129.075  0.00  0.00    +0.000 A 
ATOM     14  C   UNL     1      -8.064   1.872 128.218  0.00  0.00    +0.000 A 
ATOM     15  N   UNL     1      -7.020   2.690 128.084  0.00  0.00    +0.000 N 
ATOM     16  N   UNL     1      -6.379   2.499 126.584  0.00  0.00    +0.000 N 
ENDROOT
BRANCH  16  17
ATOM     17  C   UNL     1      -6.340   0.782 125.673  0.00  0.00    +0.000 C 
ATOM     18  C   UNL     1      -6.045  -1.325 125.913  0.00  0.00    +0.000 A 
ATOM     19  C   UNL     1      -5.445  -2.985 125.887  0.00  0.00    +0.000 A 
ATOM     20  C   UNL     1      -4.821  -4.398 124.965  0.00  0.00    +0.000 A 
ATOM     21  C   UNL     1      -4.538  -4.204 123.686  0.00  0.00    +0.000 A 
ATOM     22  F   UNL     1      -3.621  -4.829 122.914  0.00  0.00    +0.000 F 
ATOM     23  C   UNL     1      -5.168  -3.033 123.448  0.00  0.00    +0.000 A 
ATOM     24  F   UNL     1      -4.856  -2.486 122.270  0.00  0.00    +0.000 F 
ATOM     25  C   UNL     1      -5.978  -1.909 124.479  0.00  0.00    +0.000 A 
ATOM     26  C   UNL     1      -7.328  -1.998 123.764  0.00  0.00    +0.000 C 
ATOM     27  S   UNL     1      -6.878  -0.484 122.990  0.00  0.00    +0.000 S 
ATOM     28  C   UNL     1      -8.108   0.229 123.946  0.00  0.00    +0.000 A 
ATOM     29  C   UNL     1      -9.341   0.122 123.328  0.00  0.00    +0.000 A 
ATOM     30  C   UNL     1      -9.976   1.205 122.792  0.00  0.00    +0.000 A 
ATOM     31  C   UNL     1      -9.527   2.394 123.184  0.00  0.00    +0.000 A 
ATOM     32  C   UNL     1      -8.554   2.302 124.222  0.00  0.00    +0.000 A 
ATOM     33  C   UNL     1      -7.689   1.237 124.665  0.00  0.00    +0.000 A 
ENDBRANCH  16  17
BRANCH  10  34
ATOM     34  O   UNL     1      -8.043   5.237 130.942  0.00  0.00    +0.000 OA
BRANCH  34  35
ATOM     35  C   UNL     1      -9.092   6.264 130.862  0.00  0.00    +0.000 C 
BRANCH  35  36
ATOM     36  O   UNL     1      -9.168   6.891 129.549  0.00  0.00    +0.000 OA
BRANCH  36  37
ATOM     37  C   UNL     1     -10.240   6.522 128.776  0.00  0.00    +0.000 C 
ATOM     38  O   UNL     1     -11.303   6.086 129.193  0.00  0.00    +0.000 OA
BRANCH  37  39
ATOM     39  O   UNL     1      -9.947   6.712 127.451  0.00  0.00    +0.000 OA
ATOM     40  C   UNL     1     -10.902   7.486 126.697  0.00  0.00    +0.000 C 
ENDBRANCH  37  39
ENDBRANCH  36  37
ENDBRANCH  35  36
ENDBRANCH  34  35
ENDBRANCH  10  34
TORSDOF 6
ENDMDL
MODEL 6
REMARK VINA RESULT:      -9.1      3.570      6.429
REMARK  Name = Baloxavir marboxil
REMARK  7 active torsions:
REMARK  status: ('A' for Active; 'I' for Inactive)
REMARK    1  A    between atoms: C_11  and  O_12
REMARK    2  A    between atoms: O_12  and  C_13
REMARK    3  A    between atoms: C_13  and  O_14
REMARK    4  A    between atoms: O_14  and  C_15
REMARK    5  A    between atoms: C_15  and  O_17
REMARK    6  A    between atoms: O_17  and  C_18
REMARK    7  A    between atoms: N_24  and  C_25
REMARK                            x       y       z     vdW  Elec       q    Type
REMARK                         _______ _______ _______ _____ _____    ______ ____
ROOT
ATOM      1  C   UNL     1      -6.430   2.038 127.406  0.00  0.00    +0.000 C 
ATOM      2  C   UNL     1      -5.173   1.930 126.598  0.00  0.00    +0.000 C 
ATOM      3  O   UNL     1      -3.986   2.566 126.171  0.00  0.00    +0.000 OA
ATOM      4  C   UNL     1      -3.906   3.928 126.412  0.00  0.00    +0.000 C 
ATOM      5  C   UNL     1      -5.224   4.504 126.888  0.00  0.00    +0.000 C 
ATOM      6  N   UNL     1      -6.365   3.621 127.433  0.00  0.00    +0.000 N 
ATOM      7  C   UNL     1      -7.543   4.288 127.531  0.00  0.00    +0.000 C 
ATOM      8  O   UNL     1      -7.802   5.312 126.904  0.00  0.00    +0.000 OA
ATOM      9  C   UNL     1      -8.275   3.681 128.685  0.00  0.00    +0.000 A 
ATOM     10  C   UNL     1      -9.229   4.550 129.176  0.00  0.00    +0.000 A 
ATOM     11  C   UNL     1      -9.920   4.033 130.384  0.00  0.00    +0.000 A 
ATOM     12  O   UNL     1     -10.845   4.621 130.931  0.00  0.00    +0.000 OA
ATOM     13  C   UNL     1      -9.527   2.749 130.963  0.00  0.00    +0.000 A 
ATOM     14  C   UNL     1      -8.537   2.036 130.468  0.00  0.00    +0.000 A 
ATOM     15  N   UNL     1      -7.801   2.366 129.406  0.00  0.00    +0.000 N 
ATOM     16  N   UNL     1      -7.126   1.005 128.781  0.00  0.00    +0.000 N 
ENDROOT
BRANCH  16  17
ATOM     17  C   UNL     1      -6.547  -0.482 129.890  0.00  0.00    +0.000 C 
ATOM     18  C   UNL     1      -6.147  -1.126 131.893  0.00  0.00    +0.000 A 
ATOM     19  C   UNL     1      -5.413  -1.657 133.408  0.00  0.00    +0.000 A 
ATOM     20  C   UNL     1      -4.328  -2.783 134.298  0.00  0.00    +0.000 A 
ATOM     21  C   UNL     1      -3.585  -3.602 133.571  0.00  0.00    +0.000 A 
ATOM     22  F   UNL     1      -2.376  -4.134 133.859  0.00  0.00    +0.000 F 
ATOM     23  C   UNL     1      -4.190  -3.514 132.367  0.00  0.00    +0.000 A 
ATOM     24  F   UNL     1      -3.498  -4.082 131.376  0.00  0.00    +0.000 F 
ATOM     25  C   UNL     1      -5.457  -2.507 131.764  0.00  0.00    +0.000 A 
ATOM     26  C   UNL     1      -6.395  -3.656 131.391  0.00  0.00    +0.000 C 
ATOM     27  S   UNL     1      -5.841  -3.409 129.741  0.00  0.00    +0.000 S 
ATOM     28  C   UNL     1      -7.417  -2.815 129.429  0.00  0.00    +0.000 A 
ATOM     29  C   UNL     1      -8.286  -3.849 129.127  0.00  0.00    +0.000 A 
ATOM     30  C   UNL     1      -8.768  -4.040 127.865  0.00  0.00    +0.000 A 
ATOM     31  C   UNL     1      -8.641  -3.011 127.031  0.00  0.00    +0.000 A 
ATOM     32  C   UNL     1      -8.154  -1.837 127.677  0.00  0.00    +0.000 A 
ATOM     33  C   UNL     1      -7.427  -1.619 128.903  0.00  0.00    +0.000 A 
ENDBRANCH  16  17
BRANCH  10  34
ATOM     34  O   UNL     1      -9.584   5.822 128.647  0.00  0.00    +0.000 OA
BRANCH  34  35
ATOM     35  C   UNL     1      -9.623   6.993 129.534  0.00  0.00    +0.000 C 
BRANCH  35  36
ATOM     36  O   UNL     1      -9.708   8.252 128.803  0.00  0.00    +0.000 OA
BRANCH  36  37
ATOM     37  C   UNL     1     -10.812   8.400 128.002  0.00  0.00    +0.000 C 
ATOM     38  O   UNL     1     -10.827   8.302 126.785  0.00  0.00    +0.000 OA
BRANCH  37  39
ATOM     39  O   UNL     1     -11.912   8.679 128.771  0.00  0.00    +0.000 OA
ATOM     40  C   UNL     1     -13.111   7.946 128.448  0.00  0.00    +0.000 C 
ENDBRANCH  37  39
ENDBRANCH  36  37
ENDBRANCH  35  36
ENDBRANCH  34  35
ENDBRANCH  10  34
TORSDOF 6
ENDMDL
MODEL 7
REMARK VINA RESULT:      -9.1      2.670      5.596
REMARK  Name = Baloxavir marboxil
REMARK  7 active torsions:
REMARK  status: ('A' for Active; 'I' for Inactive)
REMARK    1  A    between atoms: C_11  and  O_12
REMARK    2  A    between atoms: O_12  and  C_13
REMARK    3  A    between atoms: C_13  and  O_14
REMARK    4  A    between atoms: O_14  and  C_15
REMARK    5  A    between atoms: C_15  and  O_17
REMARK    6  A    between atoms: O_17  and  C_18
REMARK    7  A    between atoms: N_24  and  C_25
REMARK                            x       y       z     vdW  Elec       q    Type
REMARK                         _______ _______ _______ _____ _____    ______ ____
ROOT
ATOM      1  C   UNL     1      -5.851   4.258 128.054  0.00  0.00    +0.000 C 
ATOM      2  C   UNL     1      -4.610   4.640 127.305  0.00  0.00    +0.000 C 
ATOM      3  O   UNL     1      -3.212   4.835 127.359  0.00  0.00    +0.000 OA
ATOM      4  C   UNL     1      -2.651   4.863 128.626  0.00  0.00    +0.000 C 
ATOM      5  C   UNL     1      -3.701   4.904 129.717  0.00  0.00    +0.000 C 
ATOM      6  N   UNL     1      -5.176   4.535 129.461  0.00  0.00    +0.000 N 
ATOM      7  C   UNL     1      -5.995   4.910 130.477  0.00  0.00    +0.000 C 
ATOM      8  O   UNL     1      -5.710   5.779 131.297  0.00  0.00    +0.000 OA
ATOM      9  C   UNL     1      -7.106   3.911 130.512  0.00  0.00    +0.000 A 
ATOM     10  C   UNL     1      -7.717   3.896 131.751  0.00  0.00    +0.000 A 
ATOM     11  C   UNL     1      -8.767   2.853 131.868  0.00  0.00    +0.000 A 
ATOM     12  O   UNL     1      -9.471   2.720 132.862  0.00  0.00    +0.000 OA
ATOM     13  C   UNL     1      -9.023   1.939 130.756  0.00  0.00    +0.000 A 
ATOM     14  C   UNL     1      -8.319   1.980 129.645  0.00  0.00    +0.000 A 
ATOM     15  N   UNL     1      -7.329   2.835 129.386  0.00  0.00    +0.000 N 
ATOM     16  N   UNL     1      -7.138   2.956 127.759  0.00  0.00    +0.000 N 
ENDROOT
BRANCH  16  17
ATOM     17  C   UNL     1      -7.406   1.451 126.559  0.00  0.00    +0.000 C 
ATOM     18  C   UNL     1      -8.629  -0.253 126.126  0.00  0.00    +0.000 A 
ATOM     19  C   UNL     1      -9.289  -1.873 125.893  0.00  0.00    +0.000 A 
ATOM     20  C   UNL     1      -9.147  -3.523 125.189  0.00  0.00    +0.000 A 
ATOM     21  C   UNL     1      -7.992  -3.839 124.626  0.00  0.00    +0.000 A 
ATOM     22  F   UNL     1      -7.407  -5.051 124.507  0.00  0.00    +0.000 F 
ATOM     23  C   UNL     1      -7.421  -2.622 124.487  0.00  0.00    +0.000 A 
ATOM     24  F   UNL     1      -6.132  -2.671 124.139  0.00  0.00    +0.000 F 
ATOM     25  C   UNL     1      -7.875  -1.047 125.029  0.00  0.00    +0.000 A 
ATOM     26  C   UNL     1      -7.939  -0.423 123.634  0.00  0.00    +0.000 C 
ATOM     27  S   UNL     1      -6.357   0.253 123.999  0.00  0.00    +0.000 S 
ATOM     28  C   UNL     1      -7.152   1.768 124.060  0.00  0.00    +0.000 A 
ATOM     29  C   UNL     1      -7.250   2.328 122.798  0.00  0.00    +0.000 A 
ATOM     30  C   UNL     1      -6.512   3.416 122.431  0.00  0.00    +0.000 A 
ATOM     31  C   UNL     1      -5.962   4.107 123.426  0.00  0.00    +0.000 A 
ATOM     32  C   UNL     1      -6.385   3.655 124.711  0.00  0.00    +0.000 A 
ATOM     33  C   UNL     1      -6.954   2.415 125.178  0.00  0.00    +0.000 A 
ENDBRANCH  16  17
BRANCH  10  34
ATOM     34  O   UNL     1      -7.439   4.750 132.854  0.00  0.00    +0.000 OA
BRANCH  34  35
ATOM     35  C   UNL     1      -8.410   5.787 133.231  0.00  0.00    +0.000 C 
BRANCH  35  36
ATOM     36  O   UNL     1      -8.877   6.565 132.090  0.00  0.00    +0.000 OA
BRANCH  36  37
ATOM     37  C   UNL     1     -10.204   6.416 131.774  0.00  0.00    +0.000 C 
ATOM     38  O   UNL     1     -11.143   6.615 132.529  0.00  0.00    +0.000 OA
BRANCH  37  39
ATOM     39  O   UNL     1     -10.330   6.005 130.473  0.00  0.00    +0.000 OA
ATOM     40  C   UNL     1     -11.219   4.893 130.244  0.00  0.00    +0.000 C 
ENDBRANCH  37  39
ENDBRANCH  36  37
ENDBRANCH  35  36
ENDBRANCH  34  35
ENDBRANCH  10  34
TORSDOF 6
ENDMDL
MODEL 8
REMARK VINA RESULT:      -9.0      5.757      7.765
REMARK  Name = Baloxavir marboxil
REMARK  7 active torsions:
REMARK  status: ('A' for Active; 'I' for Inactive)
REMARK    1  A    between atoms: C_11  and  O_12
REMARK    2  A    between atoms: O_12  and  C_13
REMARK    3  A    between atoms: C_13  and  O_14
REMARK    4  A    between atoms: O_14  and  C_15
REMARK    5  A    between atoms: C_15  and  O_17
REMARK    6  A    between atoms: O_17  and  C_18
REMARK    7  A    between atoms: N_24  and  C_25
REMARK                            x       y       z     vdW  Elec       q    Type
REMARK                         _______ _______ _______ _____ _____    ______ ____
ROOT
ATOM      1  C   UNL     1      -5.843   5.768 134.393  0.00  0.00    +0.000 C 
ATOM      2  C   UNL     1      -6.541   5.951 135.706  0.00  0.00    +0.000 C 
ATOM      3  O   UNL     1      -6.624   6.692 136.906  0.00  0.00    +0.000 OA
ATOM      4  C   UNL     1      -5.565   7.547 137.167  0.00  0.00    +0.000 C 
ATOM      5  C   UNL     1      -4.411   7.339 136.206  0.00  0.00    +0.000 C 
ATOM      6  N   UNL     1      -4.571   6.583 134.872  0.00  0.00    +0.000 N 
ATOM      7  C   UNL     1      -3.379   6.260 134.307  0.00  0.00    +0.000 C 
ATOM      8  O   UNL     1      -2.324   6.193 134.931  0.00  0.00    +0.000 OA
ATOM      9  C   UNL     1      -3.598   6.273 132.828  0.00  0.00    +0.000 A 
ATOM     10  C   UNL     1      -2.404   6.433 132.154  0.00  0.00    +0.000 A 
ATOM     11  C   UNL     1      -2.577   6.546 130.684  0.00  0.00    +0.000 A 
ATOM     12  O   UNL     1      -1.637   6.626 129.902  0.00  0.00    +0.000 OA
ATOM     13  C   UNL     1      -3.917   6.539 130.098  0.00  0.00    +0.000 A 
ATOM     14  C   UNL     1      -5.001   6.472 130.841  0.00  0.00    +0.000 A 
ATOM     15  N   UNL     1      -5.023   6.389 132.172  0.00  0.00    +0.000 N 
ATOM     16  N   UNL     1      -6.457   5.739 132.643  0.00  0.00    +0.000 N 
ENDROOT
BRANCH  16  17
ATOM     17  C   UNL     1      -8.122   6.086 131.703  0.00  0.00    +0.000 C 
ATOM     18  C   UNL     1      -9.024   7.098 130.045  0.00  0.00    +0.000 A 
ATOM     19  C   UNL     1      -9.942   8.171 128.987  0.00  0.00    +0.000 A 
ATOM     20  C   UNL     1     -11.500   8.949 128.534  0.00  0.00    +0.000 A 
ATOM     21  C   UNL     1     -12.511   8.803 129.376  0.00  0.00    +0.000 A 
ATOM     22  F   UNL     1     -13.554   9.632 129.603  0.00  0.00    +0.000 F 
ATOM     23  C   UNL     1     -12.069   7.790 130.152  0.00  0.00    +0.000 A 
ATOM     24  F   UNL     1     -12.814   7.583 131.241  0.00  0.00    +0.000 F 
ATOM     25  C   UNL     1     -10.554   6.965 130.250  0.00  0.00    +0.000 A 
ATOM     26  C   UNL     1     -11.121   5.578 129.941  0.00  0.00    +0.000 C 
ATOM     27  S   UNL     1     -11.031   5.292 131.675  0.00  0.00    +0.000 S 
ATOM     28  C   UNL     1      -9.764   4.200 131.306  0.00  0.00    +0.000 A 
ATOM     29  C   UNL     1     -10.265   2.949 130.989  0.00  0.00    +0.000 A 
ATOM     30  C   UNL     1     -10.122   1.881 131.825  0.00  0.00    +0.000 A 
ATOM     31  C   UNL     1      -9.204   2.009 132.780  0.00  0.00    +0.000 A 
ATOM     32  C   UNL     1      -8.431   3.199 132.644  0.00  0.00    +0.000 A 
ATOM     33  C   UNL     1      -8.659   4.446 131.958  0.00  0.00    +0.000 A 
ENDBRANCH  16  17
BRANCH  10  34
ATOM     34  O   UNL     1      -1.101   6.490 132.721  0.00  0.00    +0.000 OA
BRANCH  34  35
ATOM     35  C   UNL     1      -0.421   7.786 132.852  0.00  0.00    +0.000 C 
BRANCH  35  36
ATOM     36  O   UNL     1      -1.352   8.897 133.013  0.00  0.00    +0.000 OA
BRANCH  36  37
ATOM     37  C   UNL     1      -0.780  10.119 133.262  0.00  0.00    +0.000 C 
ATOM     38  O   UNL     1      -1.384  11.170 133.418  0.00  0.00    +0.000 OA
BRANCH  37  39
ATOM     39  O   UNL     1       0.584   9.995 133.311  0.00  0.00    +0.000 OA
ATOM     40  C   UNL     1       1.339  11.184 133.001  0.00  0.00    +0.000 C 
ENDBRANCH  37  39
ENDBRANCH  36  37
ENDBRANCH  35  36
ENDBRANCH  34  35
ENDBRANCH  10  34
TORSDOF 6
ENDMDL
MODEL 9
REMARK VINA RESULT:      -8.9      4.116      6.135
REMARK  Name = Baloxavir marboxil
REMARK  7 active torsions:
REMARK  status: ('A' for Active; 'I' for Inactive)
REMARK    1  A    between atoms: C_11  and  O_12
REMARK    2  A    between atoms: O_12  and  C_13
REMARK    3  A    between atoms: C_13  and  O_14
REMARK    4  A    between atoms: O_14  and  C_15
REMARK    5  A    between atoms: C_15  and  O_17
REMARK    6  A    between atoms: O_17  and  C_18
REMARK    7  A    between atoms: N_24  and  C_25
REMARK                            x       y       z     vdW  Elec       q    Type
REMARK                         _______ _______ _______ _____ _____    ______ ____
ROOT
ATOM      1  C   UNL     1      -7.887   0.893 130.426  0.00  0.00    +0.000 C 
ATOM      2  C   UNL     1      -8.718   2.105 130.720  0.00  0.00    +0.000 C 
ATOM      3  O   UNL     1      -8.784   3.366 131.353  0.00  0.00    +0.000 OA
ATOM      4  C   UNL     1      -7.760   3.653 132.242  0.00  0.00    +0.000 C 
ATOM      5  C   UNL     1      -6.890   2.445 132.524  0.00  0.00    +0.000 C 
ATOM      6  N   UNL     1      -6.891   1.195 131.621  0.00  0.00    +0.000 N 
ATOM      7  C   UNL     1      -6.273   0.132 132.197  0.00  0.00    +0.000 C 
ATOM      8  O   UNL     1      -6.097   0.018 133.407  0.00  0.00    +0.000 OA
ATOM      9  C   UNL     1      -5.674  -0.661 131.080  0.00  0.00    +0.000 A 
ATOM     10  C   UNL     1      -4.650  -1.466 131.540  0.00  0.00    +0.000 A 
ATOM     11  C   UNL     1      -3.958  -2.205 130.455  0.00  0.00    +0.000 A 
ATOM     12  O   UNL     1      -3.068  -3.021 130.661  0.00  0.00    +0.000 OA
ATOM     13  C   UNL     1      -4.348  -1.998 129.061  0.00  0.00    +0.000 A 
ATOM     14  C   UNL     1      -5.281  -1.135 128.719  0.00  0.00    +0.000 A 
ATOM     15  N   UNL     1      -5.981  -0.377 129.564  0.00  0.00    +0.000 N 
ATOM     16  N   UNL     1      -7.385   0.075 128.839  0.00  0.00    +0.000 N 
ENDROOT
BRANCH  16  17
ATOM     17  C   UNL     1      -7.507   0.444 126.935  0.00  0.00    +0.000 C 
ATOM     18  C   UNL     1      -6.656   1.533 125.300  0.00  0.00    +0.000 A 
ATOM     19  C   UNL     1      -6.321   2.649 123.974  0.00  0.00    +0.000 A 
ATOM     20  C   UNL     1      -6.822   3.422 122.428  0.00  0.00    +0.000 A 
ATOM     21  C   UNL     1      -8.065   3.209 122.025  0.00  0.00    +0.000 A 
ATOM     22  F   UNL     1      -8.865   4.003 121.280  0.00  0.00    +0.000 F 
ATOM     23  C   UNL     1      -8.421   2.161 122.799  0.00  0.00    +0.000 A 
ATOM     24  F   UNL     1      -9.724   1.877 122.752  0.00  0.00    +0.000 F 
ATOM     25  C   UNL     1      -7.642   1.360 124.117  0.00  0.00    +0.000 A 
ATOM     26  C   UNL     1      -7.604  -0.017 123.452  0.00  0.00    +0.000 C 
ATOM     27  S   UNL     1      -8.998  -0.401 124.454  0.00  0.00    +0.000 S 
ATOM     28  C   UNL     1      -7.943  -1.447 125.308  0.00  0.00    +0.000 A 
ATOM     29  C   UNL     1      -7.871  -2.686 124.696  0.00  0.00    +0.000 A 
ATOM     30  C   UNL     1      -8.436  -3.798 125.249  0.00  0.00    +0.000 A 
ATOM     31  C   UNL     1      -8.754  -3.708 126.538  0.00  0.00    +0.000 A 
ATOM     32  C   UNL     1      -8.295  -2.498 127.136  0.00  0.00    +0.000 A 
ATOM     33  C   UNL     1      -7.913  -1.218 126.594  0.00  0.00    +0.000 A 
ENDBRANCH  16  17
BRANCH  10  34
ATOM     34  O   UNL     1      -4.234  -1.635 132.890  0.00  0.00    +0.000 OA
BRANCH  34  35
ATOM     35  C   UNL     1      -2.997  -0.993 133.355  0.00  0.00    +0.000 C 
BRANCH  35  36
ATOM     36  O   UNL     1      -1.843  -1.881 133.296  0.00  0.00    +0.000 OA
BRANCH  36  37
ATOM     37  C   UNL     1      -1.100  -1.968 134.446  0.00  0.00    +0.000 C 
ATOM     38  O   UNL     1      -1.476  -1.644 135.563  0.00  0.00    +0.000 OA
BRANCH  37  39
ATOM     39  O   UNL     1       0.141  -2.476 134.164  0.00  0.00    +0.000 OA
ATOM     40  C   UNL     1       0.687  -3.390 135.136  0.00  0.00    +0.000 C 
ENDBRANCH  37  39
ENDBRANCH  36  37
ENDBRANCH  35  36
ENDBRANCH  34  35
ENDBRANCH  10  34
TORSDOF 6
ENDMDL
