MODEL 1
REMARK VINA RESULT:      -7.0      0.000      0.000
REMARK  Name = Balsalazide
REMARK  10 active torsions:
REMARK  status: ('A' for Active; 'I' for Inactive)
REMARK    1  A    between atoms: O_1  and  C_2
REMARK    2  A    between atoms: C_2  and  C_4
REMARK    3  A    between atoms: C_4  and  C_5
REMARK    4  A    between atoms: C_5  and  N_6
REMARK    5  A    between atoms: C_7  and  C_9
REMARK    6  A    between atoms: C_12  and  N_15
REMARK    7  A    between atoms: N_16  and  C_17
REMARK    8  A    between atoms: C_20  and  O_21
REMARK    9  A    between atoms: C_22  and  C_24
REMARK   10  A    between atoms: C_24  and  O_25
REMARK                            x       y       z     vdW  Elec       q    Type
REMARK                         _______ _______ _______ _____ _____    ______ ____
ROOT
ATOM      1  C   UNL     1     -10.160   6.501 131.385  0.00  0.00    +0.000 A 
ATOM      2  C   UNL     1      -9.081   6.984 130.632  0.00  0.00    +0.000 A 
ATOM      3  C   UNL     1      -7.750   6.773 131.063  0.00  0.00    +0.000 A 
ATOM      4  C   UNL     1      -7.450   6.132 132.279  0.00  0.00    +0.000 A 
ATOM      5  C   UNL     1      -8.550   5.657 133.017  0.00  0.00    +0.000 A 
ATOM      6  C   UNL     1      -9.885   5.834 132.580  0.00  0.00    +0.000 A 
ENDROOT
BRANCH   1   8
ATOM      7  N   UNL     1     -11.704   6.540 129.450  0.00  0.00    +0.000 N 
ATOM      8  C   UNL     1     -11.553   6.563 130.831  0.00  0.00    +0.000 C 
ATOM      9  O   UNL     1     -12.500   6.647 131.607  0.00  0.00    +0.000 OA
ATOM     10  H   UNL     1     -10.896   6.374 128.868  0.00  0.00    +0.000 HD
BRANCH   7  11
ATOM     11  C   UNL     1     -13.036   6.620 128.842  0.00  0.00    +0.000 C 
BRANCH  11  12
ATOM     12  C   UNL     1     -13.051   7.261 127.449  0.00  0.00    +0.000 C 
BRANCH  12  13
ATOM     13  C   UNL     1     -11.636   7.530 126.981  0.00  0.00    +0.000 C 
ATOM     14  O   UNL     1     -10.977   6.769 126.288  0.00  0.00    +0.000 OA
BRANCH  13  15
ATOM     15  O   UNL     1     -11.130   8.715 127.394  0.00  0.00    +0.000 OA
ATOM     16  H   UNL     1     -10.169   8.753 127.544  0.00  0.00    +0.000 HD
ENDBRANCH  13  15
ENDBRANCH  12  13
ENDBRANCH  11  12
ENDBRANCH   7  11
ENDBRANCH   1   8
BRANCH   4  17
ATOM     17  N   UNL     1      -6.078   6.041 132.687  0.00  0.00    +0.000 NA
ATOM     18  N   UNL     1      -5.903   6.110 133.927  0.00  0.00    +0.000 NA
BRANCH  18  19
ATOM     19  C   UNL     1      -4.539   6.173 134.336  0.00  0.00    +0.000 A 
ATOM     20  C   UNL     1      -4.243   6.680 135.614  0.00  0.00    +0.000 A 
ATOM     21  C   UNL     1      -2.923   6.939 136.027  0.00  0.00    +0.000 A 
ATOM     22  C   UNL     1      -1.858   6.635 135.182  0.00  0.00    +0.000 A 
ATOM     23  C   UNL     1      -2.107   6.135 133.899  0.00  0.00    +0.000 A 
ATOM     24  C   UNL     1      -3.448   5.910 133.491  0.00  0.00    +0.000 A 
BRANCH  22  25
ATOM     25  O   UNL     1      -0.567   6.828 135.610  0.00  0.00    +0.000 OA
ATOM     26  H   UNL     1      -0.437   6.379 136.469  0.00  0.00    +0.000 HD
ENDBRANCH  22  25
BRANCH  23  27
ATOM     27  C   UNL     1      -1.026   5.866 132.905  0.00  0.00    +0.000 C 
ATOM     28  O   UNL     1      -0.968   4.810 132.285  0.00  0.00    +0.000 OA
BRANCH  27  29
ATOM     29  O   UNL     1      -0.129   6.854 132.707  0.00  0.00    +0.000 OA
ATOM     30  H   UNL     1       0.404   6.734 131.889  0.00  0.00    +0.000 HD
ENDBRANCH  27  29
ENDBRANCH  23  27
ENDBRANCH  18  19
ENDBRANCH   4  17
TORSDOF 10
ENDMDL
MODEL 2
REMARK VINA RESULT:      -7.0      6.265      8.627
REMARK  Name = Balsalazide
REMARK  10 active torsions:
REMARK  status: ('A' for Active; 'I' for Inactive)
REMARK    1  A    between atoms: O_1  and  C_2
REMARK    2  A    between atoms: C_2  and  C_4
REMARK    3  A    between atoms: C_4  and  C_5
REMARK    4  A    between atoms: C_5  and  N_6
REMARK    5  A    between atoms: C_7  and  C_9
REMARK    6  A    between atoms: C_12  and  N_15
REMARK    7  A    between atoms: N_16  and  C_17
REMARK    8  A    between atoms: C_20  and  O_21
REMARK    9  A    between atoms: C_22  and  C_24
REMARK   10  A    between atoms: C_24  and  O_25
REMARK                            x       y       z     vdW  Elec       q    Type
REMARK                         _______ _______ _______ _____ _____    ______ ____
ROOT
ATOM      1  C   UNL     1      -5.813   4.188 124.350  0.00  0.00    +0.000 A 
ATOM      2  C   UNL     1      -7.152   4.295 124.747  0.00  0.00    +0.000 A 
ATOM      3  C   UNL     1      -7.490   4.437 126.114  0.00  0.00    +0.000 A 
ATOM      4  C   UNL     1      -6.518   4.414 127.131  0.00  0.00    +0.000 A 
ATOM      5  C   UNL     1      -5.180   4.304 126.707  0.00  0.00    +0.000 A 
ATOM      6  C   UNL     1      -4.829   4.195 125.340  0.00  0.00    +0.000 A 
ENDROOT
BRANCH   1   8
ATOM      7  N   UNL     1      -6.192   3.438 122.022  0.00  0.00    +0.000 N 
ATOM      8  C   UNL     1      -5.453   4.227 122.895  0.00  0.00    +0.000 C 
ATOM      9  O   UNL     1      -4.519   4.935 122.530  0.00  0.00    +0.000 OA
ATOM     10  H   UNL     1      -7.007   2.952 122.366  0.00  0.00    +0.000 HD
BRANCH   7  11
ATOM     11  C   UNL     1      -5.879   3.413 120.589  0.00  0.00    +0.000 C 
BRANCH  11  12
ATOM     12  C   UNL     1      -6.718   4.383 119.748  0.00  0.00    +0.000 C 
BRANCH  12  13
ATOM     13  C   UNL     1      -5.841   5.484 119.190  0.00  0.00    +0.000 C 
ATOM     14  O   UNL     1      -5.890   5.895 118.039  0.00  0.00    +0.000 OA
BRANCH  13  15
ATOM     15  O   UNL     1      -4.969   6.006 120.083  0.00  0.00    +0.000 OA
ATOM     16  H   UNL     1      -4.375   5.379 120.532  0.00  0.00    +0.000 HD
ENDBRANCH  13  15
ENDBRANCH  12  13
ENDBRANCH  11  12
ENDBRANCH   7  11
ENDBRANCH   1   8
BRANCH   4  17
ATOM     17  N   UNL     1      -6.951   4.470 128.497  0.00  0.00    +0.000 NA
ATOM     18  N   UNL     1      -7.439   3.397 128.928  0.00  0.00    +0.000 NA
BRANCH  18  19
ATOM     19  C   UNL     1      -8.011   3.481 130.231  0.00  0.00    +0.000 A 
ATOM     20  C   UNL     1      -8.279   2.288 130.925  0.00  0.00    +0.000 A 
ATOM     21  C   UNL     1      -9.000   2.275 132.134  0.00  0.00    +0.000 A 
ATOM     22  C   UNL     1      -9.416   3.473 132.710  0.00  0.00    +0.000 A 
ATOM     23  C   UNL     1      -9.175   4.683 132.049  0.00  0.00    +0.000 A 
ATOM     24  C   UNL     1      -8.474   4.672 130.815  0.00  0.00    +0.000 A 
BRANCH  22  25
ATOM     25  O   UNL     1     -10.062   3.463 133.921  0.00  0.00    +0.000 OA
ATOM     26  H   UNL     1     -10.831   4.066 133.887  0.00  0.00    +0.000 HD
ENDBRANCH  22  25
BRANCH  23  27
ATOM     27  C   UNL     1      -9.664   6.000 132.557  0.00  0.00    +0.000 C 
ATOM     28  O   UNL     1     -10.399   6.717 131.885  0.00  0.00    +0.000 OA
BRANCH  27  29
ATOM     29  O   UNL     1      -9.277   6.350 133.801  0.00  0.00    +0.000 OA
ATOM     30  H   UNL     1      -9.204   7.323 133.923  0.00  0.00    +0.000 HD
ENDBRANCH  27  29
ENDBRANCH  23  27
ENDBRANCH  18  19
ENDBRANCH   4  17
TORSDOF 10
ENDMDL
MODEL 3
REMARK VINA RESULT:      -6.9      5.999      9.981
REMARK  Name = Balsalazide
REMARK  10 active torsions:
REMARK  status: ('A' for Active; 'I' for Inactive)
REMARK    1  A    between atoms: O_1  and  C_2
REMARK    2  A    between atoms: C_2  and  C_4
REMARK    3  A    between atoms: C_4  and  C_5
REMARK    4  A    between atoms: C_5  and  N_6
REMARK    5  A    between atoms: C_7  and  C_9
REMARK    6  A    between atoms: C_12  and  N_15
REMARK    7  A    between atoms: N_16  and  C_17
REMARK    8  A    between atoms: C_20  and  O_21
REMARK    9  A    between atoms: C_22  and  C_24
REMARK   10  A    between atoms: C_24  and  O_25
REMARK                            x       y       z     vdW  Elec       q    Type
REMARK                         _______ _______ _______ _____ _____    ______ ____
ROOT
ATOM      1  C   UNL     1      -8.226  -0.248 131.090  0.00  0.00    +0.000 A 
ATOM      2  C   UNL     1      -7.864   0.356 129.879  0.00  0.00    +0.000 A 
ATOM      3  C   UNL     1      -8.325   1.655 129.555  0.00  0.00    +0.000 A 
ATOM      4  C   UNL     1      -9.206   2.365 130.390  0.00  0.00    +0.000 A 
ATOM      5  C   UNL     1      -9.555   1.737 131.600  0.00  0.00    +0.000 A 
ATOM      6  C   UNL     1      -9.074   0.452 131.949  0.00  0.00    +0.000 A 
ENDROOT
BRANCH   1   8
ATOM      7  N   UNL     1      -6.742  -2.169 130.602  0.00  0.00    +0.000 N 
ATOM      8  C   UNL     1      -7.586  -1.539 131.508  0.00  0.00    +0.000 C 
ATOM      9  O   UNL     1      -7.838  -1.996 132.619  0.00  0.00    +0.000 OA
ATOM     10  H   UNL     1      -6.499  -1.697 129.743  0.00  0.00    +0.000 HD
BRANCH   7  11
ATOM     11  C   UNL     1      -6.101  -3.444 130.938  0.00  0.00    +0.000 C 
BRANCH  11  12
ATOM     12  C   UNL     1      -4.972  -3.850 129.982  0.00  0.00    +0.000 C 
BRANCH  12  13
ATOM     13  C   UNL     1      -4.656  -2.712 129.034  0.00  0.00    +0.000 C 
ATOM     14  O   UNL     1      -5.155  -2.570 127.927  0.00  0.00    +0.000 OA
BRANCH  13  15
ATOM     15  O   UNL     1      -3.752  -1.826 129.512  0.00  0.00    +0.000 OA
ATOM     16  H   UNL     1      -4.082  -0.935 129.727  0.00  0.00    +0.000 HD
ENDBRANCH  13  15
ENDBRANCH  12  13
ENDBRANCH  11  12
ENDBRANCH   7  11
ENDBRANCH   1   8
BRANCH   4  17
ATOM     17  N   UNL     1      -9.699   3.637 129.946  0.00  0.00    +0.000 NA
ATOM     18  N   UNL     1     -10.227   4.329 130.848  0.00  0.00    +0.000 NA
BRANCH  18  19
ATOM     19  C   UNL     1     -10.857   5.525 130.394  0.00  0.00    +0.000 A 
ATOM     20  C   UNL     1     -11.728   6.199 131.267  0.00  0.00    +0.000 A 
ATOM     21  C   UNL     1     -12.521   7.282 130.841  0.00  0.00    +0.000 A 
ATOM     22  C   UNL     1     -12.409   7.754 129.535  0.00  0.00    +0.000 A 
ATOM     23  C   UNL     1     -11.559   7.108 128.631  0.00  0.00    +0.000 A 
ATOM     24  C   UNL     1     -10.792   5.998 129.073  0.00  0.00    +0.000 A 
BRANCH  22  25
ATOM     25  O   UNL     1     -13.136   8.850 129.139  0.00  0.00    +0.000 OA
ATOM     26  H   UNL     1     -14.089   8.675 129.267  0.00  0.00    +0.000 HD
ENDBRANCH  22  25
BRANCH  23  27
ATOM     27  C   UNL     1     -11.449   7.499 127.194  0.00  0.00    +0.000 C 
ATOM     28  O   UNL     1     -10.916   8.549 126.850  0.00  0.00    +0.000 OA
BRANCH  27  29
ATOM     29  O   UNL     1     -11.946   6.628 126.292  0.00  0.00    +0.000 OA
ATOM     30  H   UNL     1     -11.974   5.703 126.622  0.00  0.00    +0.000 HD
ENDBRANCH  27  29
ENDBRANCH  23  27
ENDBRANCH  18  19
ENDBRANCH   4  17
TORSDOF 10
ENDMDL
MODEL 4
REMARK VINA RESULT:      -6.9      9.323     10.281
REMARK  Name = Balsalazide
REMARK  10 active torsions:
REMARK  status: ('A' for Active; 'I' for Inactive)
REMARK    1  A    between atoms: O_1  and  C_2
REMARK    2  A    between atoms: C_2  and  C_4
REMARK    3  A    between atoms: C_4  and  C_5
REMARK    4  A    between atoms: C_5  and  N_6
REMARK    5  A    between atoms: C_7  and  C_9
REMARK    6  A    between atoms: C_12  and  N_15
REMARK    7  A    between atoms: N_16  and  C_17
REMARK    8  A    between atoms: C_20  and  O_21
REMARK    9  A    between atoms: C_22  and  C_24
REMARK   10  A    between atoms: C_24  and  O_25
REMARK                            x       y       z     vdW  Elec       q    Type
REMARK                         _______ _______ _______ _____ _____    ______ ____
ROOT
ATOM      1  C   UNL     1      -8.962  -1.476 125.497  0.00  0.00    +0.000 A 
ATOM      2  C   UNL     1      -8.186  -0.839 126.475  0.00  0.00    +0.000 A 
ATOM      3  C   UNL     1      -7.780  -1.534 127.639  0.00  0.00    +0.000 A 
ATOM      4  C   UNL     1      -8.181  -2.857 127.898  0.00  0.00    +0.000 A 
ATOM      5  C   UNL     1      -8.961  -3.474 126.903  0.00  0.00    +0.000 A 
ATOM      6  C   UNL     1      -9.345  -2.800 125.719  0.00  0.00    +0.000 A 
ENDROOT
BRANCH   1   8
ATOM      7  N   UNL     1      -9.113   0.586 124.137  0.00  0.00    +0.000 N 
ATOM      8  C   UNL     1      -9.228  -0.798 124.186  0.00  0.00    +0.000 C 
ATOM      9  O   UNL     1      -9.549  -1.478 123.217  0.00  0.00    +0.000 OA
ATOM     10  H   UNL     1      -8.753   1.081 124.940  0.00  0.00    +0.000 HD
BRANCH   7  11
ATOM     11  C   UNL     1      -9.381   1.315 122.893  0.00  0.00    +0.000 C 
BRANCH  11  12
ATOM     12  C   UNL     1      -8.741   2.708 122.833  0.00  0.00    +0.000 C 
BRANCH  12  13
ATOM     13  C   UNL     1      -8.169   3.080 124.185  0.00  0.00    +0.000 C 
ATOM     14  O   UNL     1      -7.011   2.888 124.525  0.00  0.00    +0.000 OA
BRANCH  13  15
ATOM     15  O   UNL     1      -9.057   3.664 125.022  0.00  0.00    +0.000 OA
ATOM     16  H   UNL     1      -8.697   4.063 125.834  0.00  0.00    +0.000 HD
ENDBRANCH  13  15
ENDBRANCH  12  13
ENDBRANCH  11  12
ENDBRANCH   7  11
ENDBRANCH   1   8
BRANCH   4  17
ATOM     17  N   UNL     1      -7.805  -3.458 129.145  0.00  0.00    +0.000 NA
ATOM     18  N   UNL     1      -7.320  -2.655 129.979  0.00  0.00    +0.000 NA
BRANCH  18  19
ATOM     19  C   UNL     1      -6.802  -3.261 131.161  0.00  0.00    +0.000 A 
ATOM     20  C   UNL     1      -5.864  -4.300 131.027  0.00  0.00    +0.000 A 
ATOM     21  C   UNL     1      -5.437  -5.066 132.129  0.00  0.00    +0.000 A 
ATOM     22  C   UNL     1      -5.900  -4.762 133.408  0.00  0.00    +0.000 A 
ATOM     23  C   UNL     1      -6.839  -3.740 133.584  0.00  0.00    +0.000 A 
ATOM     24  C   UNL     1      -7.280  -3.001 132.455  0.00  0.00    +0.000 A 
BRANCH  22  25
ATOM     25  O   UNL     1      -5.434  -5.468 134.490  0.00  0.00    +0.000 OA
ATOM     26  H   UNL     1      -6.069  -5.390 135.229  0.00  0.00    +0.000 HD
ENDBRANCH  22  25
BRANCH  23  27
ATOM     27  C   UNL     1      -7.447  -3.413 134.908  0.00  0.00    +0.000 C 
ATOM     28  O   UNL     1      -6.781  -3.400 135.938  0.00  0.00    +0.000 OA
BRANCH  27  29
ATOM     29  O   UNL     1      -8.762  -3.110 134.911  0.00  0.00    +0.000 OA
ATOM     30  H   UNL     1      -8.976  -2.316 134.373  0.00  0.00    +0.000 HD
ENDBRANCH  27  29
ENDBRANCH  23  27
ENDBRANCH  18  19
ENDBRANCH   4  17
TORSDOF 10
ENDMDL
MODEL 5
REMARK VINA RESULT:      -6.8      1.886      2.469
REMARK  Name = Balsalazide
REMARK  10 active torsions:
REMARK  status: ('A' for Active; 'I' for Inactive)
REMARK    1  A    between atoms: O_1  and  C_2
REMARK    2  A    between atoms: C_2  and  C_4
REMARK    3  A    between atoms: C_4  and  C_5
REMARK    4  A    between atoms: C_5  and  N_6
REMARK    5  A    between atoms: C_7  and  C_9
REMARK    6  A    between atoms: C_12  and  N_15
REMARK    7  A    between atoms: N_16  and  C_17
REMARK    8  A    between atoms: C_20  and  O_21
REMARK    9  A    between atoms: C_22  and  C_24
REMARK   10  A    between atoms: C_24  and  O_25
REMARK                            x       y       z     vdW  Elec       q    Type
REMARK                         _______ _______ _______ _____ _____    ______ ____
ROOT
ATOM      1  C   UNL     1      -9.542   5.804 130.710  0.00  0.00    +0.000 A 
ATOM      2  C   UNL     1      -8.863   7.014 130.512  0.00  0.00    +0.000 A 
ATOM      3  C   UNL     1      -7.527   7.171 130.951  0.00  0.00    +0.000 A 
ATOM      4  C   UNL     1      -6.847   6.160 131.653  0.00  0.00    +0.000 A 
ATOM      5  C   UNL     1      -7.550   4.955 131.841  0.00  0.00    +0.000 A 
ATOM      6  C   UNL     1      -8.875   4.775 131.377  0.00  0.00    +0.000 A 
ENDROOT
BRANCH   1   8
ATOM      7  N   UNL     1     -11.561   6.689 129.583  0.00  0.00    +0.000 N 
ATOM      8  C   UNL     1     -10.885   5.581 130.079  0.00  0.00    +0.000 C 
ATOM      9  O   UNL     1     -11.342   4.443 130.037  0.00  0.00    +0.000 OA
ATOM     10  H   UNL     1     -11.093   7.583 129.561  0.00  0.00    +0.000 HD
BRANCH   7  11
ATOM     11  C   UNL     1     -12.887   6.545 128.974  0.00  0.00    +0.000 C 
BRANCH  11  12
ATOM     12  C   UNL     1     -12.991   7.125 127.557  0.00  0.00    +0.000 C 
BRANCH  12  13
ATOM     13  C   UNL     1     -11.614   7.477 127.033  0.00  0.00    +0.000 C 
ATOM     14  O   UNL     1     -10.911   6.729 126.370  0.00  0.00    +0.000 OA
BRANCH  13  15
ATOM     15  O   UNL     1     -11.199   8.723 127.357  0.00  0.00    +0.000 OA
ATOM     16  H   UNL     1     -10.969   8.880 128.291  0.00  0.00    +0.000 HD
ENDBRANCH  13  15
ENDBRANCH  12  13
ENDBRANCH  11  12
ENDBRANCH   7  11
ENDBRANCH   1   8
BRANCH   4  17
ATOM     17  N   UNL     1      -5.527   6.433 132.145  0.00  0.00    +0.000 NA
ATOM     18  N   UNL     1      -4.746   6.909 131.287  0.00  0.00    +0.000 NA
BRANCH  18  19
ATOM     19  C   UNL     1      -3.393   7.043 131.719  0.00  0.00    +0.000 A 
ATOM     20  C   UNL     1      -2.594   5.889 131.790  0.00  0.00    +0.000 A 
ATOM     21  C   UNL     1      -1.311   5.905 132.370  0.00  0.00    +0.000 A 
ATOM     22  C   UNL     1      -0.774   7.102 132.838  0.00  0.00    +0.000 A 
ATOM     23  C   UNL     1      -1.539   8.273 132.792  0.00  0.00    +0.000 A 
ATOM     24  C   UNL     1      -2.842   8.228 132.233  0.00  0.00    +0.000 A 
BRANCH  22  25
ATOM     25  O   UNL     1       0.502   7.128 133.344  0.00  0.00    +0.000 OA
ATOM     26  H   UNL     1       0.625   6.380 133.961  0.00  0.00    +0.000 HD
ENDBRANCH  22  25
BRANCH  23  27
ATOM     27  C   UNL     1      -1.068   9.575 133.353  0.00  0.00    +0.000 C 
ATOM     28  O   UNL     1      -0.146   9.634 134.159  0.00  0.00    +0.000 OA
BRANCH  27  29
ATOM     29  O   UNL     1      -1.694  10.685 132.909  0.00  0.00    +0.000 OA
ATOM     30  H   UNL     1      -2.040  10.594 131.993  0.00  0.00    +0.000 HD
ENDBRANCH  27  29
ENDBRANCH  23  27
ENDBRANCH  18  19
ENDBRANCH   4  17
TORSDOF 10
ENDMDL
MODEL 6
REMARK VINA RESULT:      -6.8      6.449      8.833
REMARK  Name = Balsalazide
REMARK  10 active torsions:
REMARK  status: ('A' for Active; 'I' for Inactive)
REMARK    1  A    between atoms: O_1  and  C_2
REMARK    2  A    between atoms: C_2  and  C_4
REMARK    3  A    between atoms: C_4  and  C_5
REMARK    4  A    between atoms: C_5  and  N_6
REMARK    5  A    between atoms: C_7  and  C_9
REMARK    6  A    between atoms: C_12  and  N_15
REMARK    7  A    between atoms: N_16  and  C_17
REMARK    8  A    between atoms: C_20  and  O_21
REMARK    9  A    between atoms: C_22  and  C_24
REMARK   10  A    between atoms: C_24  and  O_25
REMARK                            x       y       z     vdW  Elec       q    Type
REMARK                         _______ _______ _______ _____ _____    ______ ____
ROOT
ATOM      1  C   UNL     1      -6.469   3.913 123.592  0.00  0.00    +0.000 A 
ATOM      2  C   UNL     1      -7.699   3.284 123.827  0.00  0.00    +0.000 A 
ATOM      3  C   UNL     1      -8.321   3.368 125.095  0.00  0.00    +0.000 A 
ATOM      4  C   UNL     1      -7.716   4.024 126.183  0.00  0.00    +0.000 A 
ATOM      5  C   UNL     1      -6.482   4.647 125.922  0.00  0.00    +0.000 A 
ATOM      6  C   UNL     1      -5.866   4.597 124.649  0.00  0.00    +0.000 A 
ENDROOT
BRANCH   1   8
ATOM      7  N   UNL     1      -6.770   3.715 121.143  0.00  0.00    +0.000 N 
ATOM      8  C   UNL     1      -5.909   3.978 122.202  0.00  0.00    +0.000 C 
ATOM      9  O   UNL     1      -4.721   4.243 122.049  0.00  0.00    +0.000 OA
ATOM     10  H   UNL     1      -7.756   3.598 121.326  0.00  0.00    +0.000 HD
BRANCH   7  11
ATOM     11  C   UNL     1      -6.283   3.740 119.760  0.00  0.00    +0.000 C 
BRANCH  11  12
ATOM     12  C   UNL     1      -6.898   4.852 118.900  0.00  0.00    +0.000 C 
BRANCH  12  13
ATOM     13  C   UNL     1      -5.939   6.018 118.787  0.00  0.00    +0.000 C 
ATOM     14  O   UNL     1      -5.919   6.814 117.860  0.00  0.00    +0.000 OA
BRANCH  13  15
ATOM     15  O   UNL     1      -5.074   6.127 119.821  0.00  0.00    +0.000 OA
ATOM     16  H   UNL     1      -5.455   6.348 120.690  0.00  0.00    +0.000 HD
ENDBRANCH  13  15
ENDBRANCH  12  13
ENDBRANCH  11  12
ENDBRANCH   7  11
ENDBRANCH   1   8
BRANCH   4  17
ATOM     17  N   UNL     1      -8.370   3.984 127.459  0.00  0.00    +0.000 NA
ATOM     18  N   UNL     1      -8.412   5.089 128.052  0.00  0.00    +0.000 NA
BRANCH  18  19
ATOM     19  C   UNL     1      -8.920   5.034 129.383  0.00  0.00    +0.000 A 
ATOM     20  C   UNL     1      -9.721   6.096 129.840  0.00  0.00    +0.000 A 
ATOM     21  C   UNL     1     -10.115   6.207 131.186  0.00  0.00    +0.000 A 
ATOM     22  C   UNL     1      -9.765   5.213 132.098  0.00  0.00    +0.000 A 
ATOM     23  C   UNL     1      -8.964   4.142 131.686  0.00  0.00    +0.000 A 
ATOM     24  C   UNL     1      -8.550   4.066 130.331  0.00  0.00    +0.000 A 
BRANCH  22  25
ATOM     25  O   UNL     1     -10.204   5.289 133.397  0.00  0.00    +0.000 OA
ATOM     26  H   UNL     1      -9.817   4.558 133.916  0.00  0.00    +0.000 HD
ENDBRANCH  22  25
BRANCH  23  27
ATOM     27  C   UNL     1      -8.474   3.085 132.621  0.00  0.00    +0.000 C 
ATOM     28  O   UNL     1      -9.246   2.414 133.297  0.00  0.00    +0.000 OA
BRANCH  27  29
ATOM     29  O   UNL     1      -7.140   2.891 132.668  0.00  0.00    +0.000 OA
ATOM     30  H   UNL     1      -6.887   2.043 133.097  0.00  0.00    +0.000 HD
ENDBRANCH  27  29
ENDBRANCH  23  27
ENDBRANCH  18  19
ENDBRANCH   4  17
TORSDOF 10
ENDMDL
MODEL 7
REMARK VINA RESULT:      -6.6      6.061      7.095
REMARK  Name = Balsalazide
REMARK  10 active torsions:
REMARK  status: ('A' for Active; 'I' for Inactive)
REMARK    1  A    between atoms: O_1  and  C_2
REMARK    2  A    between atoms: C_2  and  C_4
REMARK    3  A    between atoms: C_4  and  C_5
REMARK    4  A    between atoms: C_5  and  N_6
REMARK    5  A    between atoms: C_7  and  C_9
REMARK    6  A    between atoms: C_12  and  N_15
REMARK    7  A    between atoms: N_16  and  C_17
REMARK    8  A    between atoms: C_20  and  O_21
REMARK    9  A    between atoms: C_22  and  C_24
REMARK   10  A    between atoms: C_24  and  O_25
REMARK                            x       y       z     vdW  Elec       q    Type
REMARK                         _______ _______ _______ _____ _____    ______ ____
ROOT
ATOM      1  C   UNL     1      -9.529   4.492 132.001  0.00  0.00    +0.000 A 
ATOM      2  C   UNL     1      -9.153   3.964 130.759  0.00  0.00    +0.000 A 
ATOM      3  C   UNL     1      -8.505   2.708 130.676  0.00  0.00    +0.000 A 
ATOM      4  C   UNL     1      -8.157   1.969 131.820  0.00  0.00    +0.000 A 
ATOM      5  C   UNL     1      -8.544   2.521 133.056  0.00  0.00    +0.000 A 
ATOM      6  C   UNL     1      -9.221   3.760 133.149  0.00  0.00    +0.000 A 
ENDROOT
BRANCH   1   8
ATOM      7  N   UNL     1     -11.500   5.789 131.252  0.00  0.00    +0.000 N 
ATOM      8  C   UNL     1     -10.378   5.727 132.069  0.00  0.00    +0.000 C 
ATOM      9  O   UNL     1     -10.048   6.636 132.824  0.00  0.00    +0.000 OA
ATOM     10  H   UNL     1     -11.772   4.972 130.725  0.00  0.00    +0.000 HD
BRANCH   7  11
ATOM     11  C   UNL     1     -12.361   6.976 131.252  0.00  0.00    +0.000 C 
BRANCH  11  12
ATOM     12  C   UNL     1     -12.106   7.935 130.083  0.00  0.00    +0.000 C 
BRANCH  12  13
ATOM     13  C   UNL     1     -11.087   7.342 129.132  0.00  0.00    +0.000 C 
ATOM     14  O   UNL     1      -9.896   7.619 129.129  0.00  0.00    +0.000 OA
BRANCH  13  15
ATOM     15  O   UNL     1     -11.599   6.449 128.255  0.00  0.00    +0.000 OA
ATOM     16  H   UNL     1     -11.953   6.808 127.421  0.00  0.00    +0.000 HD
ENDBRANCH  13  15
ENDBRANCH  12  13
ENDBRANCH  11  12
ENDBRANCH   7  11
ENDBRANCH   1   8
BRANCH   4  17
ATOM     17  N   UNL     1      -7.419   0.750 131.654  0.00  0.00    +0.000 NA
ATOM     18  N   UNL     1      -7.558   0.213 130.529  0.00  0.00    +0.000 NA
BRANCH  18  19
ATOM     19  C   UNL     1      -6.955  -1.073 130.401  0.00  0.00    +0.000 A 
ATOM     20  C   UNL     1      -7.781  -2.179 130.132  0.00  0.00    +0.000 A 
ATOM     21  C   UNL     1      -7.294  -3.499 130.165  0.00  0.00    +0.000 A 
ATOM     22  C   UNL     1      -5.943  -3.735 130.409  0.00  0.00    +0.000 A 
ATOM     23  C   UNL     1      -5.087  -2.664 130.688  0.00  0.00    +0.000 A 
ATOM     24  C   UNL     1      -5.606  -1.343 130.681  0.00  0.00    +0.000 A 
BRANCH  22  25
ATOM     25  O   UNL     1      -5.456  -5.019 130.378  0.00  0.00    +0.000 OA
ATOM     26  H   UNL     1      -4.540  -5.014 130.036  0.00  0.00    +0.000 HD
ENDBRANCH  22  25
BRANCH  23  27
ATOM     27  C   UNL     1      -3.648  -2.842 131.045  0.00  0.00    +0.000 C 
ATOM     28  O   UNL     1      -3.300  -3.539 131.993  0.00  0.00    +0.000 OA
BRANCH  27  29
ATOM     29  O   UNL     1      -2.748  -2.217 130.258  0.00  0.00    +0.000 OA
ATOM     30  H   UNL     1      -2.892  -1.246 130.204  0.00  0.00    +0.000 HD
ENDBRANCH  27  29
ENDBRANCH  23  27
ENDBRANCH  18  19
ENDBRANCH   4  17
TORSDOF 10
ENDMDL
MODEL 8
REMARK VINA RESULT:      -6.5      9.452     10.118
REMARK  Name = Balsalazide
REMARK  10 active torsions:
REMARK  status: ('A' for Active; 'I' for Inactive)
REMARK    1  A    between atoms: O_1  and  C_2
REMARK    2  A    between atoms: C_2  and  C_4
REMARK    3  A    between atoms: C_4  and  C_5
REMARK    4  A    between atoms: C_5  and  N_6
REMARK    5  A    between atoms: C_7  and  C_9
REMARK    6  A    between atoms: C_12  and  N_15
REMARK    7  A    between atoms: N_16  and  C_17
REMARK    8  A    between atoms: C_20  and  O_21
REMARK    9  A    between atoms: C_22  and  C_24
REMARK   10  A    between atoms: C_24  and  O_25
REMARK                            x       y       z     vdW  Elec       q    Type
REMARK                         _______ _______ _______ _____ _____    ______ ____
ROOT
ATOM      1  C   UNL     1      -8.427  -2.605 125.808  0.00  0.00    +0.000 A 
ATOM      2  C   UNL     1      -9.111  -3.390 126.746  0.00  0.00    +0.000 A 
ATOM      3  C   UNL     1      -8.582  -3.588 128.043  0.00  0.00    +0.000 A 
ATOM      4  C   UNL     1      -7.333  -3.068 128.429  0.00  0.00    +0.000 A 
ATOM      5  C   UNL     1      -6.665  -2.285 127.469  0.00  0.00    +0.000 A 
ATOM      6  C   UNL     1      -7.200  -2.053 126.179  0.00  0.00    +0.000 A 
ENDROOT
BRANCH   1   8
ATOM      7  N   UNL     1      -8.861  -0.970 124.000  0.00  0.00    +0.000 N 
ATOM      8  C   UNL     1      -9.080  -2.246 124.506  0.00  0.00    +0.000 C 
ATOM      9  O   UNL     1      -9.790  -3.076 123.947  0.00  0.00    +0.000 OA
ATOM     10  H   UNL     1      -8.192  -0.367 124.456  0.00  0.00    +0.000 HD
BRANCH   7  11
ATOM     11  C   UNL     1      -9.487  -0.546 122.744  0.00  0.00    +0.000 C 
BRANCH  11  12
ATOM     12  C   UNL     1      -9.861   0.941 122.701  0.00  0.00    +0.000 C 
BRANCH  12  13
ATOM     13  C   UNL     1     -10.421   1.378 124.038  0.00  0.00    +0.000 C 
ATOM     14  O   UNL     1      -9.745   1.761 124.982  0.00  0.00    +0.000 OA
BRANCH  13  15
ATOM     15  O   UNL     1     -11.770   1.318 124.123  0.00  0.00    +0.000 OA
ATOM     16  H   UNL     1     -12.268   2.050 123.717  0.00  0.00    +0.000 HD
ENDBRANCH  13  15
ENDBRANCH  12  13
ENDBRANCH  11  12
ENDBRANCH   7  11
ENDBRANCH   1   8
BRANCH   4  17
ATOM     17  N   UNL     1      -6.825  -3.393 129.730  0.00  0.00    +0.000 NA
ATOM     18  N   UNL     1      -5.593  -3.202 129.866  0.00  0.00    +0.000 NA
BRANCH  18  19
ATOM     19  C   UNL     1      -5.048  -3.662 131.101  0.00  0.00    +0.000 A 
ATOM     20  C   UNL     1      -5.627  -4.788 131.712  0.00  0.00    +0.000 A 
ATOM     21  C   UNL     1      -5.268  -5.200 133.009  0.00  0.00    +0.000 A 
ATOM     22  C   UNL     1      -4.267  -4.522 133.702  0.00  0.00    +0.000 A 
ATOM     23  C   UNL     1      -3.669  -3.392 133.133  0.00  0.00    +0.000 A 
ATOM     24  C   UNL     1      -4.069  -2.975 131.836  0.00  0.00    +0.000 A 
BRANCH  22  25
ATOM     25  O   UNL     1      -3.873  -4.964 134.941  0.00  0.00    +0.000 OA
ATOM     26  H   UNL     1      -2.956  -5.299 134.892  0.00  0.00    +0.000 HD
ENDBRANCH  22  25
BRANCH  23  27
ATOM     27  C   UNL     1      -2.654  -2.562 133.846  0.00  0.00    +0.000 C 
ATOM     28  O   UNL     1      -2.844  -1.374 134.084  0.00  0.00    +0.000 OA
BRANCH  27  29
ATOM     29  O   UNL     1      -1.526  -3.190 134.237  0.00  0.00    +0.000 OA
ATOM     30  H   UNL     1      -0.713  -2.663 134.072  0.00  0.00    +0.000 HD
ENDBRANCH  27  29
ENDBRANCH  23  27
ENDBRANCH  18  19
ENDBRANCH   4  17
TORSDOF 10
ENDMDL
MODEL 9
REMARK VINA RESULT:      -6.3      9.560     13.909
REMARK  Name = Balsalazide
REMARK  10 active torsions:
REMARK  status: ('A' for Active; 'I' for Inactive)
REMARK    1  A    between atoms: O_1  and  C_2
REMARK    2  A    between atoms: C_2  and  C_4
REMARK    3  A    between atoms: C_4  and  C_5
REMARK    4  A    between atoms: C_5  and  N_6
REMARK    5  A    between atoms: C_7  and  C_9
REMARK    6  A    between atoms: C_12  and  N_15
REMARK    7  A    between atoms: N_16  and  C_17
REMARK    8  A    between atoms: C_20  and  O_21
REMARK    9  A    between atoms: C_22  and  C_24
REMARK   10  A    between atoms: C_24  and  O_25
REMARK                            x       y       z     vdW  Elec       q    Type
REMARK                         _______ _______ _______ _____ _____    ______ ____
ROOT
ATOM      1  C   UNL     1      -4.199  -3.993 132.039  0.00  0.00    +0.000 A 
ATOM      2  C   UNL     1      -3.845  -2.847 131.315  0.00  0.00    +0.000 A 
ATOM      3  C   UNL     1      -4.559  -2.480 130.150  0.00  0.00    +0.000 A 
ATOM      4  C   UNL     1      -5.604  -3.269 129.634  0.00  0.00    +0.000 A 
ATOM      5  C   UNL     1      -5.941  -4.415 130.378  0.00  0.00    +0.000 A 
ATOM      6  C   UNL     1      -5.254  -4.773 131.563  0.00  0.00    +0.000 A 
ENDROOT
BRANCH   1   8
ATOM      7  N   UNL     1      -2.340  -3.671 133.641  0.00  0.00    +0.000 N 
ATOM      8  C   UNL     1      -3.564  -4.271 133.369  0.00  0.00    +0.000 C 
ATOM      9  O   UNL     1      -4.131  -5.022 134.155  0.00  0.00    +0.000 OA
ATOM     10  H   UNL     1      -1.971  -2.989 132.995  0.00  0.00    +0.000 HD
BRANCH   7  11
ATOM     11  C   UNL     1      -1.653  -3.917 134.913  0.00  0.00    +0.000 C 
BRANCH  11  12
ATOM     12  C   UNL     1      -0.606  -2.856 135.275  0.00  0.00    +0.000 C 
BRANCH  12  13
ATOM     13  C   UNL     1       0.690  -3.128 134.540  0.00  0.00    +0.000 C 
ATOM     14  O   UNL     1       1.203  -2.367 133.733  0.00  0.00    +0.000 OA
BRANCH  13  15
ATOM     15  O   UNL     1       1.267  -4.312 134.850  0.00  0.00    +0.000 OA
ATOM     16  H   UNL     1       2.239  -4.347 134.817  0.00  0.00    +0.000 HD
ENDBRANCH  13  15
ENDBRANCH  12  13
ENDBRANCH  11  12
ENDBRANCH   7  11
ENDBRANCH   1   8
BRANCH   4  17
ATOM     17  N   UNL     1      -6.215  -2.876 128.397  0.00  0.00    +0.000 NA
ATOM     18  N   UNL     1      -7.437  -2.607 128.488  0.00  0.00    +0.000 NA
BRANCH  18  19
ATOM     19  C   UNL     1      -8.091  -2.364 127.245  0.00  0.00    +0.000 A 
ATOM     20  C   UNL     1      -8.344  -3.455 126.394  0.00  0.00    +0.000 A 
ATOM     21  C   UNL     1      -8.822  -3.282 125.082  0.00  0.00    +0.000 A 
ATOM     22  C   UNL     1      -9.118  -2.004 124.612  0.00  0.00    +0.000 A 
ATOM     23  C   UNL     1      -8.874  -0.890 125.423  0.00  0.00    +0.000 A 
ATOM     24  C   UNL     1      -8.361  -1.085 126.733  0.00  0.00    +0.000 A 
BRANCH  22  25
ATOM     25  O   UNL     1      -9.644  -1.842 123.354  0.00  0.00    +0.000 OA
ATOM     26  H   UNL     1      -9.748  -2.715 122.928  0.00  0.00    +0.000 HD
ENDBRANCH  22  25
BRANCH  23  27
ATOM     27  C   UNL     1      -9.081   0.515 124.961  0.00  0.00    +0.000 C 
ATOM     28  O   UNL     1      -8.159   1.323 124.919  0.00  0.00    +0.000 OA
BRANCH  27  29
ATOM     29  O   UNL     1     -10.329   0.844 124.570  0.00  0.00    +0.000 OA
ATOM     30  H   UNL     1     -10.497   1.813 124.590  0.00  0.00    +0.000 HD
ENDBRANCH  27  29
ENDBRANCH  23  27
ENDBRANCH  18  19
ENDBRANCH   4  17
TORSDOF 10
ENDMDL
