MODEL 1
REMARK VINA RESULT:      -7.1      0.000      0.000
REMARK  Name = Baricitinib
REMARK  7 active torsions:
REMARK  status: ('A' for Active; 'I' for Inactive)
REMARK    1  A    between atoms: C_1  and  C_2
REMARK    2  A    between atoms: C_2  and  S_3
REMARK    3  A    between atoms: S_3  and  N_6
REMARK    4  A    between atoms: C_8  and  C_9
REMARK    5  A    between atoms: C_8  and  N_13
REMARK    6  A    between atoms: C_9  and  C_10
REMARK    7  A    between atoms: C_15  and  C_18
REMARK                            x       y       z     vdW  Elec       q    Type
REMARK                         _______ _______ _______ _____ _____    ______ ____
ROOT
ATOM      1  N   UNL     1      -5.872   3.783 126.737  0.00  0.00    +0.000 N 
ATOM      2  C   UNL     1      -6.319   2.629 126.126  0.00  0.00    +0.000 A 
ATOM      3  C   UNL     1      -7.094   3.029 125.028  0.00  0.00    +0.000 A 
ATOM      4  C   UNL     1      -7.397   4.394 125.373  0.00  0.00    +0.000 A 
ATOM      5  N   UNL     1      -6.653   4.845 126.387  0.00  0.00    +0.000 NA
ENDROOT
BRANCH   3   6
ATOM      6  C   UNL     1      -6.627   2.716 123.605  0.00  0.00    +0.000 A 
ATOM      7  C   UNL     1      -6.966   3.489 122.448  0.00  0.00    +0.000 A 
ATOM      8  C   UNL     1      -6.309   3.701 121.164  0.00  0.00    +0.000 A 
ATOM      9  C   UNL     1      -7.274   3.954 120.197  0.00  0.00    +0.000 A 
ATOM     10  N   UNL     1      -8.496   3.854 120.814  0.00  0.00    +0.000 N 
ATOM     11  C   UNL     1      -8.282   3.275 122.028  0.00  0.00    +0.000 A 
ATOM     12  N   UNL     1      -9.137   2.385 122.556  0.00  0.00    +0.000 NA
ATOM     13  C   UNL     1      -8.424   1.433 123.192  0.00  0.00    +0.000 A 
ATOM     14  N   UNL     1      -7.096   1.442 123.433  0.00  0.00    +0.000 NA
ATOM     15  H   UNL     1      -9.393   3.803 120.355  0.00  0.00    +0.000 HD
ENDBRANCH   3   6
BRANCH   1  18
ATOM     16  N   UNL     1      -5.394   5.535 129.247  0.00  0.00    +0.000 NA
ATOM     17  C   UNL     1      -4.360   5.258 128.161  0.00  0.00    +0.000 C 
ATOM     18  C   UNL     1      -4.979   3.861 127.892  0.00  0.00    +0.000 C 
ATOM     19  C   UNL     1      -5.566   4.044 129.349  0.00  0.00    +0.000 C 
BRANCH  16  20
ATOM     20  S   UNL     1      -4.955   6.603 130.523  0.00  0.00    +0.000 S 
ATOM     21  O   UNL     1      -4.967   7.937 129.985  0.00  0.00    +0.000 OA
ATOM     22  O   UNL     1      -3.742   6.045 131.111  0.00  0.00    +0.000 OA
BRANCH  20  24
ATOM     23  C   UNL     1      -7.610   6.790 131.119  0.00  0.00    +0.000 C 
ATOM     24  C   UNL     1      -6.259   6.473 131.761  0.00  0.00    +0.000 C 
ENDBRANCH  20  24
ENDBRANCH  16  20
BRANCH  18  25
ATOM     25  C   UNL     1      -4.130   2.669 127.689  0.00  0.00    +0.000 C 
BRANCH  25  26
ATOM     26  C   UNL     1      -2.809   2.966 126.997  0.00  0.00    +0.000 C 
ATOM     27  N   UNL     1      -1.714   3.213 126.421  0.00  0.00    +0.000 NA
ENDBRANCH  25  26
ENDBRANCH  18  25
ENDBRANCH   1  18
TORSDOF 6
ENDMDL
MODEL 2
REMARK VINA RESULT:      -7.1      6.643      8.475
REMARK  Name = Baricitinib
REMARK  7 active torsions:
REMARK  status: ('A' for Active; 'I' for Inactive)
REMARK    1  A    between atoms: C_1  and  C_2
REMARK    2  A    between atoms: C_2  and  S_3
REMARK    3  A    between atoms: S_3  and  N_6
REMARK    4  A    between atoms: C_8  and  C_9
REMARK    5  A    between atoms: C_8  and  N_13
REMARK    6  A    between atoms: C_9  and  C_10
REMARK    7  A    between atoms: C_15  and  C_18
REMARK                            x       y       z     vdW  Elec       q    Type
REMARK                         _______ _______ _______ _____ _____    ______ ____
ROOT
ATOM      1  N   UNL     1      -9.136   5.260 132.001  0.00  0.00    +0.000 N 
ATOM      2  C   UNL     1     -10.262   5.952 132.398  0.00  0.00    +0.000 A 
ATOM      3  C   UNL     1     -10.646   6.753 131.313  0.00  0.00    +0.000 A 
ATOM      4  C   UNL     1      -9.432   6.788 130.540  0.00  0.00    +0.000 A 
ATOM      5  N   UNL     1      -8.537   5.883 130.946  0.00  0.00    +0.000 NA
ENDROOT
BRANCH   3   6
ATOM      6  C   UNL     1     -11.970   6.487 130.593  0.00  0.00    +0.000 A 
ATOM      7  C   UNL     1     -12.350   7.074 129.344  0.00  0.00    +0.000 A 
ATOM      8  C   UNL     1     -13.245   6.650 128.274  0.00  0.00    +0.000 A 
ATOM      9  C   UNL     1     -13.770   7.774 127.648  0.00  0.00    +0.000 A 
ATOM     10  N   UNL     1     -13.283   8.869 128.318  0.00  0.00    +0.000 N 
ATOM     11  C   UNL     1     -12.728   8.414 129.475  0.00  0.00    +0.000 A 
ATOM     12  N   UNL     1     -12.833   9.087 130.631  0.00  0.00    +0.000 NA
ATOM     13  C   UNL     1     -12.991   8.197 131.631  0.00  0.00    +0.000 A 
ATOM     14  N   UNL     1     -12.882   6.855 131.545  0.00  0.00    +0.000 NA
ATOM     15  H   UNL     1     -13.614   9.818 128.228  0.00  0.00    +0.000 HD
ENDBRANCH   3   6
BRANCH   1  18
ATOM     16  N   UNL     1      -8.448   2.241 131.923  0.00  0.00    +0.000 NA
ATOM     17  C   UNL     1      -9.191   2.942 133.056  0.00  0.00    +0.000 C 
ATOM     18  C   UNL     1      -8.415   4.257 132.784  0.00  0.00    +0.000 C 
ATOM     19  C   UNL     1      -7.380   3.287 132.086  0.00  0.00    +0.000 C 
BRANCH  16  20
ATOM     20  S   UNL     1      -8.235   0.536 132.035  0.00  0.00    +0.000 S 
ATOM     21  O   UNL     1      -9.534  -0.066 131.901  0.00  0.00    +0.000 OA
ATOM     22  O   UNL     1      -7.427   0.311 133.229  0.00  0.00    +0.000 OA
BRANCH  20  24
ATOM     23  C   UNL     1      -7.833   0.657 129.340  0.00  0.00    +0.000 C 
ATOM     24  C   UNL     1      -7.234   0.059 130.613  0.00  0.00    +0.000 C 
ENDBRANCH  20  24
ENDBRANCH  16  20
BRANCH  18  25
ATOM     25  C   UNL     1      -7.878   5.078 133.890  0.00  0.00    +0.000 C 
BRANCH  25  26
ATOM     26  C   UNL     1      -6.820   4.370 134.723  0.00  0.00    +0.000 C 
ATOM     27  N   UNL     1      -5.943   3.783 135.412  0.00  0.00    +0.000 NA
ENDBRANCH  25  26
ENDBRANCH  18  25
ENDBRANCH   1  18
TORSDOF 6
ENDMDL
MODEL 3
REMARK VINA RESULT:      -7.0      6.213      8.002
REMARK  Name = Baricitinib
REMARK  7 active torsions:
REMARK  status: ('A' for Active; 'I' for Inactive)
REMARK    1  A    between atoms: C_1  and  C_2
REMARK    2  A    between atoms: C_2  and  S_3
REMARK    3  A    between atoms: S_3  and  N_6
REMARK    4  A    between atoms: C_8  and  C_9
REMARK    5  A    between atoms: C_8  and  N_13
REMARK    6  A    between atoms: C_9  and  C_10
REMARK    7  A    between atoms: C_15  and  C_18
REMARK                            x       y       z     vdW  Elec       q    Type
REMARK                         _______ _______ _______ _____ _____    ______ ____
ROOT
ATOM      1  N   UNL     1      -9.419   4.301 130.417  0.00  0.00    +0.000 N 
ATOM      2  C   UNL     1      -9.531   3.374 131.434  0.00  0.00    +0.000 A 
ATOM      3  C   UNL     1      -8.830   2.233 131.018  0.00  0.00    +0.000 A 
ATOM      4  C   UNL     1      -8.757   2.446 129.595  0.00  0.00    +0.000 A 
ATOM      5  N   UNL     1      -9.096   3.689 129.242  0.00  0.00    +0.000 NA
ENDROOT
BRANCH   3   6
ATOM      6  C   UNL     1      -7.568   1.794 131.762  0.00  0.00    +0.000 A 
ATOM      7  C   UNL     1      -6.431   1.180 131.146  0.00  0.00    +0.000 A 
ATOM      8  C   UNL     1      -5.015   1.128 131.493  0.00  0.00    +0.000 A 
ATOM      9  C   UNL     1      -4.473  -0.057 131.012  0.00  0.00    +0.000 A 
ATOM     10  N   UNL     1      -5.500  -0.761 130.433  0.00  0.00    +0.000 N 
ATOM     11  C   UNL     1      -6.660  -0.158 130.813  0.00  0.00    +0.000 A 
ATOM     12  N   UNL     1      -7.766  -0.858 131.106  0.00  0.00    +0.000 NA
ATOM     13  C   UNL     1      -8.388  -0.262 132.142  0.00  0.00    +0.000 A 
ATOM     14  N   UNL     1      -8.081   0.932 132.693  0.00  0.00    +0.000 NA
ATOM     15  H   UNL     1      -5.474  -1.731 130.155  0.00  0.00    +0.000 HD
ENDBRANCH   3   6
BRANCH   1  18
ATOM     16  N   UNL     1     -11.547   6.034 128.981  0.00  0.00    +0.000 NA
ATOM     17  C   UNL     1     -10.055   6.347 129.039  0.00  0.00    +0.000 C 
ATOM     18  C   UNL     1      -9.942   5.667 130.429  0.00  0.00    +0.000 C 
ATOM     19  C   UNL     1     -11.500   5.928 130.480  0.00  0.00    +0.000 C 
BRANCH  16  20
ATOM     20  S   UNL     1     -12.554   7.084 128.060  0.00  0.00    +0.000 S 
ATOM     21  O   UNL     1     -13.887   6.966 128.587  0.00  0.00    +0.000 OA
ATOM     22  O   UNL     1     -12.274   6.782 126.661  0.00  0.00    +0.000 OA
BRANCH  20  24
ATOM     23  C   UNL     1     -13.018   9.539 129.155  0.00  0.00    +0.000 C 
ATOM     24  C   UNL     1     -11.960   8.757 128.376  0.00  0.00    +0.000 C 
ENDBRANCH  20  24
ENDBRANCH  16  20
BRANCH  18  25
ATOM     25  C   UNL     1      -9.154   6.275 131.522  0.00  0.00    +0.000 C 
BRANCH  25  26
ATOM     26  C   UNL     1      -7.808   6.824 131.077  0.00  0.00    +0.000 C 
ATOM     27  N   UNL     1      -6.692   7.278 130.706  0.00  0.00    +0.000 NA
ENDBRANCH  25  26
ENDBRANCH  18  25
ENDBRANCH   1  18
TORSDOF 6
ENDMDL
MODEL 4
REMARK VINA RESULT:      -6.9      6.889      9.709
REMARK  Name = Baricitinib
REMARK  7 active torsions:
REMARK  status: ('A' for Active; 'I' for Inactive)
REMARK    1  A    between atoms: C_1  and  C_2
REMARK    2  A    between atoms: C_2  and  S_3
REMARK    3  A    between atoms: S_3  and  N_6
REMARK    4  A    between atoms: C_8  and  C_9
REMARK    5  A    between atoms: C_8  and  N_13
REMARK    6  A    between atoms: C_9  and  C_10
REMARK    7  A    between atoms: C_15  and  C_18
REMARK                            x       y       z     vdW  Elec       q    Type
REMARK                         _______ _______ _______ _____ _____    ______ ____
ROOT
ATOM      1  N   UNL     1      -8.016  -2.723 126.505  0.00  0.00    +0.000 N 
ATOM      2  C   UNL     1      -7.388  -1.950 127.461  0.00  0.00    +0.000 A 
ATOM      3  C   UNL     1      -7.500  -2.642 128.676  0.00  0.00    +0.000 A 
ATOM      4  C   UNL     1      -8.586  -3.545 128.391  0.00  0.00    +0.000 A 
ATOM      5  N   UNL     1      -8.881  -3.601 127.089  0.00  0.00    +0.000 NA
ENDROOT
BRANCH   3   6
ATOM      6  C   UNL     1      -6.249  -3.189 129.365  0.00  0.00    +0.000 A 
ATOM      7  C   UNL     1      -6.259  -4.004 130.543  0.00  0.00    +0.000 A 
ATOM      8  C   UNL     1      -5.334  -4.998 131.075  0.00  0.00    +0.000 A 
ATOM      9  C   UNL     1      -5.426  -5.007 132.461  0.00  0.00    +0.000 A 
ATOM     10  N   UNL     1      -6.323  -4.028 132.810  0.00  0.00    +0.000 N 
ATOM     11  C   UNL     1      -6.535  -3.269 131.699  0.00  0.00    +0.000 A 
ATOM     12  N   UNL     1      -6.684  -1.937 131.763  0.00  0.00    +0.000 NA
ATOM     13  C   UNL     1      -6.073  -1.387 130.693  0.00  0.00    +0.000 A 
ATOM     14  N   UNL     1      -5.555  -2.041 129.633  0.00  0.00    +0.000 NA
ATOM     15  H   UNL     1      -6.473  -3.662 133.738  0.00  0.00    +0.000 HD
ENDBRANCH   3   6
BRANCH   1  18
ATOM     16  N   UNL     1      -9.117  -0.551 124.591  0.00  0.00    +0.000 NA
ATOM     17  C   UNL     1      -9.506  -2.025 124.560  0.00  0.00    +0.000 C 
ATOM     18  C   UNL     1      -8.100  -2.432 125.074  0.00  0.00    +0.000 C 
ATOM     19  C   UNL     1      -7.688  -1.010 124.520  0.00  0.00    +0.000 C 
BRANCH  16  20
ATOM     20  S   UNL     1      -9.907   0.513 123.490  0.00  0.00    +0.000 S 
ATOM     21  O   UNL     1     -10.991   1.135 124.202  0.00  0.00    +0.000 OA
ATOM     22  O   UNL     1     -10.156  -0.272 122.286  0.00  0.00    +0.000 OA
BRANCH  20  24
ATOM     23  C   UNL     1      -8.639   2.829 124.176  0.00  0.00    +0.000 C 
ATOM     24  C   UNL     1      -8.699   1.782 123.063  0.00  0.00    +0.000 C 
ENDBRANCH  20  24
ENDBRANCH  16  20
BRANCH  18  25
ATOM     25  C   UNL     1      -7.371  -3.581 124.497  0.00  0.00    +0.000 C 
BRANCH  25  26
ATOM     26  C   UNL     1      -5.947  -3.255 124.073  0.00  0.00    +0.000 C 
ATOM     27  N   UNL     1      -4.767  -2.984 123.723  0.00  0.00    +0.000 NA
ENDBRANCH  25  26
ENDBRANCH  18  25
ENDBRANCH   1  18
TORSDOF 6
ENDMDL
MODEL 5
REMARK VINA RESULT:      -6.8      5.574      7.034
REMARK  Name = Baricitinib
REMARK  7 active torsions:
REMARK  status: ('A' for Active; 'I' for Inactive)
REMARK    1  A    between atoms: C_1  and  C_2
REMARK    2  A    between atoms: C_2  and  S_3
REMARK    3  A    between atoms: S_3  and  N_6
REMARK    4  A    between atoms: C_8  and  C_9
REMARK    5  A    between atoms: C_8  and  N_13
REMARK    6  A    between atoms: C_9  and  C_10
REMARK    7  A    between atoms: C_15  and  C_18
REMARK                            x       y       z     vdW  Elec       q    Type
REMARK                         _______ _______ _______ _____ _____    ______ ____
ROOT
ATOM      1  N   UNL     1      -9.096   5.277 131.246  0.00  0.00    +0.000 N 
ATOM      2  C   UNL     1      -9.062   5.713 129.937  0.00  0.00    +0.000 A 
ATOM      3  C   UNL     1     -10.373   6.077 129.599  0.00  0.00    +0.000 A 
ATOM      4  C   UNL     1     -11.131   5.387 130.611  0.00  0.00    +0.000 A 
ATOM      5  N   UNL     1     -10.364   4.922 131.601  0.00  0.00    +0.000 NA
ENDROOT
BRANCH   3   6
ATOM      6  C   UNL     1     -10.710   7.538 129.297  0.00  0.00    +0.000 A 
ATOM      7  C   UNL     1     -12.038   8.063 129.188  0.00  0.00    +0.000 A 
ATOM      8  C   UNL     1     -12.606   9.390 129.395  0.00  0.00    +0.000 A 
ATOM      9  C   UNL     1     -13.714   9.543 128.571  0.00  0.00    +0.000 A 
ATOM     10  N   UNL     1     -13.822   8.394 127.828  0.00  0.00    +0.000 N 
ATOM     11  C   UNL     1     -12.657   7.705 127.988  0.00  0.00    +0.000 A 
ATOM     12  N   UNL     1     -12.081   7.033 126.979  0.00  0.00    +0.000 NA
ATOM     13  C   UNL     1     -10.744   7.174 127.081  0.00  0.00    +0.000 A 
ATOM     14  N   UNL     1     -10.064   7.731 128.105  0.00  0.00    +0.000 NA
ATOM     15  H   UNL     1     -14.406   8.263 127.016  0.00  0.00    +0.000 HD
ENDBRANCH   3   6
BRANCH   1  18
ATOM     16  N   UNL     1      -6.016   5.592 131.327  0.00  0.00    +0.000 NA
ATOM     17  C   UNL     1      -6.759   4.263 131.244  0.00  0.00    +0.000 C 
ATOM     18  C   UNL     1      -7.949   4.851 132.047  0.00  0.00    +0.000 C 
ATOM     19  C   UNL     1      -6.869   5.902 132.525  0.00  0.00    +0.000 C 
BRANCH  16  20
ATOM     20  S   UNL     1      -4.295   5.557 131.279  0.00  0.00    +0.000 S 
ATOM     21  O   UNL     1      -3.915   5.014 130.003  0.00  0.00    +0.000 OA
ATOM     22  O   UNL     1      -3.874   4.914 132.520  0.00  0.00    +0.000 OA
BRANCH  20  24
ATOM     23  C   UNL     1      -4.297   8.038 130.148  0.00  0.00    +0.000 C 
ATOM     24  C   UNL     1      -3.752   7.274 131.356  0.00  0.00    +0.000 C 
ENDBRANCH  20  24
ENDBRANCH  16  20
BRANCH  18  25
ATOM     25  C   UNL     1      -8.610   4.078 133.120  0.00  0.00    +0.000 C 
BRANCH  25  26
ATOM     26  C   UNL     1      -8.182   2.620 133.181  0.00  0.00    +0.000 C 
ATOM     27  N   UNL     1      -7.826   1.412 133.230  0.00  0.00    +0.000 NA
ENDBRANCH  25  26
ENDBRANCH  18  25
ENDBRANCH   1  18
TORSDOF 6
ENDMDL
MODEL 6
REMARK VINA RESULT:      -6.8      6.218      9.462
REMARK  Name = Baricitinib
REMARK  7 active torsions:
REMARK  status: ('A' for Active; 'I' for Inactive)
REMARK    1  A    between atoms: C_1  and  C_2
REMARK    2  A    between atoms: C_2  and  S_3
REMARK    3  A    between atoms: S_3  and  N_6
REMARK    4  A    between atoms: C_8  and  C_9
REMARK    5  A    between atoms: C_8  and  N_13
REMARK    6  A    between atoms: C_9  and  C_10
REMARK    7  A    between atoms: C_15  and  C_18
REMARK                            x       y       z     vdW  Elec       q    Type
REMARK                         _______ _______ _______ _____ _____    ______ ____
ROOT
ATOM      1  N   UNL     1      -7.191  -1.522 127.331  0.00  0.00    +0.000 N 
ATOM      2  C   UNL     1      -5.872  -1.928 127.317  0.00  0.00    +0.000 A 
ATOM      3  C   UNL     1      -5.469  -2.033 128.656  0.00  0.00    +0.000 A 
ATOM      4  C   UNL     1      -6.468  -1.235 129.318  0.00  0.00    +0.000 A 
ATOM      5  N   UNL     1      -7.503  -0.944 128.526  0.00  0.00    +0.000 NA
ENDROOT
BRANCH   3   6
ATOM      6  C   UNL     1      -5.108  -3.398 129.244  0.00  0.00    +0.000 A 
ATOM      7  C   UNL     1      -5.231  -3.748 130.627  0.00  0.00    +0.000 A 
ATOM      8  C   UNL     1      -5.427  -5.015 131.321  0.00  0.00    +0.000 A 
ATOM      9  C   UNL     1      -4.843  -4.938 132.579  0.00  0.00    +0.000 A 
ATOM     10  N   UNL     1      -4.249  -3.704 132.671  0.00  0.00    +0.000 N 
ATOM     11  C   UNL     1      -4.225  -3.180 131.414  0.00  0.00    +0.000 A 
ATOM     12  N   UNL     1      -3.186  -2.463 130.958  0.00  0.00    +0.000 NA
ATOM     13  C   UNL     1      -2.992  -2.770 129.660  0.00  0.00    +0.000 A 
ATOM     14  N   UNL     1      -3.795  -3.521 128.877  0.00  0.00    +0.000 NA
ATOM     15  H   UNL     1      -3.593  -3.410 133.379  0.00  0.00    +0.000 HD
ENDBRANCH   3   6
BRANCH   1  18
ATOM     16  N   UNL     1      -8.023   0.692 125.331  0.00  0.00    +0.000 NA
ATOM     17  C   UNL     1      -8.983  -0.097 126.215  0.00  0.00    +0.000 C 
ATOM     18  C   UNL     1      -8.052  -1.336 126.163  0.00  0.00    +0.000 C 
ATOM     19  C   UNL     1      -7.496  -0.636 124.860  0.00  0.00    +0.000 C 
BRANCH  16  20
ATOM     20  S   UNL     1      -8.679   1.940 124.342  0.00  0.00    +0.000 S 
ATOM     21  O   UNL     1      -7.828   2.063 123.189  0.00  0.00    +0.000 OA
ATOM     22  O   UNL     1      -8.903   3.076 125.230  0.00  0.00    +0.000 OA
BRANCH  20  24
ATOM     23  C   UNL     1     -10.144   0.539 122.517  0.00  0.00    +0.000 C 
ATOM     24  C   UNL     1     -10.297   1.356 123.801  0.00  0.00    +0.000 C 
ENDBRANCH  20  24
ENDBRANCH  16  20
BRANCH  18  25
ATOM     25  C   UNL     1      -8.594  -2.699 125.977  0.00  0.00    +0.000 C 
BRANCH  25  26
ATOM     26  C   UNL     1      -9.213  -2.932 124.608  0.00  0.00    +0.000 C 
ATOM     27  N   UNL     1      -9.726  -3.126 123.472  0.00  0.00    +0.000 NA
ENDBRANCH  25  26
ENDBRANCH  18  25
ENDBRANCH   1  18
TORSDOF 6
ENDMDL
MODEL 7
REMARK VINA RESULT:      -6.8      5.234      7.357
REMARK  Name = Baricitinib
REMARK  7 active torsions:
REMARK  status: ('A' for Active; 'I' for Inactive)
REMARK    1  A    between atoms: C_1  and  C_2
REMARK    2  A    between atoms: C_2  and  S_3
REMARK    3  A    between atoms: S_3  and  N_6
REMARK    4  A    between atoms: C_8  and  C_9
REMARK    5  A    between atoms: C_8  and  N_13
REMARK    6  A    between atoms: C_9  and  C_10
REMARK    7  A    between atoms: C_15  and  C_18
REMARK                            x       y       z     vdW  Elec       q    Type
REMARK                         _______ _______ _______ _____ _____    ______ ____
ROOT
ATOM      1  N   UNL     1      -8.741   5.255 130.848  0.00  0.00    +0.000 N 
ATOM      2  C   UNL     1      -9.885   5.476 131.589  0.00  0.00    +0.000 A 
ATOM      3  C   UNL     1     -10.542   6.566 130.999  0.00  0.00    +0.000 A 
ATOM      4  C   UNL     1      -9.477   7.163 130.236  0.00  0.00    +0.000 A 
ATOM      5  N   UNL     1      -8.407   6.370 130.137  0.00  0.00    +0.000 NA
ENDROOT
BRANCH   3   6
ATOM      6  C   UNL     1     -11.905   6.370 130.332  0.00  0.00    +0.000 A 
ATOM      7  C   UNL     1     -12.363   7.097 129.187  0.00  0.00    +0.000 A 
ATOM      8  C   UNL     1     -13.319   6.791 128.129  0.00  0.00    +0.000 A 
ATOM      9  C   UNL     1     -13.887   7.974 127.674  0.00  0.00    +0.000 A 
ATOM     10  N   UNL     1     -13.367   8.988 128.440  0.00  0.00    +0.000 N 
ATOM     11  C   UNL     1     -12.741   8.405 129.500  0.00  0.00    +0.000 A 
ATOM     12  N   UNL     1     -12.781   8.935 130.732  0.00  0.00    +0.000 NA
ATOM     13  C   UNL     1     -12.872   7.930 131.626  0.00  0.00    +0.000 A 
ATOM     14  N   UNL     1     -12.760   6.609 131.374  0.00  0.00    +0.000 NA
ATOM     15  H   UNL     1     -13.709   9.936 128.484  0.00  0.00    +0.000 HD
ENDBRANCH   3   6
BRANCH   1  18
ATOM     16  N   UNL     1      -5.755   4.871 131.577  0.00  0.00    +0.000 NA
ATOM     17  C   UNL     1      -6.421   4.352 130.307  0.00  0.00    +0.000 C 
ATOM     18  C   UNL     1      -7.770   4.182 131.055  0.00  0.00    +0.000 C 
ATOM     19  C   UNL     1      -6.846   4.171 132.338  0.00  0.00    +0.000 C 
BRANCH  16  20
ATOM     20  S   UNL     1      -4.061   4.621 131.757  0.00  0.00    +0.000 S 
ATOM     21  O   UNL     1      -3.716   3.460 130.980  0.00  0.00    +0.000 OA
ATOM     22  O   UNL     1      -3.801   4.664 133.192  0.00  0.00    +0.000 OA
BRANCH  20  24
ATOM     23  C   UNL     1      -4.205   7.259 131.080  0.00  0.00    +0.000 C 
ATOM     24  C   UNL     1      -3.258   6.060 131.023  0.00  0.00    +0.000 C 
ENDBRANCH  20  24
ENDBRANCH  16  20
BRANCH  18  25
ATOM     25  C   UNL     1      -8.612   2.982 130.862  0.00  0.00    +0.000 C 
BRANCH  25  26
ATOM     26  C   UNL     1      -8.781   2.579 129.405  0.00  0.00    +0.000 C 
ATOM     27  N   UNL     1      -8.922   2.244 128.198  0.00  0.00    +0.000 NA
ENDBRANCH  25  26
ENDBRANCH  18  25
ENDBRANCH   1  18
TORSDOF 6
ENDMDL
MODEL 8
REMARK VINA RESULT:      -6.6      4.884      7.089
REMARK  Name = Baricitinib
REMARK  7 active torsions:
REMARK  status: ('A' for Active; 'I' for Inactive)
REMARK    1  A    between atoms: C_1  and  C_2
REMARK    2  A    between atoms: C_2  and  S_3
REMARK    3  A    between atoms: S_3  and  N_6
REMARK    4  A    between atoms: C_8  and  C_9
REMARK    5  A    between atoms: C_8  and  N_13
REMARK    6  A    between atoms: C_9  and  C_10
REMARK    7  A    between atoms: C_15  and  C_18
REMARK                            x       y       z     vdW  Elec       q    Type
REMARK                         _______ _______ _______ _____ _____    ______ ____
ROOT
ATOM      1  N   UNL     1      -7.009   5.314 130.317  0.00  0.00    +0.000 N 
ATOM      2  C   UNL     1      -8.332   4.956 130.487  0.00  0.00    +0.000 A 
ATOM      3  C   UNL     1      -9.070   6.148 130.525  0.00  0.00    +0.000 A 
ATOM      4  C   UNL     1      -8.042   7.110 130.828  0.00  0.00    +0.000 A 
ATOM      5  N   UNL     1      -6.811   6.611 130.688  0.00  0.00    +0.000 NA
ENDROOT
BRANCH   3   6
ATOM      6  C   UNL     1     -10.071   6.466 129.414  0.00  0.00    +0.000 A 
ATOM      7  C   UNL     1     -10.823   7.681 129.318  0.00  0.00    +0.000 A 
ATOM      8  C   UNL     1     -11.414   8.402 128.197  0.00  0.00    +0.000 A 
ATOM      9  C   UNL     1     -12.532   9.096 128.642  0.00  0.00    +0.000 A 
ATOM     10  N   UNL     1     -12.689   8.792 129.972  0.00  0.00    +0.000 N 
ATOM     11  C   UNL     1     -11.875   7.732 130.236  0.00  0.00    +0.000 A 
ATOM     12  N   UNL     1     -12.240   6.742 131.065  0.00  0.00    +0.000 NA
ATOM     13  C   UNL     1     -11.782   5.576 130.566  0.00  0.00    +0.000 A 
ATOM     14  N   UNL     1     -10.945   5.418 129.519  0.00  0.00    +0.000 NA
ATOM     15  H   UNL     1     -13.503   8.988 130.535  0.00  0.00    +0.000 HD
ENDBRANCH   3   6
BRANCH   1  18
ATOM     16  N   UNL     1      -5.069   4.298 128.126  0.00  0.00    +0.000 NA
ATOM     17  C   UNL     1      -5.980   3.412 128.969  0.00  0.00    +0.000 C 
ATOM     18  C   UNL     1      -5.878   4.400 130.161  0.00  0.00    +0.000 C 
ATOM     19  C   UNL     1      -4.563   4.870 129.421  0.00  0.00    +0.000 C 
BRANCH  16  20
ATOM     20  S   UNL     1      -4.122   3.543 126.902  0.00  0.00    +0.000 S 
ATOM     21  O   UNL     1      -4.445   4.187 125.656  0.00  0.00    +0.000 OA
ATOM     22  O   UNL     1      -4.318   2.108 127.073  0.00  0.00    +0.000 OA
BRANCH  20  24
ATOM     23  C   UNL     1      -1.486   2.948 126.534  0.00  0.00    +0.000 C 
ATOM     24  C   UNL     1      -2.401   3.902 127.303  0.00  0.00    +0.000 C 
ENDBRANCH  20  24
ENDBRANCH  16  20
BRANCH  18  25
ATOM     25  C   UNL     1      -5.696   3.918 131.547  0.00  0.00    +0.000 C 
BRANCH  25  26
ATOM     26  C   UNL     1      -4.464   4.482 132.236  0.00  0.00    +0.000 C 
ATOM     27  N   UNL     1      -3.441   4.949 132.806  0.00  0.00    +0.000 NA
ENDBRANCH  25  26
ENDBRANCH  18  25
ENDBRANCH   1  18
TORSDOF 6
ENDMDL
MODEL 9
REMARK VINA RESULT:      -6.6      3.644      4.479
REMARK  Name = Baricitinib
REMARK  7 active torsions:
REMARK  status: ('A' for Active; 'I' for Inactive)
REMARK    1  A    between atoms: C_1  and  C_2
REMARK    2  A    between atoms: C_2  and  S_3
REMARK    3  A    between atoms: S_3  and  N_6
REMARK    4  A    between atoms: C_8  and  C_9
REMARK    5  A    between atoms: C_8  and  N_13
REMARK    6  A    between atoms: C_9  and  C_10
REMARK    7  A    between atoms: C_15  and  C_18
REMARK                            x       y       z     vdW  Elec       q    Type
REMARK                         _______ _______ _______ _____ _____    ______ ____
ROOT
ATOM      1  N   UNL     1      -8.048   2.501 127.420  0.00  0.00    +0.000 N 
ATOM      2  C   UNL     1      -8.327   1.181 127.713  0.00  0.00    +0.000 A 
ATOM      3  C   UNL     1      -8.542   0.533 126.488  0.00  0.00    +0.000 A 
ATOM      4  C   UNL     1      -8.812   1.648 125.618  0.00  0.00    +0.000 A 
ATOM      5  N   UNL     1      -8.502   2.823 126.175  0.00  0.00    +0.000 NA
ENDROOT
BRANCH   3   6
ATOM      6  C   UNL     1      -7.573  -0.552 126.014  0.00  0.00    +0.000 A 
ATOM      7  C   UNL     1      -7.257  -0.820 124.643  0.00  0.00    +0.000 A 
ATOM      8  C   UNL     1      -6.091  -1.396 123.983  0.00  0.00    +0.000 A 
ATOM      9  C   UNL     1      -6.499  -2.030 122.816  0.00  0.00    +0.000 A 
ATOM     10  N   UNL     1      -7.866  -1.919 122.755  0.00  0.00    +0.000 N 
ATOM     11  C   UNL     1      -8.285  -1.495 123.980  0.00  0.00    +0.000 A 
ATOM     12  N   UNL     1      -9.415  -1.948 124.544  0.00  0.00    +0.000 NA
ATOM     13  C   UNL     1      -9.206  -2.086 125.868  0.00  0.00    +0.000 A 
ATOM     14  N   UNL     1      -8.125  -1.677 126.564  0.00  0.00    +0.000 NA
ATOM     15  H   UNL     1      -8.477  -2.425 122.133  0.00  0.00    +0.000 HD
ENDBRANCH   3   6
BRANCH   1  18
ATOM     16  N   UNL     1      -9.386   4.798 129.009  0.00  0.00    +0.000 NA
ATOM     17  C   UNL     1      -8.222   4.966 128.038  0.00  0.00    +0.000 C 
ATOM     18  C   UNL     1      -7.699   3.546 128.381  0.00  0.00    +0.000 C 
ATOM     19  C   UNL     1      -8.557   3.747 129.694  0.00  0.00    +0.000 C 
BRANCH  16  20
ATOM     20  S   UNL     1     -10.040   6.217 129.733  0.00  0.00    +0.000 S 
ATOM     21  O   UNL     1      -8.936   7.086 130.042  0.00  0.00    +0.000 OA
ATOM     22  O   UNL     1     -10.941   5.751 130.782  0.00  0.00    +0.000 OA
BRANCH  20  24
ATOM     23  C   UNL     1     -10.504   8.402 128.167  0.00  0.00    +0.000 C 
ATOM     24  C   UNL     1     -11.054   7.007 128.468  0.00  0.00    +0.000 C 
ENDBRANCH  20  24
ENDBRANCH  16  20
BRANCH  18  25
ATOM     25  C   UNL     1      -6.259   3.285 128.590  0.00  0.00    +0.000 C 
BRANCH  25  26
ATOM     26  C   UNL     1      -5.391   4.530 128.511  0.00  0.00    +0.000 C 
ATOM     27  N   UNL     1      -4.671   5.563 128.443  0.00  0.00    +0.000 NA
ENDBRANCH  25  26
ENDBRANCH  18  25
ENDBRANCH   1  18
TORSDOF 6
ENDMDL
