MODEL 1
REMARK VINA RESULT:      -9.4      0.000      0.000
REMARK  Name = Bazedoxifene
REMARK  10 active torsions:
REMARK  status: ('A' for Active; 'I' for Inactive)
REMARK    1  A    between atoms: C_1  and  C_2
REMARK    2  A    between atoms: C_3  and  C_29
REMARK    3  A    between atoms: N_4  and  C_5
REMARK    4  A    between atoms: C_5  and  C_6
REMARK    5  A    between atoms: C_9  and  O_10
REMARK    6  A    between atoms: O_10  and  C_11
REMARK    7  A    between atoms: C_11  and  C_12
REMARK    8  A    between atoms: C_12  and  N_13
REMARK    9  A    between atoms: C_25  and  O_26
REMARK   10  A    between atoms: C_32  and  O_33
REMARK                            x       y       z     vdW  Elec       q    Type
REMARK                         _______ _______ _______ _____ _____    ______ ____
ROOT
ATOM      1  C   UNL     1      -4.340  -2.958 128.412  0.00  0.00    +0.000 C 
ATOM      2  C   UNL     1      -5.157  -2.353 129.501  0.00  0.00    +0.000 A 
ATOM      3  C   UNL     1      -6.520  -2.070 129.477  0.00  0.00    +0.000 A 
ATOM      4  N   UNL     1      -6.859  -1.539 130.728  0.00  0.00    +0.000 N 
ATOM      5  C   UNL     1      -5.729  -1.540 131.545  0.00  0.00    +0.000 A 
ATOM      6  C   UNL     1      -4.644  -1.968 130.772  0.00  0.00    +0.000 A 
ATOM      7  C   UNL     1      -3.351  -1.994 131.355  0.00  0.00    +0.000 A 
ATOM      8  C   UNL     1      -3.161  -1.528 132.655  0.00  0.00    +0.000 A 
ATOM      9  C   UNL     1      -4.230  -1.117 133.417  0.00  0.00    +0.000 A 
ATOM     10  C   UNL     1      -5.511  -1.217 132.893  0.00  0.00    +0.000 A 
ENDROOT
BRANCH   3  11
ATOM     11  C   UNL     1      -7.469  -2.341 128.388  0.00  0.00    +0.000 A 
ATOM     12  C   UNL     1      -8.275  -3.491 128.380  0.00  0.00    +0.000 A 
ATOM     13  C   UNL     1      -9.099  -3.769 127.286  0.00  0.00    +0.000 A 
ATOM     14  C   UNL     1      -9.204  -2.847 126.254  0.00  0.00    +0.000 A 
ATOM     15  C   UNL     1      -8.514  -1.641 126.305  0.00  0.00    +0.000 A 
ATOM     16  C   UNL     1      -7.615  -1.415 127.348  0.00  0.00    +0.000 A 
BRANCH  14  17
ATOM     17  O   UNL     1      -9.976  -3.082 125.156  0.00  0.00    +0.000 OA
ATOM     18  H   UNL     1     -10.557  -2.314 125.019  0.00  0.00    +0.000 HD
ENDBRANCH  14  17
ENDBRANCH   3  11
BRANCH   8  19
ATOM     19  O   UNL     1      -1.938  -1.495 133.251  0.00  0.00    +0.000 OA
ATOM     20  H   UNL     1      -1.883  -2.237 133.874  0.00  0.00    +0.000 HD
ENDBRANCH   8  19
BRANCH   4  21
ATOM     21  C   UNL     1      -8.233  -1.080 131.055  0.00  0.00    +0.000 C 
BRANCH  21  22
ATOM     22  C   UNL     1      -8.478   0.410 131.026  0.00  0.00    +0.000 A 
ATOM     23  C   UNL     1      -9.100   1.060 132.109  0.00  0.00    +0.000 A 
ATOM     24  C   UNL     1      -9.710   2.303 131.909  0.00  0.00    +0.000 A 
ATOM     25  C   UNL     1      -9.561   2.969 130.696  0.00  0.00    +0.000 A 
ATOM     26  C   UNL     1      -8.732   2.424 129.709  0.00  0.00    +0.000 A 
ATOM     27  C   UNL     1      -8.231   1.131 129.854  0.00  0.00    +0.000 A 
BRANCH  25  28
ATOM     28  O   UNL     1     -10.333   4.095 130.551  0.00  0.00    +0.000 OA
BRANCH  28  29
ATOM     29  C   UNL     1     -10.026   5.125 131.486  0.00  0.00    +0.000 C 
BRANCH  29  30
ATOM     30  C   UNL     1     -11.032   6.277 131.374  0.00  0.00    +0.000 C 
BRANCH  30  31
ATOM     31  N   UNL     1     -11.371   6.629 129.975  0.00  0.00    +0.000 NA
ATOM     32  C   UNL     1     -12.749   7.124 129.900  0.00  0.00    +0.000 C 
ATOM     33  C   UNL     1     -13.397   6.807 128.549  0.00  0.00    +0.000 C 
ATOM     34  C   UNL     1     -12.974   7.702 127.389  0.00  0.00    +0.000 C 
ATOM     35  C   UNL     1     -11.473   7.751 127.138  0.00  0.00    +0.000 C 
ATOM     36  C   UNL     1     -10.736   8.456 128.262  0.00  0.00    +0.000 C 
ATOM     37  C   UNL     1     -10.359   7.534 129.410  0.00  0.00    +0.000 C 
ENDBRANCH  30  31
ENDBRANCH  29  30
ENDBRANCH  28  29
ENDBRANCH  25  28
ENDBRANCH  21  22
ENDBRANCH   4  21
TORSDOF 9
ENDMDL
MODEL 2
REMARK VINA RESULT:      -9.1      1.917      5.142
REMARK  Name = Bazedoxifene
REMARK  10 active torsions:
REMARK  status: ('A' for Active; 'I' for Inactive)
REMARK    1  A    between atoms: C_1  and  C_2
REMARK    2  A    between atoms: C_3  and  C_29
REMARK    3  A    between atoms: N_4  and  C_5
REMARK    4  A    between atoms: C_5  and  C_6
REMARK    5  A    between atoms: C_9  and  O_10
REMARK    6  A    between atoms: O_10  and  C_11
REMARK    7  A    between atoms: C_11  and  C_12
REMARK    8  A    between atoms: C_12  and  N_13
REMARK    9  A    between atoms: C_25  and  O_26
REMARK   10  A    between atoms: C_32  and  O_33
REMARK                            x       y       z     vdW  Elec       q    Type
REMARK                         _______ _______ _______ _____ _____    ______ ____
ROOT
ATOM      1  C   UNL     1      -9.031  -4.598 128.088  0.00  0.00    +0.000 C 
ATOM      2  C   UNL     1      -8.382  -3.279 127.851  0.00  0.00    +0.000 A 
ATOM      3  C   UNL     1      -7.569  -2.567 128.728  0.00  0.00    +0.000 A 
ATOM      4  N   UNL     1      -7.163  -1.400 128.069  0.00  0.00    +0.000 N 
ATOM      5  C   UNL     1      -7.674  -1.408 126.772  0.00  0.00    +0.000 A 
ATOM      6  C   UNL     1      -8.500  -2.529 126.646  0.00  0.00    +0.000 A 
ATOM      7  C   UNL     1      -9.203  -2.734 125.430  0.00  0.00    +0.000 A 
ATOM      8  C   UNL     1      -9.123  -1.788 124.410  0.00  0.00    +0.000 A 
ATOM      9  C   UNL     1      -8.302  -0.691 124.531  0.00  0.00    +0.000 A 
ATOM     10  C   UNL     1      -7.514  -0.560 125.664  0.00  0.00    +0.000 A 
ENDROOT
BRANCH   3  11
ATOM     11  C   UNL     1      -7.132  -2.975 130.072  0.00  0.00    +0.000 A 
ATOM     12  C   UNL     1      -7.805  -2.545 131.227  0.00  0.00    +0.000 A 
ATOM     13  C   UNL     1      -7.311  -2.872 132.494  0.00  0.00    +0.000 A 
ATOM     14  C   UNL     1      -6.217  -3.718 132.607  0.00  0.00    +0.000 A 
ATOM     15  C   UNL     1      -5.617  -4.260 131.476  0.00  0.00    +0.000 A 
ATOM     16  C   UNL     1      -6.049  -3.848 130.214  0.00  0.00    +0.000 A 
BRANCH  14  17
ATOM     17  O   UNL     1      -5.685  -4.047 133.817  0.00  0.00    +0.000 OA
ATOM     18  H   UNL     1      -6.141  -4.841 134.148  0.00  0.00    +0.000 HD
ENDBRANCH  14  17
ENDBRANCH   3  11
BRANCH   8  19
ATOM     19  O   UNL     1      -9.805  -1.915 123.238  0.00  0.00    +0.000 OA
ATOM     20  H   UNL     1     -10.712  -2.193 123.441  0.00  0.00    +0.000 HD
ENDBRANCH   8  19
BRANCH   4  21
ATOM     21  C   UNL     1      -6.312  -0.370 128.718  0.00  0.00    +0.000 C 
BRANCH  21  22
ATOM     22  C   UNL     1      -6.997   0.902 129.157  0.00  0.00    +0.000 A 
ATOM     23  C   UNL     1      -7.817   0.923 130.302  0.00  0.00    +0.000 A 
ATOM     24  C   UNL     1      -8.769   1.936 130.449  0.00  0.00    +0.000 A 
ATOM     25  C   UNL     1      -8.796   3.007 129.561  0.00  0.00    +0.000 A 
ATOM     26  C   UNL     1      -7.814   3.102 128.569  0.00  0.00    +0.000 A 
ATOM     27  C   UNL     1      -6.948   2.035 128.338  0.00  0.00    +0.000 A 
BRANCH  25  28
ATOM     28  O   UNL     1      -9.870   3.852 129.699  0.00  0.00    +0.000 OA
BRANCH  28  29
ATOM     29  C   UNL     1      -9.812   4.667 130.865  0.00  0.00    +0.000 C 
BRANCH  29  30
ATOM     30  C   UNL     1      -9.225   6.045 130.536  0.00  0.00    +0.000 C 
BRANCH  30  31
ATOM     31  N   UNL     1     -10.252   7.053 130.182  0.00  0.00    +0.000 NA
ATOM     32  C   UNL     1     -10.461   7.071 128.731  0.00  0.00    +0.000 C 
ATOM     33  C   UNL     1     -10.871   8.459 128.231  0.00  0.00    +0.000 C 
ATOM     34  C   UNL     1     -12.325   8.847 128.481  0.00  0.00    +0.000 C 
ATOM     35  C   UNL     1     -12.759   8.777 129.939  0.00  0.00    +0.000 C 
ATOM     36  C   UNL     1     -12.805   7.348 130.445  0.00  0.00    +0.000 C 
ATOM     37  C   UNL     1     -11.470   6.851 130.978  0.00  0.00    +0.000 C 
ENDBRANCH  30  31
ENDBRANCH  29  30
ENDBRANCH  28  29
ENDBRANCH  25  28
ENDBRANCH  21  22
ENDBRANCH   4  21
TORSDOF 9
ENDMDL
MODEL 3
REMARK VINA RESULT:      -8.9      5.506      8.018
REMARK  Name = Bazedoxifene
REMARK  10 active torsions:
REMARK  status: ('A' for Active; 'I' for Inactive)
REMARK    1  A    between atoms: C_1  and  C_2
REMARK    2  A    between atoms: C_3  and  C_29
REMARK    3  A    between atoms: N_4  and  C_5
REMARK    4  A    between atoms: C_5  and  C_6
REMARK    5  A    between atoms: C_9  and  O_10
REMARK    6  A    between atoms: O_10  and  C_11
REMARK    7  A    between atoms: C_11  and  C_12
REMARK    8  A    between atoms: C_12  and  N_13
REMARK    9  A    between atoms: C_25  and  O_26
REMARK   10  A    between atoms: C_32  and  O_33
REMARK                            x       y       z     vdW  Elec       q    Type
REMARK                         _______ _______ _______ _____ _____    ______ ____
ROOT
ATOM      1  C   UNL     1      -2.146   6.858 128.114  0.00  0.00    +0.000 C 
ATOM      2  C   UNL     1      -2.958   5.911 128.927  0.00  0.00    +0.000 A 
ATOM      3  C   UNL     1      -3.057   5.858 130.315  0.00  0.00    +0.000 A 
ATOM      4  N   UNL     1      -3.955   4.831 130.632  0.00  0.00    +0.000 N 
ATOM      5  C   UNL     1      -4.456   4.284 129.451  0.00  0.00    +0.000 A 
ATOM      6  C   UNL     1      -3.786   4.889 128.382  0.00  0.00    +0.000 A 
ATOM      7  C   UNL     1      -4.065   4.455 127.060  0.00  0.00    +0.000 A 
ATOM      8  C   UNL     1      -4.939   3.391 126.844  0.00  0.00    +0.000 A 
ATOM      9  C   UNL     1      -5.605   2.804 127.895  0.00  0.00    +0.000 A 
ATOM     10  C   UNL     1      -5.433   3.315 129.173  0.00  0.00    +0.000 A 
ENDROOT
BRANCH   3  11
ATOM     11  C   UNL     1      -2.414   6.750 131.291  0.00  0.00    +0.000 A 
ATOM     12  C   UNL     1      -3.071   7.881 131.800  0.00  0.00    +0.000 A 
ATOM     13  C   UNL     1      -2.400   8.762 132.654  0.00  0.00    +0.000 A 
ATOM     14  C   UNL     1      -1.118   8.456 133.087  0.00  0.00    +0.000 A 
ATOM     15  C   UNL     1      -0.499   7.274 132.697  0.00  0.00    +0.000 A 
ATOM     16  C   UNL     1      -1.131   6.451 131.764  0.00  0.00    +0.000 A 
BRANCH  14  17
ATOM     17  O   UNL     1      -0.415   9.293 133.900  0.00  0.00    +0.000 OA
ATOM     18  H   UNL     1       0.389   8.832 134.195  0.00  0.00    +0.000 HD
ENDBRANCH  14  17
ENDBRANCH   3  11
BRANCH   8  19
ATOM     19  O   UNL     1      -5.215   2.910 125.600  0.00  0.00    +0.000 OA
ATOM     20  H   UNL     1      -4.382   2.629 125.191  0.00  0.00    +0.000 HD
ENDBRANCH   8  19
BRANCH   4  21
ATOM     21  C   UNL     1      -4.278   4.455 132.032  0.00  0.00    +0.000 C 
BRANCH  21  22
ATOM     22  C   UNL     1      -5.649   4.833 132.539  0.00  0.00    +0.000 A 
ATOM     23  C   UNL     1      -6.367   3.970 133.390  0.00  0.00    +0.000 A 
ATOM     24  C   UNL     1      -7.755   4.102 133.493  0.00  0.00    +0.000 A 
ATOM     25  C   UNL     1      -8.403   5.179 132.895  0.00  0.00    +0.000 A 
ATOM     26  C   UNL     1      -7.647   6.169 132.257  0.00  0.00    +0.000 A 
ATOM     27  C   UNL     1      -6.284   5.975 132.040  0.00  0.00    +0.000 A 
BRANCH  25  28
ATOM     28  O   UNL     1      -9.775   5.119 132.919  0.00  0.00    +0.000 OA
BRANCH  28  29
ATOM     29  C   UNL     1     -10.402   5.951 131.948  0.00  0.00    +0.000 C 
BRANCH  29  30
ATOM     30  C   UNL     1     -10.823   5.132 130.722  0.00  0.00    +0.000 C 
BRANCH  30  31
ATOM     31  N   UNL     1     -11.221   5.966 129.564  0.00  0.00    +0.000 NA
ATOM     32  C   UNL     1     -12.522   6.591 129.818  0.00  0.00    +0.000 C 
ATOM     33  C   UNL     1     -13.311   6.813 128.524  0.00  0.00    +0.000 C 
ATOM     34  C   UNL     1     -12.866   8.000 127.676  0.00  0.00    +0.000 C 
ATOM     35  C   UNL     1     -11.396   7.981 127.278  0.00  0.00    +0.000 C 
ATOM     36  C   UNL     1     -10.486   8.190 128.475  0.00  0.00    +0.000 C 
ATOM     37  C   UNL     1     -10.146   6.903 129.208  0.00  0.00    +0.000 C 
ENDBRANCH  30  31
ENDBRANCH  29  30
ENDBRANCH  28  29
ENDBRANCH  25  28
ENDBRANCH  21  22
ENDBRANCH   4  21
TORSDOF 9
ENDMDL
MODEL 4
REMARK VINA RESULT:      -8.9      3.955      6.622
REMARK  Name = Bazedoxifene
REMARK  10 active torsions:
REMARK  status: ('A' for Active; 'I' for Inactive)
REMARK    1  A    between atoms: C_1  and  C_2
REMARK    2  A    between atoms: C_3  and  C_29
REMARK    3  A    between atoms: N_4  and  C_5
REMARK    4  A    between atoms: C_5  and  C_6
REMARK    5  A    between atoms: C_9  and  O_10
REMARK    6  A    between atoms: O_10  and  C_11
REMARK    7  A    between atoms: C_11  and  C_12
REMARK    8  A    between atoms: C_12  and  N_13
REMARK    9  A    between atoms: C_25  and  O_26
REMARK   10  A    between atoms: C_32  and  O_33
REMARK                            x       y       z     vdW  Elec       q    Type
REMARK                         _______ _______ _______ _____ _____    ______ ____
ROOT
ATOM      1  C   UNL     1      -6.350   4.370 124.113  0.00  0.00    +0.000 C 
ATOM      2  C   UNL     1      -6.655   3.365 125.169  0.00  0.00    +0.000 A 
ATOM      3  C   UNL     1      -5.962   3.149 126.356  0.00  0.00    +0.000 A 
ATOM      4  N   UNL     1      -6.625   2.130 127.050  0.00  0.00    +0.000 N 
ATOM      5  C   UNL     1      -7.755   1.749 126.327  0.00  0.00    +0.000 A 
ATOM      6  C   UNL     1      -7.745   2.450 125.118  0.00  0.00    +0.000 A 
ATOM      7  C   UNL     1      -8.762   2.191 124.162  0.00  0.00    +0.000 A 
ATOM      8  C   UNL     1      -9.709   1.197 124.402  0.00  0.00    +0.000 A 
ATOM      9  C   UNL     1      -9.724   0.515 125.597  0.00  0.00    +0.000 A 
ATOM     10  C   UNL     1      -8.812   0.861 126.583  0.00  0.00    +0.000 A 
ENDROOT
BRANCH   3  11
ATOM     11  C   UNL     1      -4.794   3.891 126.856  0.00  0.00    +0.000 A 
ATOM     12  C   UNL     1      -3.492   3.378 126.745  0.00  0.00    +0.000 A 
ATOM     13  C   UNL     1      -2.413   4.062 127.313  0.00  0.00    +0.000 A 
ATOM     14  C   UNL     1      -2.616   5.307 127.891  0.00  0.00    +0.000 A 
ATOM     15  C   UNL     1      -3.878   5.891 127.895  0.00  0.00    +0.000 A 
ATOM     16  C   UNL     1      -4.968   5.160 127.420  0.00  0.00    +0.000 A 
BRANCH  14  17
ATOM     17  O   UNL     1      -1.602   6.001 128.477  0.00  0.00    +0.000 OA
ATOM     18  H   UNL     1      -0.928   5.367 128.778  0.00  0.00    +0.000 HD
ENDBRANCH  14  17
ENDBRANCH   3  11
BRANCH   8  19
ATOM     19  O   UNL     1     -10.684   0.881 123.506  0.00  0.00    +0.000 OA
ATOM     20  H   UNL     1     -11.369   0.373 123.969  0.00  0.00    +0.000 HD
ENDBRANCH   8  19
BRANCH   4  21
ATOM     21  C   UNL     1      -6.141   1.601 128.351  0.00  0.00    +0.000 C 
BRANCH  21  22
ATOM     22  C   UNL     1      -6.858   2.081 129.590  0.00  0.00    +0.000 A 
ATOM     23  C   UNL     1      -7.958   1.371 130.108  0.00  0.00    +0.000 A 
ATOM     24  C   UNL     1      -8.864   2.023 130.950  0.00  0.00    +0.000 A 
ATOM     25  C   UNL     1      -8.596   3.310 131.407  0.00  0.00    +0.000 A 
ATOM     26  C   UNL     1      -7.376   3.914 131.083  0.00  0.00    +0.000 A 
ATOM     27  C   UNL     1      -6.532   3.324 130.143  0.00  0.00    +0.000 A 
BRANCH  25  28
ATOM     28  O   UNL     1      -9.624   3.913 132.088  0.00  0.00    +0.000 OA
BRANCH  28  29
ATOM     29  C   UNL     1     -10.118   5.090 131.457  0.00  0.00    +0.000 C 
BRANCH  29  30
ATOM     30  C   UNL     1     -11.135   4.736 130.367  0.00  0.00    +0.000 C 
BRANCH  30  31
ATOM     31  N   UNL     1     -11.422   5.857 129.442  0.00  0.00    +0.000 NA
ATOM     32  C   UNL     1     -12.538   6.659 129.953  0.00  0.00    +0.000 C 
ATOM     33  C   UNL     1     -13.346   7.300 128.821  0.00  0.00    +0.000 C 
ATOM     34  C   UNL     1     -12.715   8.527 128.173  0.00  0.00    +0.000 C 
ATOM     35  C   UNL     1     -11.314   8.303 127.619  0.00  0.00    +0.000 C 
ATOM     36  C   UNL     1     -10.301   8.071 128.725  0.00  0.00    +0.000 C 
ATOM     37  C   UNL     1     -10.197   6.617 129.155  0.00  0.00    +0.000 C 
ENDBRANCH  30  31
ENDBRANCH  29  30
ENDBRANCH  28  29
ENDBRANCH  25  28
ENDBRANCH  21  22
ENDBRANCH   4  21
TORSDOF 9
ENDMDL
MODEL 5
REMARK VINA RESULT:      -8.8      2.231      5.341
REMARK  Name = Bazedoxifene
REMARK  10 active torsions:
REMARK  status: ('A' for Active; 'I' for Inactive)
REMARK    1  A    between atoms: C_1  and  C_2
REMARK    2  A    between atoms: C_3  and  C_29
REMARK    3  A    between atoms: N_4  and  C_5
REMARK    4  A    between atoms: C_5  and  C_6
REMARK    5  A    between atoms: C_9  and  O_10
REMARK    6  A    between atoms: O_10  and  C_11
REMARK    7  A    between atoms: C_11  and  C_12
REMARK    8  A    between atoms: C_12  and  N_13
REMARK    9  A    between atoms: C_25  and  O_26
REMARK   10  A    between atoms: C_32  and  O_33
REMARK                            x       y       z     vdW  Elec       q    Type
REMARK                         _______ _______ _______ _____ _____    ______ ____
ROOT
ATOM      1  C   UNL     1      -8.316  -3.488 125.462  0.00  0.00    +0.000 C 
ATOM      2  C   UNL     1      -8.147  -2.056 125.834  0.00  0.00    +0.000 A 
ATOM      3  C   UNL     1      -7.520  -1.544 126.968  0.00  0.00    +0.000 A 
ATOM      4  N   UNL     1      -7.574  -0.148 126.882  0.00  0.00    +0.000 N 
ATOM      5  C   UNL     1      -8.181   0.212 125.679  0.00  0.00    +0.000 A 
ATOM      6  C   UNL     1      -8.616  -0.961 125.053  0.00  0.00    +0.000 A 
ATOM      7  C   UNL     1      -9.333  -0.866 123.833  0.00  0.00    +0.000 A 
ATOM      8  C   UNL     1      -9.660   0.385 123.311  0.00  0.00    +0.000 A 
ATOM      9  C   UNL     1      -9.223   1.537 123.922  0.00  0.00    +0.000 A 
ATOM     10  C   UNL     1      -8.410   1.441 125.041  0.00  0.00    +0.000 A 
ENDROOT
BRANCH   3  11
ATOM     11  C   UNL     1      -6.846  -2.301 128.033  0.00  0.00    +0.000 A 
ATOM     12  C   UNL     1      -5.448  -2.406 128.092  0.00  0.00    +0.000 A 
ATOM     13  C   UNL     1      -4.840  -3.209 129.062  0.00  0.00    +0.000 A 
ATOM     14  C   UNL     1      -5.618  -3.815 130.038  0.00  0.00    +0.000 A 
ATOM     15  C   UNL     1      -6.994  -3.617 130.074  0.00  0.00    +0.000 A 
ATOM     16  C   UNL     1      -7.606  -2.900 129.045  0.00  0.00    +0.000 A 
BRANCH  14  17
ATOM     17  O   UNL     1      -5.076  -4.625 130.989  0.00  0.00    +0.000 OA
ATOM     18  H   UNL     1      -5.764  -5.239 131.300  0.00  0.00    +0.000 HD
ENDBRANCH  14  17
ENDBRANCH   3  11
BRANCH   8  19
ATOM     19  O   UNL     1     -10.378   0.536 122.164  0.00  0.00    +0.000 OA
ATOM     20  H   UNL     1     -11.283   0.227 122.328  0.00  0.00    +0.000 HD
ENDBRANCH   8  19
BRANCH   4  21
ATOM     21  C   UNL     1      -7.035   0.739 127.944  0.00  0.00    +0.000 C 
BRANCH  21  22
ATOM     22  C   UNL     1      -8.020   1.248 128.970  0.00  0.00    +0.000 A 
ATOM     23  C   UNL     1      -8.733   2.444 128.757  0.00  0.00    +0.000 A 
ATOM     24  C   UNL     1      -9.281   3.124 129.849  0.00  0.00    +0.000 A 
ATOM     25  C   UNL     1      -9.269   2.543 131.114  0.00  0.00    +0.000 A 
ATOM     26  C   UNL     1      -8.777   1.242 131.269  0.00  0.00    +0.000 A 
ATOM     27  C   UNL     1      -8.114   0.616 130.215  0.00  0.00    +0.000 A 
BRANCH  25  28
ATOM     28  O   UNL     1      -9.682   3.363 132.135  0.00  0.00    +0.000 OA
BRANCH  28  29
ATOM     29  C   UNL     1      -9.143   4.679 132.066  0.00  0.00    +0.000 C 
BRANCH  29  30
ATOM     30  C   UNL     1     -10.236   5.727 132.304  0.00  0.00    +0.000 C 
BRANCH  30  31
ATOM     31  N   UNL     1     -10.833   6.250 131.052  0.00  0.00    +0.000 NA
ATOM     32  C   UNL     1     -11.982   7.105 131.361  0.00  0.00    +0.000 C 
ATOM     33  C   UNL     1     -13.038   7.067 130.253  0.00  0.00    +0.000 C 
ATOM     34  C   UNL     1     -12.717   7.887 129.008  0.00  0.00    +0.000 C 
ATOM     35  C   UNL     1     -11.392   7.540 128.343  0.00  0.00    +0.000 C 
ATOM     36  C   UNL     1     -10.208   7.942 129.203  0.00  0.00    +0.000 C 
ATOM     37  C   UNL     1      -9.805   6.878 130.212  0.00  0.00    +0.000 C 
ENDBRANCH  30  31
ENDBRANCH  29  30
ENDBRANCH  28  29
ENDBRANCH  25  28
ENDBRANCH  21  22
ENDBRANCH   4  21
TORSDOF 9
ENDMDL
MODEL 6
REMARK VINA RESULT:      -8.7      0.969      1.575
REMARK  Name = Bazedoxifene
REMARK  10 active torsions:
REMARK  status: ('A' for Active; 'I' for Inactive)
REMARK    1  A    between atoms: C_1  and  C_2
REMARK    2  A    between atoms: C_3  and  C_29
REMARK    3  A    between atoms: N_4  and  C_5
REMARK    4  A    between atoms: C_5  and  C_6
REMARK    5  A    between atoms: C_9  and  O_10
REMARK    6  A    between atoms: O_10  and  C_11
REMARK    7  A    between atoms: C_11  and  C_12
REMARK    8  A    between atoms: C_12  and  N_13
REMARK    9  A    between atoms: C_25  and  O_26
REMARK   10  A    between atoms: C_32  and  O_33
REMARK                            x       y       z     vdW  Elec       q    Type
REMARK                         _______ _______ _______ _____ _____    ______ ____
ROOT
ATOM      1  C   UNL     1      -4.131  -3.227 128.915  0.00  0.00    +0.000 C 
ATOM      2  C   UNL     1      -4.945  -2.668 130.030  0.00  0.00    +0.000 A 
ATOM      3  C   UNL     1      -6.300  -2.347 130.008  0.00  0.00    +0.000 A 
ATOM      4  N   UNL     1      -6.641  -1.884 131.285  0.00  0.00    +0.000 N 
ATOM      5  C   UNL     1      -5.522  -1.965 132.113  0.00  0.00    +0.000 A 
ATOM      6  C   UNL     1      -4.439  -2.374 131.328  0.00  0.00    +0.000 A 
ATOM      7  C   UNL     1      -3.154  -2.470 131.922  0.00  0.00    +0.000 A 
ATOM      8  C   UNL     1      -2.969  -2.089 133.250  0.00  0.00    +0.000 A 
ATOM      9  C   UNL     1      -4.037  -1.697 134.024  0.00  0.00    +0.000 A 
ATOM     10  C   UNL     1      -5.312  -1.730 133.481  0.00  0.00    +0.000 A 
ENDROOT
BRANCH   3  11
ATOM     11  C   UNL     1      -7.243  -2.526 128.894  0.00  0.00    +0.000 A 
ATOM     12  C   UNL     1      -8.108  -3.629 128.830  0.00  0.00    +0.000 A 
ATOM     13  C   UNL     1      -8.926  -3.821 127.712  0.00  0.00    +0.000 A 
ATOM     14  C   UNL     1      -8.962  -2.858 126.714  0.00  0.00    +0.000 A 
ATOM     15  C   UNL     1      -8.210  -1.694 126.822  0.00  0.00    +0.000 A 
ATOM     16  C   UNL     1      -7.319  -1.556 127.888  0.00  0.00    +0.000 A 
BRANCH  14  17
ATOM     17  O   UNL     1      -9.725  -3.010 125.596  0.00  0.00    +0.000 OA
ATOM     18  H   UNL     1     -10.662  -2.955 125.852  0.00  0.00    +0.000 HD
ENDBRANCH  14  17
ENDBRANCH   3  11
BRANCH   8  19
ATOM     19  O   UNL     1      -1.753  -2.125 133.861  0.00  0.00    +0.000 OA
ATOM     20  H   UNL     1      -1.115  -2.522 133.246  0.00  0.00    +0.000 HD
ENDBRANCH   8  19
BRANCH   4  21
ATOM     21  C   UNL     1      -8.007  -1.408 131.624  0.00  0.00    +0.000 C 
BRANCH  21  22
ATOM     22  C   UNL     1      -8.326   0.032 131.302  0.00  0.00    +0.000 A 
ATOM     23  C   UNL     1      -7.371   0.863 130.686  0.00  0.00    +0.000 A 
ATOM     24  C   UNL     1      -7.496   2.252 130.791  0.00  0.00    +0.000 A 
ATOM     25  C   UNL     1      -8.639   2.812 131.354  0.00  0.00    +0.000 A 
ATOM     26  C   UNL     1      -9.695   1.979 131.740  0.00  0.00    +0.000 A 
ATOM     27  C   UNL     1      -9.523   0.596 131.758  0.00  0.00    +0.000 A 
BRANCH  25  28
ATOM     28  O   UNL     1      -8.584   4.169 131.557  0.00  0.00    +0.000 OA
BRANCH  28  29
ATOM     29  C   UNL     1      -9.490   4.909 130.745  0.00  0.00    +0.000 C 
BRANCH  29  30
ATOM     30  C   UNL     1      -9.077   6.383 130.674  0.00  0.00    +0.000 C 
BRANCH  30  31
ATOM     31  N   UNL     1     -10.173   7.282 130.243  0.00  0.00    +0.000 NA
ATOM     32  C   UNL     1     -10.349   7.201 128.790  0.00  0.00    +0.000 C 
ATOM     33  C   UNL     1     -10.859   8.519 128.201  0.00  0.00    +0.000 C 
ATOM     34  C   UNL     1     -12.344   8.800 128.401  0.00  0.00    +0.000 C 
ATOM     35  C   UNL     1     -12.805   8.778 129.852  0.00  0.00    +0.000 C 
ATOM     36  C   UNL     1     -12.747   7.380 130.440  0.00  0.00    +0.000 C 
ATOM     37  C   UNL     1     -11.390   7.026 131.026  0.00  0.00    +0.000 C 
ENDBRANCH  30  31
ENDBRANCH  29  30
ENDBRANCH  28  29
ENDBRANCH  25  28
ENDBRANCH  21  22
ENDBRANCH   4  21
TORSDOF 9
ENDMDL
MODEL 7
REMARK VINA RESULT:      -8.6      1.956      2.278
REMARK  Name = Bazedoxifene
REMARK  10 active torsions:
REMARK  status: ('A' for Active; 'I' for Inactive)
REMARK    1  A    between atoms: C_1  and  C_2
REMARK    2  A    between atoms: C_3  and  C_29
REMARK    3  A    between atoms: N_4  and  C_5
REMARK    4  A    between atoms: C_5  and  C_6
REMARK    5  A    between atoms: C_9  and  O_10
REMARK    6  A    between atoms: O_10  and  C_11
REMARK    7  A    between atoms: C_11  and  C_12
REMARK    8  A    between atoms: C_12  and  N_13
REMARK    9  A    between atoms: C_25  and  O_26
REMARK   10  A    between atoms: C_32  and  O_33
REMARK                            x       y       z     vdW  Elec       q    Type
REMARK                         _______ _______ _______ _____ _____    ______ ____
ROOT
ATOM      1  C   UNL     1      -3.350  -3.610 128.870  0.00  0.00    +0.000 C 
ATOM      2  C   UNL     1      -4.638  -3.275 129.539  0.00  0.00    +0.000 A 
ATOM      3  C   UNL     1      -5.718  -2.585 128.996  0.00  0.00    +0.000 A 
ATOM      4  N   UNL     1      -6.717  -2.532 129.976  0.00  0.00    +0.000 N 
ATOM      5  C   UNL     1      -6.285  -3.231 131.104  0.00  0.00    +0.000 A 
ATOM      6  C   UNL     1      -4.964  -3.630 130.879  0.00  0.00    +0.000 A 
ATOM      7  C   UNL     1      -4.263  -4.306 131.911  0.00  0.00    +0.000 A 
ATOM      8  C   UNL     1      -4.865  -4.499 133.153  0.00  0.00    +0.000 A 
ATOM      9  C   UNL     1      -6.168  -4.115 133.370  0.00  0.00    +0.000 A 
ATOM     10  C   UNL     1      -6.896  -3.575 132.320  0.00  0.00    +0.000 A 
ENDROOT
BRANCH   3  11
ATOM     11  C   UNL     1      -5.849  -2.067 127.626  0.00  0.00    +0.000 A 
ATOM     12  C   UNL     1      -5.303  -0.829 127.251  0.00  0.00    +0.000 A 
ATOM     13  C   UNL     1      -5.525  -0.320 125.968  0.00  0.00    +0.000 A 
ATOM     14  C   UNL     1      -6.192  -1.092 125.028  0.00  0.00    +0.000 A 
ATOM     15  C   UNL     1      -6.627  -2.375 125.342  0.00  0.00    +0.000 A 
ATOM     16  C   UNL     1      -6.494  -2.837 126.652  0.00  0.00    +0.000 A 
BRANCH  14  17
ATOM     17  O   UNL     1      -6.452  -0.631 123.773  0.00  0.00    +0.000 OA
ATOM     18  H   UNL     1      -6.080   0.265 123.691  0.00  0.00    +0.000 HD
ENDBRANCH  14  17
ENDBRANCH   3  11
BRANCH   8  19
ATOM     19  O   UNL     1      -4.228  -5.108 134.191  0.00  0.00    +0.000 OA
ATOM     20  H   UNL     1      -4.026  -6.020 133.931  0.00  0.00    +0.000 HD
ENDBRANCH   8  19
BRANCH   4  21
ATOM     21  C   UNL     1      -8.009  -1.832 129.764  0.00  0.00    +0.000 C 
BRANCH  21  22
ATOM     22  C   UNL     1      -8.120  -0.427 130.307  0.00  0.00    +0.000 A 
ATOM     23  C   UNL     1      -8.597  -0.193 131.611  0.00  0.00    +0.000 A 
ATOM     24  C   UNL     1      -9.105   1.068 131.943  0.00  0.00    +0.000 A 
ATOM     25  C   UNL     1      -8.987   2.128 131.049  0.00  0.00    +0.000 A 
ATOM     26  C   UNL     1      -8.287   1.943 129.851  0.00  0.00    +0.000 A 
ATOM     27  C   UNL     1      -7.896   0.664 129.461  0.00  0.00    +0.000 A 
BRANCH  25  28
ATOM     28  O   UNL     1      -9.662   3.269 131.406  0.00  0.00    +0.000 OA
BRANCH  28  29
ATOM     29  C   UNL     1      -9.880   4.169 130.325  0.00  0.00    +0.000 C 
BRANCH  29  30
ATOM     30  C   UNL     1     -11.289   4.768 130.392  0.00  0.00    +0.000 C 
BRANCH  30  31
ATOM     31  N   UNL     1     -11.494   5.899 129.456  0.00  0.00    +0.000 NA
ATOM     32  C   UNL     1     -12.636   6.710 129.888  0.00  0.00    +0.000 C 
ATOM     33  C   UNL     1     -13.351   7.367 128.704  0.00  0.00    +0.000 C 
ATOM     34  C   UNL     1     -12.659   8.592 128.114  0.00  0.00    +0.000 C 
ATOM     35  C   UNL     1     -11.224   8.355 127.664  0.00  0.00    +0.000 C 
ATOM     36  C   UNL     1     -10.299   8.105 128.841  0.00  0.00    +0.000 C 
ATOM     37  C   UNL     1     -10.243   6.647 129.267  0.00  0.00    +0.000 C 
ENDBRANCH  30  31
ENDBRANCH  29  30
ENDBRANCH  28  29
ENDBRANCH  25  28
ENDBRANCH  21  22
ENDBRANCH   4  21
TORSDOF 9
ENDMDL
MODEL 8
REMARK VINA RESULT:      -8.6      3.221      7.655
REMARK  Name = Bazedoxifene
REMARK  10 active torsions:
REMARK  status: ('A' for Active; 'I' for Inactive)
REMARK    1  A    between atoms: C_1  and  C_2
REMARK    2  A    between atoms: C_3  and  C_29
REMARK    3  A    between atoms: N_4  and  C_5
REMARK    4  A    between atoms: C_5  and  C_6
REMARK    5  A    between atoms: C_9  and  O_10
REMARK    6  A    between atoms: O_10  and  C_11
REMARK    7  A    between atoms: C_11  and  C_12
REMARK    8  A    between atoms: C_12  and  N_13
REMARK    9  A    between atoms: C_25  and  O_26
REMARK   10  A    between atoms: C_32  and  O_33
REMARK                            x       y       z     vdW  Elec       q    Type
REMARK                         _______ _______ _______ _____ _____    ______ ____
ROOT
ATOM      1  C   UNL     1      -9.244   0.334 131.733  0.00  0.00    +0.000 C 
ATOM      2  C   UNL     1      -8.140   0.476 130.744  0.00  0.00    +0.000 A 
ATOM      3  C   UNL     1      -7.630   1.656 130.209  0.00  0.00    +0.000 A 
ATOM      4  N   UNL     1      -6.583   1.308 129.347  0.00  0.00    +0.000 N 
ATOM      5  C   UNL     1      -6.404  -0.075 129.383  0.00  0.00    +0.000 A 
ATOM      6  C   UNL     1      -7.416  -0.615 130.184  0.00  0.00    +0.000 A 
ATOM      7  C   UNL     1      -7.500  -2.024 130.331  0.00  0.00    +0.000 A 
ATOM      8  C   UNL     1      -6.631  -2.853 129.623  0.00  0.00    +0.000 A 
ATOM      9  C   UNL     1      -5.630  -2.320 128.844  0.00  0.00    +0.000 A 
ATOM     10  C   UNL     1      -5.464  -0.943 128.806  0.00  0.00    +0.000 A 
ENDROOT
BRANCH   3  11
ATOM     11  C   UNL     1      -8.038   3.032 130.531  0.00  0.00    +0.000 A 
ATOM     12  C   UNL     1      -7.315   3.823 131.438  0.00  0.00    +0.000 A 
ATOM     13  C   UNL     1      -7.780   5.092 131.795  0.00  0.00    +0.000 A 
ATOM     14  C   UNL     1      -8.900   5.615 131.165  0.00  0.00    +0.000 A 
ATOM     15  C   UNL     1      -9.555   4.899 130.168  0.00  0.00    +0.000 A 
ATOM     16  C   UNL     1      -9.148   3.594 129.890  0.00  0.00    +0.000 A 
BRANCH  14  17
ATOM     17  O   UNL     1      -9.405   6.837 131.495  0.00  0.00    +0.000 OA
ATOM     18  H   UNL     1     -10.190   6.704 132.054  0.00  0.00    +0.000 HD
ENDBRANCH  14  17
ENDBRANCH   3  11
BRANCH   8  19
ATOM     19  O   UNL     1      -6.690  -4.211 129.697  0.00  0.00    +0.000 OA
ATOM     20  H   UNL     1      -7.592  -4.463 129.949  0.00  0.00    +0.000 HD
ENDBRANCH   8  19
BRANCH   4  21
ATOM     21  C   UNL     1      -5.826   2.315 128.561  0.00  0.00    +0.000 C 
BRANCH  21  22
ATOM     22  C   UNL     1      -6.293   2.569 127.148  0.00  0.00    +0.000 A 
ATOM     23  C   UNL     1      -7.243   3.571 126.870  0.00  0.00    +0.000 A 
ATOM     24  C   UNL     1      -7.982   3.511 125.684  0.00  0.00    +0.000 A 
ATOM     25  C   UNL     1      -7.667   2.568 124.710  0.00  0.00    +0.000 A 
ATOM     26  C   UNL     1      -6.557   1.735 124.891  0.00  0.00    +0.000 A 
ATOM     27  C   UNL     1      -5.902   1.703 126.121  0.00  0.00    +0.000 A 
BRANCH  25  28
ATOM     28  O   UNL     1      -8.556   2.490 123.666  0.00  0.00    +0.000 OA
BRANCH  28  29
ATOM     29  C   UNL     1      -9.684   1.665 123.934  0.00  0.00    +0.000 C 
BRANCH  29  30
ATOM     30  C   UNL     1      -9.599   0.355 123.142  0.00  0.00    +0.000 C 
BRANCH  30  31
ATOM     31  N   UNL     1      -9.005  -0.762 123.913  0.00  0.00    +0.000 NA
ATOM     32  C   UNL     1      -9.438  -0.696 125.312  0.00  0.00    +0.000 C 
ATOM     33  C   UNL     1      -8.383  -1.265 126.265  0.00  0.00    +0.000 C 
ATOM     34  C   UNL     1      -8.302  -2.786 126.326  0.00  0.00    +0.000 C 
ATOM     35  C   UNL     1      -8.068  -3.464 124.982  0.00  0.00    +0.000 C 
ATOM     36  C   UNL     1      -9.270  -3.327 124.065  0.00  0.00    +0.000 C 
ATOM     37  C   UNL     1      -9.265  -2.046 123.247  0.00  0.00    +0.000 C 
ENDBRANCH  30  31
ENDBRANCH  29  30
ENDBRANCH  28  29
ENDBRANCH  25  28
ENDBRANCH  21  22
ENDBRANCH   4  21
TORSDOF 9
ENDMDL
MODEL 9
REMARK VINA RESULT:      -8.4      2.631      5.619
REMARK  Name = Bazedoxifene
REMARK  10 active torsions:
REMARK  status: ('A' for Active; 'I' for Inactive)
REMARK    1  A    between atoms: C_1  and  C_2
REMARK    2  A    between atoms: C_3  and  C_29
REMARK    3  A    between atoms: N_4  and  C_5
REMARK    4  A    between atoms: C_5  and  C_6
REMARK    5  A    between atoms: C_9  and  O_10
REMARK    6  A    between atoms: O_10  and  C_11
REMARK    7  A    between atoms: C_11  and  C_12
REMARK    8  A    between atoms: C_12  and  N_13
REMARK    9  A    between atoms: C_25  and  O_26
REMARK   10  A    between atoms: C_32  and  O_33
REMARK                            x       y       z     vdW  Elec       q    Type
REMARK                         _______ _______ _______ _____ _____    ______ ____
ROOT
ATOM      1  C   UNL     1      -9.185  -4.414 128.079  0.00  0.00    +0.000 C 
ATOM      2  C   UNL     1      -8.338  -3.219 127.810  0.00  0.00    +0.000 A 
ATOM      3  C   UNL     1      -7.397  -2.640 128.658  0.00  0.00    +0.000 A 
ATOM      4  N   UNL     1      -6.826  -1.560 127.976  0.00  0.00    +0.000 N 
ATOM      5  C   UNL     1      -7.365  -1.496 126.691  0.00  0.00    +0.000 A 
ATOM      6  C   UNL     1      -8.365  -2.470 126.599  0.00  0.00    +0.000 A 
ATOM      7  C   UNL     1      -9.123  -2.568 125.404  0.00  0.00    +0.000 A 
ATOM      8  C   UNL     1      -8.919  -1.655 124.370  0.00  0.00    +0.000 A 
ATOM      9  C   UNL     1      -7.929  -0.705 124.458  0.00  0.00    +0.000 A 
ATOM     10  C   UNL     1      -7.100  -0.694 125.570  0.00  0.00    +0.000 A 
ENDROOT
BRANCH   3  11
ATOM     11  C   UNL     1      -6.997  -3.103 129.996  0.00  0.00    +0.000 A 
ATOM     12  C   UNL     1      -7.630  -2.634 131.158  0.00  0.00    +0.000 A 
ATOM     13  C   UNL     1      -7.167  -3.020 132.419  0.00  0.00    +0.000 A 
ATOM     14  C   UNL     1      -6.148  -3.957 132.519  0.00  0.00    +0.000 A 
ATOM     15  C   UNL     1      -5.597  -4.532 131.379  0.00  0.00    +0.000 A 
ATOM     16  C   UNL     1      -5.992  -4.068 130.124  0.00  0.00    +0.000 A 
BRANCH  14  17
ATOM     17  O   UNL     1      -5.647  -4.347 133.724  0.00  0.00    +0.000 OA
ATOM     18  H   UNL     1      -6.323  -4.876 134.182  0.00  0.00    +0.000 HD
ENDBRANCH  14  17
ENDBRANCH   3  11
BRANCH   8  19
ATOM     19  O   UNL     1      -9.642  -1.679 123.217  0.00  0.00    +0.000 OA
ATOM     20  H   UNL     1      -9.341  -0.949 122.654  0.00  0.00    +0.000 HD
ENDBRANCH   8  19
BRANCH   4  21
ATOM     21  C   UNL     1      -5.803  -0.676 128.591  0.00  0.00    +0.000 C 
BRANCH  21  22
ATOM     22  C   UNL     1      -6.283   0.288 129.649  0.00  0.00    +0.000 A 
ATOM     23  C   UNL     1      -5.608   0.406 130.879  0.00  0.00    +0.000 A 
ATOM     24  C   UNL     1      -6.278   0.940 131.985  0.00  0.00    +0.000 A 
ATOM     25  C   UNL     1      -7.541   1.503 131.834  0.00  0.00    +0.000 A 
ATOM     26  C   UNL     1      -8.102   1.603 130.555  0.00  0.00    +0.000 A 
ATOM     27  C   UNL     1      -7.499   0.959 129.476  0.00  0.00    +0.000 A 
BRANCH  25  28
ATOM     28  O   UNL     1      -8.171   1.844 133.006  0.00  0.00    +0.000 OA
BRANCH  28  29
ATOM     29  C   UNL     1      -7.389   2.677 133.856  0.00  0.00    +0.000 C 
BRANCH  29  30
ATOM     30  C   UNL     1      -8.101   4.009 134.114  0.00  0.00    +0.000 C 
BRANCH  30  31
ATOM     31  N   UNL     1      -8.400   4.767 132.876  0.00  0.00    +0.000 NA
ATOM     32  C   UNL     1      -9.510   5.696 133.110  0.00  0.00    +0.000 C 
ATOM     33  C   UNL     1     -10.333   5.934 131.841  0.00  0.00    +0.000 C 
ATOM     34  C   UNL     1      -9.710   6.879 130.819  0.00  0.00    +0.000 C 
ATOM     35  C   UNL     1      -8.317   6.480 130.351  0.00  0.00    +0.000 C 
ATOM     36  C   UNL     1      -7.289   6.620 131.459  0.00  0.00    +0.000 C 
ATOM     37  C   UNL     1      -7.180   5.386 132.341  0.00  0.00    +0.000 C 
ENDBRANCH  30  31
ENDBRANCH  29  30
ENDBRANCH  28  29
ENDBRANCH  25  28
ENDBRANCH  21  22
ENDBRANCH   4  21
TORSDOF 9
ENDMDL
