MODEL 1
REMARK VINA RESULT:      -8.5      0.000      0.000
REMARK  Name = Beclomethasone dipropionate
REMARK  14 active torsions:
REMARK  status: ('A' for Active; 'I' for Inactive)
REMARK    1  A    between atoms: C_4  and  C_5
REMARK    2  A    between atoms: C_6  and  O_7
REMARK    3  A    between atoms: C_6  and  C_12
REMARK    4  A    between atoms: O_7  and  C_8
REMARK    5  A    between atoms: C_8  and  C_10
REMARK    6  A    between atoms: C_10  and  C_11
REMARK    7  A    between atoms: C_12  and  C_14
REMARK    8  A    between atoms: C_14  and  O_15
REMARK    9  A    between atoms: O_15  and  C_16
REMARK   10  A    between atoms: C_16  and  C_18
REMARK   11  A    between atoms: C_18  and  C_19
REMARK   12  A    between atoms: C_20  and  C_21
REMARK   13  A    between atoms: C_23  and  O_24
REMARK   14  A    between atoms: C_37  and  C_38
REMARK                            x       y       z     vdW  Elec       q    Type
REMARK                         _______ _______ _______ _____ _____    ______ ____
ROOT
ATOM      1  C   UNL     1      -5.585   4.036 131.643  0.00  0.00    +0.000 C 
ATOM      2  C   UNL     1      -5.789   2.578 131.263  0.00  0.00    +0.000 C 
ATOM      3  C   UNL     1      -7.329   2.467 130.999  0.00  0.00    +0.000 C 
ATOM      4  C   UNL     1      -7.564   1.436 129.894  0.00  0.00    +0.000 C 
ATOM      5  C   UNL     1      -7.893   3.960 130.764  0.00  0.00    +0.000 C 
ATOM      6  C   UNL     1      -6.531   4.777 130.663  0.00  0.00    +0.000 C 
ATOM      7  C   UNL     1      -6.042   4.651 129.184  0.00  0.00    +0.000 C 
ATOM      8  C   UNL     1      -6.579   6.248 131.125  0.00  0.00    +0.000 C 
ATOM      9  C   UNL     1      -5.204   6.939 131.157  0.00  0.00    +0.000 C 
ATOM     10  C   UNL     1      -4.113   6.134 131.930  0.00  0.00    +0.000 C 
ATOM     11 CL   UNL     1      -4.624   6.345 133.720  0.00  0.00    +0.000 Cl
ATOM     12  C   UNL     1      -4.142   4.594 131.607  0.00  0.00    +0.000 C 
ATOM     13  C   UNL     1      -3.184   3.814 132.537  0.00  0.00    +0.000 C 
ATOM     14  C   UNL     1      -1.766   4.404 132.611  0.00  0.00    +0.000 C 
ATOM     15  C   UNL     1      -1.755   5.909 132.760  0.00  0.00    +0.000 C 
ATOM     16  C   UNL     1      -1.088   6.513 133.760  0.00  0.00    +0.000 C 
ATOM     17  C   UNL     1      -1.160   7.977 133.975  0.00  0.00    +0.000 C 
ATOM     18  O   UNL     1      -0.618   8.507 134.941  0.00  0.00    +0.000 OA
ATOM     19  C   UNL     1      -1.908   8.779 132.990  0.00  0.00    +0.000 C 
ATOM     20  C   UNL     1      -2.577   8.184 131.995  0.00  0.00    +0.000 C 
ATOM     21  C   UNL     1      -2.633   6.682 131.766  0.00  0.00    +0.000 C 
ATOM     22  C   UNL     1      -2.003   6.462 130.364  0.00  0.00    +0.000 C 
ENDROOT
BRANCH   5  23
ATOM     23  C   UNL     1      -8.707   4.248 129.472  0.00  0.00    +0.000 C 
ATOM     24  O   UNL     1      -8.719   3.458 128.525  0.00  0.00    +0.000 OA
BRANCH  23  25
ATOM     25  C   UNL     1      -9.552   5.550 129.416  0.00  0.00    +0.000 C 
BRANCH  25  26
ATOM     26  O   UNL     1      -9.388   6.053 128.062  0.00  0.00    +0.000 OA
BRANCH  26  27
ATOM     27  C   UNL     1     -10.306   6.916 127.572  0.00  0.00    +0.000 C 
ATOM     28  O   UNL     1     -10.883   6.752 126.493  0.00  0.00    +0.000 OA
BRANCH  27  29
ATOM     29  C   UNL     1     -10.539   8.084 128.512  0.00  0.00    +0.000 C 
ATOM     30  C   UNL     1     -11.940   8.648 128.314  0.00  0.00    +0.000 C 
ENDBRANCH  27  29
ENDBRANCH  26  27
ENDBRANCH  25  26
ENDBRANCH  23  25
ENDBRANCH   5  23
BRANCH   9  31
ATOM     31  O   UNL     1      -4.857   7.342 129.835  0.00  0.00    +0.000 OA
ATOM     32  H   UNL     1      -4.640   8.283 129.809  0.00  0.00    +0.000 HD
ENDBRANCH   9  31
BRANCH   5  33
ATOM     33  O   UNL     1      -8.650   4.338 131.975  0.00  0.00    +0.000 OA
BRANCH  33  34
ATOM     34  C   UNL     1      -8.948   3.679 133.138  0.00  0.00    +0.000 C 
ATOM     35  O   UNL     1      -9.679   2.691 133.092  0.00  0.00    +0.000 OA
BRANCH  34  36
ATOM     36  C   UNL     1      -8.316   4.095 134.453  0.00  0.00    +0.000 C 
ATOM     37  C   UNL     1      -7.891   5.534 134.646  0.00  0.00    +0.000 C 
ENDBRANCH  34  36
ENDBRANCH  33  34
ENDBRANCH   5  33
TORSDOF 9
ENDMDL
MODEL 2
REMARK VINA RESULT:      -8.0      5.227      9.594
REMARK  Name = Beclomethasone dipropionate
REMARK  14 active torsions:
REMARK  status: ('A' for Active; 'I' for Inactive)
REMARK    1  A    between atoms: C_4  and  C_5
REMARK    2  A    between atoms: C_6  and  O_7
REMARK    3  A    between atoms: C_6  and  C_12
REMARK    4  A    between atoms: O_7  and  C_8
REMARK    5  A    between atoms: C_8  and  C_10
REMARK    6  A    between atoms: C_10  and  C_11
REMARK    7  A    between atoms: C_12  and  C_14
REMARK    8  A    between atoms: C_14  and  O_15
REMARK    9  A    between atoms: O_15  and  C_16
REMARK   10  A    between atoms: C_16  and  C_18
REMARK   11  A    between atoms: C_18  and  C_19
REMARK   12  A    between atoms: C_20  and  C_21
REMARK   13  A    between atoms: C_23  and  O_24
REMARK   14  A    between atoms: C_37  and  C_38
REMARK                            x       y       z     vdW  Elec       q    Type
REMARK                         _______ _______ _______ _____ _____    ______ ____
ROOT
ATOM      1  C   UNL     1      -7.056  -2.278 129.543  0.00  0.00    +0.000 C 
ATOM      2  C   UNL     1      -7.744  -3.037 130.665  0.00  0.00    +0.000 C 
ATOM      3  C   UNL     1      -6.883  -2.707 131.931  0.00  0.00    +0.000 C 
ATOM      4  C   UNL     1      -7.802  -2.663 133.153  0.00  0.00    +0.000 C 
ATOM      5  C   UNL     1      -6.013  -1.389 131.599  0.00  0.00    +0.000 C 
ATOM      6  C   UNL     1      -6.675  -0.938 130.224  0.00  0.00    +0.000 C 
ATOM      7  C   UNL     1      -7.941  -0.098 130.591  0.00  0.00    +0.000 C 
ATOM      8  C   UNL     1      -5.758  -0.186 129.237  0.00  0.00    +0.000 C 
ATOM      9  C   UNL     1      -6.403   0.082 127.865  0.00  0.00    +0.000 C 
ATOM     10  C   UNL     1      -7.032  -1.185 127.207  0.00  0.00    +0.000 C 
ATOM     11 CL   UNL     1      -5.532  -2.172 126.674  0.00  0.00    +0.000 Cl
ATOM     12  C   UNL     1      -7.843  -2.068 128.226  0.00  0.00    +0.000 C 
ATOM     13  C   UNL     1      -8.277  -3.405 127.580  0.00  0.00    +0.000 C 
ATOM     14  C   UNL     1      -8.968  -3.244 126.216  0.00  0.00    +0.000 C 
ATOM     15  C   UNL     1      -8.263  -2.264 125.304  0.00  0.00    +0.000 C 
ATOM     16  C   UNL     1      -7.882  -2.609 124.061  0.00  0.00    +0.000 C 
ATOM     17  C   UNL     1      -7.097  -1.692 123.202  0.00  0.00    +0.000 C 
ATOM     18  O   UNL     1      -6.680  -2.048 122.104  0.00  0.00    +0.000 OA
ATOM     19  C   UNL     1      -6.831  -0.334 123.711  0.00  0.00    +0.000 C 
ATOM     20  C   UNL     1      -7.205   0.014 124.948  0.00  0.00    +0.000 C 
ATOM     21  C   UNL     1      -7.925  -0.902 125.926  0.00  0.00    +0.000 C 
ATOM     22  C   UNL     1      -9.281  -0.204 126.212  0.00  0.00    +0.000 C 
ENDROOT
BRANCH   5  23
ATOM     23  C   UNL     1      -6.097  -0.182 132.575  0.00  0.00    +0.000 C 
ATOM     24  O   UNL     1      -6.994  -0.091 133.416  0.00  0.00    +0.000 OA
BRANCH  23  25
ATOM     25  C   UNL     1      -4.984   0.898 132.497  0.00  0.00    +0.000 C 
BRANCH  25  26
ATOM     26  O   UNL     1      -5.685   2.152 132.276  0.00  0.00    +0.000 OA
BRANCH  26  27
ATOM     27  C   UNL     1      -5.557   2.769 131.080  0.00  0.00    +0.000 C 
ATOM     28  O   UNL     1      -6.519   3.081 130.372  0.00  0.00    +0.000 OA
BRANCH  27  29
ATOM     29  C   UNL     1      -4.104   3.032 130.735  0.00  0.00    +0.000 C 
ATOM     30  C   UNL     1      -3.912   3.023 129.224  0.00  0.00    +0.000 C 
ENDBRANCH  27  29
ENDBRANCH  26  27
ENDBRANCH  25  26
ENDBRANCH  23  25
ENDBRANCH   5  23
BRANCH   9  31
ATOM     31  O   UNL     1      -7.258   1.217 127.968  0.00  0.00    +0.000 OA
ATOM     32  H   UNL     1      -7.418   1.443 128.894  0.00  0.00    +0.000 HD
ENDBRANCH   9  31
BRANCH   5  33
ATOM     33  O   UNL     1      -4.617  -1.825 131.398  0.00  0.00    +0.000 OA
BRANCH  33  34
ATOM     34  C   UNL     1      -4.015  -3.055 131.359  0.00  0.00    +0.000 C 
ATOM     35  O   UNL     1      -3.448  -3.473 132.366  0.00  0.00    +0.000 OA
BRANCH  34  36
ATOM     36  C   UNL     1      -4.121  -3.935 130.127  0.00  0.00    +0.000 C 
ATOM     37  C   UNL     1      -3.145  -3.736 128.990  0.00  0.00    +0.000 C 
ENDBRANCH  34  36
ENDBRANCH  33  34
ENDBRANCH   5  33
TORSDOF 9
ENDMDL
MODEL 3
REMARK VINA RESULT:      -7.9      5.514      7.964
REMARK  Name = Beclomethasone dipropionate
REMARK  14 active torsions:
REMARK  status: ('A' for Active; 'I' for Inactive)
REMARK    1  A    between atoms: C_4  and  C_5
REMARK    2  A    between atoms: C_6  and  O_7
REMARK    3  A    between atoms: C_6  and  C_12
REMARK    4  A    between atoms: O_7  and  C_8
REMARK    5  A    between atoms: C_8  and  C_10
REMARK    6  A    between atoms: C_10  and  C_11
REMARK    7  A    between atoms: C_12  and  C_14
REMARK    8  A    between atoms: C_14  and  O_15
REMARK    9  A    between atoms: O_15  and  C_16
REMARK   10  A    between atoms: C_16  and  C_18
REMARK   11  A    between atoms: C_18  and  C_19
REMARK   12  A    between atoms: C_20  and  C_21
REMARK   13  A    between atoms: C_23  and  O_24
REMARK   14  A    between atoms: C_37  and  C_38
REMARK                            x       y       z     vdW  Elec       q    Type
REMARK                         _______ _______ _______ _____ _____    ______ ____
ROOT
ATOM      1  C   UNL     1      -6.361  -1.521 127.009  0.00  0.00    +0.000 C 
ATOM      2  C   UNL     1      -5.618  -2.350 125.973  0.00  0.00    +0.000 C 
ATOM      3  C   UNL     1      -6.530  -2.275 124.702  0.00  0.00    +0.000 C 
ATOM      4  C   UNL     1      -5.641  -2.301 123.457  0.00  0.00    +0.000 C 
ATOM      5  C   UNL     1      -7.523  -1.017 124.887  0.00  0.00    +0.000 C 
ATOM      6  C   UNL     1      -6.887  -0.326 126.172  0.00  0.00    +0.000 C 
ATOM      7  C   UNL     1      -5.719   0.579 125.661  0.00  0.00    +0.000 C 
ATOM      8  C   UNL     1      -7.858   0.455 127.081  0.00  0.00    +0.000 C 
ATOM      9  C   UNL     1      -7.220   0.963 128.387  0.00  0.00    +0.000 C 
ATOM     10  C   UNL     1      -6.455  -0.138 129.184  0.00  0.00    +0.000 C 
ATOM     11 CL   UNL     1      -7.838  -1.189 129.885  0.00  0.00    +0.000 Cl
ATOM     12  C   UNL     1      -5.576  -1.064 128.262  0.00  0.00    +0.000 C 
ATOM     13  C   UNL     1      -4.997  -2.255 129.062  0.00  0.00    +0.000 C 
ATOM     14  C   UNL     1      -4.303  -1.849 130.372  0.00  0.00    +0.000 C 
ATOM     15  C   UNL     1      -5.088  -0.832 131.171  0.00  0.00    +0.000 C 
ATOM     16  C   UNL     1      -5.411  -1.047 132.460  0.00  0.00    +0.000 C 
ATOM     17  C   UNL     1      -6.269  -0.106 133.216  0.00  0.00    +0.000 C 
ATOM     18  O   UNL     1      -6.629  -0.354 134.364  0.00  0.00    +0.000 OA
ATOM     19  C   UNL     1      -6.680   1.140 132.545  0.00  0.00    +0.000 C 
ATOM     20  C   UNL     1      -6.365   1.358 131.262  0.00  0.00    +0.000 C 
ATOM     21  C   UNL     1      -5.573   0.397 130.390  0.00  0.00    +0.000 C 
ATOM     22  C   UNL     1      -4.300   1.181 129.975  0.00  0.00    +0.000 C 
ENDROOT
BRANCH   5  23
ATOM     23  C   UNL     1      -7.579   0.054 123.762  0.00  0.00    +0.000 C 
ATOM     24  O   UNL     1      -6.686   0.152 122.917  0.00  0.00    +0.000 OA
BRANCH  23  25
ATOM     25  C   UNL     1      -8.823   0.980 123.696  0.00  0.00    +0.000 C 
BRANCH  25  26
ATOM     26  O   UNL     1      -8.314   2.274 123.272  0.00  0.00    +0.000 OA
BRANCH  26  27
ATOM     27  C   UNL     1      -8.071   3.218 124.209  0.00  0.00    +0.000 C 
ATOM     28  O   UNL     1      -8.911   3.585 125.036  0.00  0.00    +0.000 OA
BRANCH  27  29
ATOM     29  C   UNL     1      -6.652   3.747 124.120  0.00  0.00    +0.000 C 
ATOM     30  C   UNL     1      -6.154   3.681 122.682  0.00  0.00    +0.000 C 
ENDBRANCH  27  29
ENDBRANCH  26  27
ENDBRANCH  25  26
ENDBRANCH  23  25
ENDBRANCH   5  23
BRANCH   9  31
ATOM     31  O   UNL     1      -6.486   2.153 128.112  0.00  0.00    +0.000 OA
ATOM     32  H   UNL     1      -6.923   2.923 128.498  0.00  0.00    +0.000 HD
ENDBRANCH   9  31
BRANCH   5  33
ATOM     33  O   UNL     1      -8.865  -1.558 125.186  0.00  0.00    +0.000 OA
BRANCH  33  34
ATOM     34  C   UNL     1      -9.349  -2.829 125.345  0.00  0.00    +0.000 C 
ATOM     35  O   UNL     1      -9.377  -3.582 124.373  0.00  0.00    +0.000 OA
BRANCH  34  36
ATOM     36  C   UNL     1      -9.757  -3.341 126.714  0.00  0.00    +0.000 C 
ATOM     37  C   UNL     1      -8.717  -3.993 127.598  0.00  0.00    +0.000 C 
ENDBRANCH  34  36
ENDBRANCH  33  34
ENDBRANCH   5  33
TORSDOF 9
ENDMDL
MODEL 4
REMARK VINA RESULT:      -7.9      4.744      9.180
REMARK  Name = Beclomethasone dipropionate
REMARK  14 active torsions:
REMARK  status: ('A' for Active; 'I' for Inactive)
REMARK    1  A    between atoms: C_4  and  C_5
REMARK    2  A    between atoms: C_6  and  O_7
REMARK    3  A    between atoms: C_6  and  C_12
REMARK    4  A    between atoms: O_7  and  C_8
REMARK    5  A    between atoms: C_8  and  C_10
REMARK    6  A    between atoms: C_10  and  C_11
REMARK    7  A    between atoms: C_12  and  C_14
REMARK    8  A    between atoms: C_14  and  O_15
REMARK    9  A    between atoms: O_15  and  C_16
REMARK   10  A    between atoms: C_16  and  C_18
REMARK   11  A    between atoms: C_18  and  C_19
REMARK   12  A    between atoms: C_20  and  C_21
REMARK   13  A    between atoms: C_23  and  O_24
REMARK   14  A    between atoms: C_37  and  C_38
REMARK                            x       y       z     vdW  Elec       q    Type
REMARK                         _______ _______ _______ _____ _____    ______ ____
ROOT
ATOM      1  C   UNL     1      -5.562   1.658 126.363  0.00  0.00    +0.000 C 
ATOM      2  C   UNL     1      -4.133   2.177 126.351  0.00  0.00    +0.000 C 
ATOM      3  C   UNL     1      -4.258   3.646 126.879  0.00  0.00    +0.000 C 
ATOM      4  C   UNL     1      -2.997   3.991 127.673  0.00  0.00    +0.000 C 
ATOM      5  C   UNL     1      -5.678   3.775 127.634  0.00  0.00    +0.000 C 
ATOM      6  C   UNL     1      -6.125   2.248 127.682  0.00  0.00    +0.000 C 
ATOM      7  C   UNL     1      -5.434   1.620 128.936  0.00  0.00    +0.000 C 
ATOM      8  C   UNL     1      -7.644   1.978 127.672  0.00  0.00    +0.000 C 
ATOM      9  C   UNL     1      -8.014   0.488 127.559  0.00  0.00    +0.000 C 
ATOM     10  C   UNL     1      -7.297  -0.250 126.387  0.00  0.00    +0.000 C 
ATOM     11 CL   UNL     1      -8.169   0.418 124.870  0.00  0.00    +0.000 Cl
ATOM     12  C   UNL     1      -5.774   0.128 126.263  0.00  0.00    +0.000 C 
ATOM     13  C   UNL     1      -5.156  -0.469 124.977  0.00  0.00    +0.000 C 
ATOM     14  C   UNL     1      -5.437  -1.969 124.786  0.00  0.00    +0.000 C 
ATOM     15  C   UNL     1      -6.876  -2.344 125.068  0.00  0.00    +0.000 C 
ATOM     16  C   UNL     1      -7.620  -3.008 124.164  0.00  0.00    +0.000 C 
ATOM     17  C   UNL     1      -9.057  -3.285 124.389  0.00  0.00    +0.000 C 
ATOM     18  O   UNL     1      -9.747  -3.814 123.522  0.00  0.00    +0.000 OA
ATOM     19  C   UNL     1      -9.635  -2.901 125.690  0.00  0.00    +0.000 C 
ATOM     20  C   UNL     1      -8.902  -2.237 126.591  0.00  0.00    +0.000 C 
ATOM     21  C   UNL     1      -7.450  -1.830 126.395  0.00  0.00    +0.000 C 
ATOM     22  C   UNL     1      -6.668  -2.559 127.521  0.00  0.00    +0.000 C 
ENDROOT
BRANCH   5  23
ATOM     23  C   UNL     1      -5.695   4.312 129.092  0.00  0.00    +0.000 C 
ATOM     24  O   UNL     1      -4.653   4.559 129.703  0.00  0.00    +0.000 OA
BRANCH  23  25
ATOM     25  C   UNL     1      -7.074   4.579 129.755  0.00  0.00    +0.000 C 
BRANCH  25  26
ATOM     26  O   UNL     1      -7.126   6.017 129.961  0.00  0.00    +0.000 OA
BRANCH  26  27
ATOM     27  C   UNL     1      -7.653   6.492 131.112  0.00  0.00    +0.000 C 
ATOM     28  O   UNL     1      -7.017   6.573 132.166  0.00  0.00    +0.000 OA
BRANCH  27  29
ATOM     29  C   UNL     1      -9.099   6.918 130.935  0.00  0.00    +0.000 C 
ATOM     30  C   UNL     1      -9.996   6.141 131.890  0.00  0.00    +0.000 C 
ENDBRANCH  27  29
ENDBRANCH  26  27
ENDBRANCH  25  26
ENDBRANCH  23  25
ENDBRANCH   5  23
BRANCH   9  31
ATOM     31  O   UNL     1      -7.892  -0.119 128.842  0.00  0.00    +0.000 OA
ATOM     32  H   UNL     1      -8.656   0.090 129.395  0.00  0.00    +0.000 HD
ENDBRANCH   9  31
BRANCH   5  33
ATOM     33  O   UNL     1      -6.571   4.560 126.757  0.00  0.00    +0.000 OA
BRANCH  33  34
ATOM     34  C   UNL     1      -6.529   4.887 125.428  0.00  0.00    +0.000 C 
ATOM     35  O   UNL     1      -6.086   5.986 125.098  0.00  0.00    +0.000 OA
BRANCH  34  36
ATOM     36  C   UNL     1      -6.932   3.881 124.366  0.00  0.00    +0.000 C 
ATOM     37  C   UNL     1      -6.020   3.654 123.180  0.00  0.00    +0.000 C 
ENDBRANCH  34  36
ENDBRANCH  33  34
ENDBRANCH   5  33
TORSDOF 9
ENDMDL
MODEL 5
REMARK VINA RESULT:      -7.7      4.545      9.118
REMARK  Name = Beclomethasone dipropionate
REMARK  14 active torsions:
REMARK  status: ('A' for Active; 'I' for Inactive)
REMARK    1  A    between atoms: C_4  and  C_5
REMARK    2  A    between atoms: C_6  and  O_7
REMARK    3  A    between atoms: C_6  and  C_12
REMARK    4  A    between atoms: O_7  and  C_8
REMARK    5  A    between atoms: C_8  and  C_10
REMARK    6  A    between atoms: C_10  and  C_11
REMARK    7  A    between atoms: C_12  and  C_14
REMARK    8  A    between atoms: C_14  and  O_15
REMARK    9  A    between atoms: O_15  and  C_16
REMARK   10  A    between atoms: C_16  and  C_18
REMARK   11  A    between atoms: C_18  and  C_19
REMARK   12  A    between atoms: C_20  and  C_21
REMARK   13  A    between atoms: C_23  and  O_24
REMARK   14  A    between atoms: C_37  and  C_38
REMARK                            x       y       z     vdW  Elec       q    Type
REMARK                         _______ _______ _______ _____ _____    ______ ____
ROOT
ATOM      1  C   UNL     1      -6.751   2.125 126.645  0.00  0.00    +0.000 C 
ATOM      2  C   UNL     1      -5.891   3.341 126.337  0.00  0.00    +0.000 C 
ATOM      3  C   UNL     1      -6.001   4.219 127.629  0.00  0.00    +0.000 C 
ATOM      4  C   UNL     1      -4.676   4.957 127.835  0.00  0.00    +0.000 C 
ATOM      5  C   UNL     1      -6.523   3.269 128.824  0.00  0.00    +0.000 C 
ATOM      6  C   UNL     1      -6.414   1.840 128.131  0.00  0.00    +0.000 C 
ATOM      7  C   UNL     1      -4.934   1.370 128.307  0.00  0.00    +0.000 C 
ATOM      8  C   UNL     1      -7.414   0.768 128.612  0.00  0.00    +0.000 C 
ATOM      9  C   UNL     1      -7.369  -0.538 127.799  0.00  0.00    +0.000 C 
ATOM     10  C   UNL     1      -7.462  -0.323 126.256  0.00  0.00    +0.000 C 
ATOM     11 CL   UNL     1      -9.255   0.155 126.005  0.00  0.00    +0.000 Cl
ATOM     12  C   UNL     1      -6.576   0.875 125.749  0.00  0.00    +0.000 C 
ATOM     13  C   UNL     1      -6.851   1.175 124.257  0.00  0.00    +0.000 C 
ATOM     14  C   UNL     1      -6.793  -0.064 123.349  0.00  0.00    +0.000 C 
ATOM     15  C   UNL     1      -7.515  -1.260 123.929  0.00  0.00    +0.000 C 
ATOM     16  C   UNL     1      -8.470  -1.909 123.237  0.00  0.00    +0.000 C 
ATOM     17  C   UNL     1      -9.255  -3.012 123.837  0.00  0.00    +0.000 C 
ATOM     18  O   UNL     1     -10.181  -3.540 123.228  0.00  0.00    +0.000 OA
ATOM     19  C   UNL     1      -8.888  -3.457 125.194  0.00  0.00    +0.000 C 
ATOM     20  C   UNL     1      -7.942  -2.813 125.888  0.00  0.00    +0.000 C 
ATOM     21  C   UNL     1      -7.161  -1.612 125.380  0.00  0.00    +0.000 C 
ATOM     22  C   UNL     1      -5.677  -2.067 125.370  0.00  0.00    +0.000 C 
ENDROOT
BRANCH   5  23
ATOM     23  C   UNL     1      -5.698   3.214 130.139  0.00  0.00    +0.000 C 
ATOM     24  O   UNL     1      -4.762   3.988 130.349  0.00  0.00    +0.000 OA
BRANCH  23  25
ATOM     25  C   UNL     1      -6.113   2.177 131.218  0.00  0.00    +0.000 C 
BRANCH  25  26
ATOM     26  O   UNL     1      -6.906   2.925 132.180  0.00  0.00    +0.000 OA
BRANCH  26  27
ATOM     27  C   UNL     1      -7.651   2.245 133.080  0.00  0.00    +0.000 C 
ATOM     28  O   UNL     1      -7.186   1.388 133.837  0.00  0.00    +0.000 OA
BRANCH  27  29
ATOM     29  C   UNL     1      -9.106   2.676 133.046  0.00  0.00    +0.000 C 
ATOM     30  C   UNL     1      -9.858   1.904 131.971  0.00  0.00    +0.000 C 
ENDBRANCH  27  29
ENDBRANCH  26  27
ENDBRANCH  25  26
ENDBRANCH  23  25
ENDBRANCH   5  23
BRANCH   9  31
ATOM     31  O   UNL     1      -6.272  -1.328 128.250  0.00  0.00    +0.000 OA
ATOM     32  H   UNL     1      -6.190  -1.284 129.211  0.00  0.00    +0.000 HD
ENDBRANCH   9  31
BRANCH   5  33
ATOM     33  O   UNL     1      -7.932   3.626 129.083  0.00  0.00    +0.000 OA
BRANCH  33  34
ATOM     34  C   UNL     1      -8.587   4.821 129.216  0.00  0.00    +0.000 C 
ATOM     35  O   UNL     1      -9.119   5.322 128.227  0.00  0.00    +0.000 OA
BRANCH  34  36
ATOM     36  C   UNL     1      -8.742   5.478 130.575  0.00  0.00    +0.000 C 
ATOM     37  C   UNL     1      -7.597   6.291 131.137  0.00  0.00    +0.000 C 
ENDBRANCH  34  36
ENDBRANCH  33  34
ENDBRANCH   5  33
TORSDOF 9
ENDMDL
MODEL 6
REMARK VINA RESULT:      -7.6      6.442      8.375
REMARK  Name = Beclomethasone dipropionate
REMARK  14 active torsions:
REMARK  status: ('A' for Active; 'I' for Inactive)
REMARK    1  A    between atoms: C_4  and  C_5
REMARK    2  A    between atoms: C_6  and  O_7
REMARK    3  A    between atoms: C_6  and  C_12
REMARK    4  A    between atoms: O_7  and  C_8
REMARK    5  A    between atoms: C_8  and  C_10
REMARK    6  A    between atoms: C_10  and  C_11
REMARK    7  A    between atoms: C_12  and  C_14
REMARK    8  A    between atoms: C_14  and  O_15
REMARK    9  A    between atoms: O_15  and  C_16
REMARK   10  A    between atoms: C_16  and  C_18
REMARK   11  A    between atoms: C_18  and  C_19
REMARK   12  A    between atoms: C_20  and  C_21
REMARK   13  A    between atoms: C_23  and  O_24
REMARK   14  A    between atoms: C_37  and  C_38
REMARK                            x       y       z     vdW  Elec       q    Type
REMARK                         _______ _______ _______ _____ _____    ______ ____
ROOT
ATOM      1  C   UNL     1      -6.062  -1.986 128.187  0.00  0.00    +0.000 C 
ATOM      2  C   UNL     1      -5.366  -2.264 126.864  0.00  0.00    +0.000 C 
ATOM      3  C   UNL     1      -6.332  -1.654 125.792  0.00  0.00    +0.000 C 
ATOM      4  C   UNL     1      -5.497  -1.116 124.628  0.00  0.00    +0.000 C 
ATOM      5  C   UNL     1      -7.314  -0.622 126.550  0.00  0.00    +0.000 C 
ATOM      6  C   UNL     1      -6.621  -0.555 127.981  0.00  0.00    +0.000 C 
ATOM      7  C   UNL     1      -5.475   0.502 127.874  0.00  0.00    +0.000 C 
ATOM      8  C   UNL     1      -7.551  -0.269 129.179  0.00  0.00    +0.000 C 
ATOM      9  C   UNL     1      -6.857  -0.375 130.548  0.00  0.00    +0.000 C 
ATOM     10  C   UNL     1      -6.060  -1.701 130.750  0.00  0.00    +0.000 C 
ATOM     11 CL   UNL     1      -7.413  -2.976 130.972  0.00  0.00    +0.000 Cl
ATOM     12  C   UNL     1      -5.224  -2.113 129.482  0.00  0.00    +0.000 C 
ATOM     13  C   UNL     1      -4.613  -3.523 129.654  0.00  0.00    +0.000 C 
ATOM     14  C   UNL     1      -3.862  -3.722 130.980  0.00  0.00    +0.000 C 
ATOM     15  C   UNL     1      -4.610  -3.172 132.175  0.00  0.00    +0.000 C 
ATOM     16  C   UNL     1      -4.878  -3.936 133.250  0.00  0.00    +0.000 C 
ATOM     17  C   UNL     1      -5.701  -3.439 134.376  0.00  0.00    +0.000 C 
ATOM     18  O   UNL     1      -6.012  -4.171 135.311  0.00  0.00    +0.000 OA
ATOM     19  C   UNL     1      -6.139  -2.031 134.337  0.00  0.00    +0.000 C 
ATOM     20  C   UNL     1      -5.879  -1.268 133.269  0.00  0.00    +0.000 C 
ATOM     21  C   UNL     1      -5.126  -1.734 132.033  0.00  0.00    +0.000 C 
ATOM     22  C   UNL     1      -3.871  -0.825 131.955  0.00  0.00    +0.000 C 
ENDROOT
BRANCH   5  23
ATOM     23  C   UNL     1      -7.416   0.832 126.012  0.00  0.00    +0.000 C 
ATOM     24  O   UNL     1      -6.536   1.322 125.300  0.00  0.00    +0.000 OA
BRANCH  23  25
ATOM     25  C   UNL     1      -8.689   1.651 126.359  0.00  0.00    +0.000 C 
BRANCH  25  26
ATOM     26  O   UNL     1      -9.079   2.294 125.115  0.00  0.00    +0.000 OA
BRANCH  26  27
ATOM     27  C   UNL     1      -9.822   1.596 124.226  0.00  0.00    +0.000 C 
ATOM     28  O   UNL     1     -10.881   1.034 124.520  0.00  0.00    +0.000 OA
BRANCH  27  29
ATOM     29  C   UNL     1      -9.199   1.606 122.842  0.00  0.00    +0.000 C 
ATOM     30  C   UNL     1      -8.533   2.949 122.574  0.00  0.00    +0.000 C 
ENDBRANCH  27  29
ENDBRANCH  26  27
ENDBRANCH  25  26
ENDBRANCH  23  25
ENDBRANCH   5  23
BRANCH   9  31
ATOM     31  O   UNL     1      -6.133   0.828 130.796  0.00  0.00    +0.000 OA
ATOM     32  H   UNL     1      -6.720   1.594 130.766  0.00  0.00    +0.000 HD
ENDBRANCH   9  31
BRANCH   5  33
ATOM     33  O   UNL     1      -8.642  -1.262 126.633  0.00  0.00    +0.000 OA
BRANCH  33  34
ATOM     34  C   UNL     1      -9.223  -2.307 125.964  0.00  0.00    +0.000 C 
ATOM     35  O   UNL     1      -9.732  -2.101 124.864  0.00  0.00    +0.000 OA
BRANCH  34  36
ATOM     36  C   UNL     1      -9.160  -3.718 126.518  0.00  0.00    +0.000 C 
ATOM     37  C   UNL     1      -9.030  -3.920 128.012  0.00  0.00    +0.000 C 
ENDBRANCH  34  36
ENDBRANCH  33  34
ENDBRANCH   5  33
TORSDOF 9
ENDMDL
MODEL 7
REMARK VINA RESULT:      -7.6      4.023      6.875
REMARK  Name = Beclomethasone dipropionate
REMARK  14 active torsions:
REMARK  status: ('A' for Active; 'I' for Inactive)
REMARK    1  A    between atoms: C_4  and  C_5
REMARK    2  A    between atoms: C_6  and  O_7
REMARK    3  A    between atoms: C_6  and  C_12
REMARK    4  A    between atoms: O_7  and  C_8
REMARK    5  A    between atoms: C_8  and  C_10
REMARK    6  A    between atoms: C_10  and  C_11
REMARK    7  A    between atoms: C_12  and  C_14
REMARK    8  A    between atoms: C_14  and  O_15
REMARK    9  A    between atoms: O_15  and  C_16
REMARK   10  A    between atoms: C_16  and  C_18
REMARK   11  A    between atoms: C_18  and  C_19
REMARK   12  A    between atoms: C_20  and  C_21
REMARK   13  A    between atoms: C_23  and  O_24
REMARK   14  A    between atoms: C_37  and  C_38
REMARK                            x       y       z     vdW  Elec       q    Type
REMARK                         _______ _______ _______ _____ _____    ______ ____
ROOT
ATOM      1  C   UNL     1      -7.431   2.550 131.370  0.00  0.00    +0.000 C 
ATOM      2  C   UNL     1      -6.378   1.984 132.309  0.00  0.00    +0.000 C 
ATOM      3  C   UNL     1      -5.810   0.744 131.539  0.00  0.00    +0.000 C 
ATOM      4  C   UNL     1      -4.327   0.591 131.881  0.00  0.00    +0.000 C 
ATOM      5  C   UNL     1      -6.206   0.911 129.984  0.00  0.00    +0.000 C 
ATOM      6  C   UNL     1      -6.761   2.403 129.980  0.00  0.00    +0.000 C 
ATOM      7  C   UNL     1      -5.518   3.341 129.838  0.00  0.00    +0.000 C 
ATOM      8  C   UNL     1      -7.844   2.728 128.931  0.00  0.00    +0.000 C 
ATOM      9  C   UNL     1      -8.455   4.133 129.078  0.00  0.00    +0.000 C 
ATOM     10  C   UNL     1      -8.945   4.458 130.524  0.00  0.00    +0.000 C 
ATOM     11 CL   UNL     1     -10.490   3.413 130.690  0.00  0.00    +0.000 Cl
ATOM     12  C   UNL     1      -7.934   3.990 131.635  0.00  0.00    +0.000 C 
ATOM     13  C   UNL     1      -8.546   4.151 133.046  0.00  0.00    +0.000 C 
ATOM     14  C   UNL     1      -9.153   5.538 133.309  0.00  0.00    +0.000 C 
ATOM     15  C   UNL     1      -9.994   6.047 132.159  0.00  0.00    +0.000 C 
ATOM     16  C   UNL     1     -11.266   6.448 132.341  0.00  0.00    +0.000 C 
ATOM     17  C   UNL     1     -12.129   6.845 131.205  0.00  0.00    +0.000 C 
ATOM     18  O   UNL     1     -13.312   7.126 131.371  0.00  0.00    +0.000 OA
ATOM     19  C   UNL     1     -11.519   6.891 129.863  0.00  0.00    +0.000 C 
ATOM     20  C   UNL     1     -10.257   6.490 129.675  0.00  0.00    +0.000 C 
ATOM     21  C   UNL     1      -9.339   5.976 130.773  0.00  0.00    +0.000 C 
ATOM     22  C   UNL     1      -8.145   6.967 130.802  0.00  0.00    +0.000 C 
ENDROOT
BRANCH   5  23
ATOM     23  C   UNL     1      -5.077   0.830 128.919  0.00  0.00    +0.000 C 
ATOM     24  O   UNL     1      -3.887   0.894 129.233  0.00  0.00    +0.000 OA
BRANCH  23  25
ATOM     25  C   UNL     1      -5.486   0.617 127.436  0.00  0.00    +0.000 C 
BRANCH  25  26
ATOM     26  O   UNL     1      -4.467   1.301 126.658  0.00  0.00    +0.000 OA
BRANCH  26  27
ATOM     27  C   UNL     1      -4.739   2.531 126.166  0.00  0.00    +0.000 C 
ATOM     28  O   UNL     1      -5.687   2.764 125.410  0.00  0.00    +0.000 OA
BRANCH  27  29
ATOM     29  C   UNL     1      -3.753   3.569 126.666  0.00  0.00    +0.000 C 
ATOM     30  C   UNL     1      -2.336   3.011 126.623  0.00  0.00    +0.000 C 
ENDBRANCH  27  29
ENDBRANCH  26  27
ENDBRANCH  25  26
ENDBRANCH  23  25
ENDBRANCH   5  23
BRANCH   9  31
ATOM     31  O   UNL     1      -7.572   5.087 128.494  0.00  0.00    +0.000 OA
ATOM     32  H   UNL     1      -6.752   5.152 129.001  0.00  0.00    +0.000 HD
ENDBRANCH   9  31
BRANCH   5  33
ATOM     33  O   UNL     1      -7.287  -0.056 129.702  0.00  0.00    +0.000 OA
BRANCH  33  34
ATOM     34  C   UNL     1      -7.964  -0.958 130.478  0.00  0.00    +0.000 C 
ATOM     35  O   UNL     1      -8.828  -0.548 131.252  0.00  0.00    +0.000 OA
BRANCH  34  36
ATOM     36  C   UNL     1      -7.729  -2.450 130.325  0.00  0.00    +0.000 C 
ATOM     37  C   UNL     1      -7.604  -3.039 128.938  0.00  0.00    +0.000 C 
ENDBRANCH  34  36
ENDBRANCH  33  34
ENDBRANCH   5  33
TORSDOF 9
ENDMDL
MODEL 8
REMARK VINA RESULT:      -7.6      4.374      7.772
REMARK  Name = Beclomethasone dipropionate
REMARK  14 active torsions:
REMARK  status: ('A' for Active; 'I' for Inactive)
REMARK    1  A    between atoms: C_4  and  C_5
REMARK    2  A    between atoms: C_6  and  O_7
REMARK    3  A    between atoms: C_6  and  C_12
REMARK    4  A    between atoms: O_7  and  C_8
REMARK    5  A    between atoms: C_8  and  C_10
REMARK    6  A    between atoms: C_10  and  C_11
REMARK    7  A    between atoms: C_12  and  C_14
REMARK    8  A    between atoms: C_14  and  O_15
REMARK    9  A    between atoms: O_15  and  C_16
REMARK   10  A    between atoms: C_16  and  C_18
REMARK   11  A    between atoms: C_18  and  C_19
REMARK   12  A    between atoms: C_20  and  C_21
REMARK   13  A    between atoms: C_23  and  O_24
REMARK   14  A    between atoms: C_37  and  C_38
REMARK                            x       y       z     vdW  Elec       q    Type
REMARK                         _______ _______ _______ _____ _____    ______ ____
ROOT
ATOM      1  C   UNL     1      -7.226  -0.192 129.092  0.00  0.00    +0.000 C 
ATOM      2  C   UNL     1      -8.135  -0.037 127.883  0.00  0.00    +0.000 C 
ATOM      3  C   UNL     1      -8.387   1.506 127.793  0.00  0.00    +0.000 C 
ATOM      4  C   UNL     1      -8.531   1.895 126.321  0.00  0.00    +0.000 C 
ATOM      5  C   UNL     1      -7.236   2.240 128.653  0.00  0.00    +0.000 C 
ATOM      6  C   UNL     1      -6.264   1.015 128.948  0.00  0.00    +0.000 C 
ATOM      7  C   UNL     1      -5.336   0.869 127.699  0.00  0.00    +0.000 C 
ATOM      8  C   UNL     1      -5.449   1.087 130.257  0.00  0.00    +0.000 C 
ATOM      9  C   UNL     1      -4.651  -0.192 130.568  0.00  0.00    +0.000 C 
ATOM     10  C   UNL     1      -5.502  -1.498 130.498  0.00  0.00    +0.000 C 
ATOM     11 CL   UNL     1      -6.563  -1.393 132.038  0.00  0.00    +0.000 Cl
ATOM     12  C   UNL     1      -6.470  -1.533 129.257  0.00  0.00    +0.000 C 
ATOM     13  C   UNL     1      -7.429  -2.744 129.336  0.00  0.00    +0.000 C 
ATOM     14  C   UNL     1      -6.724  -4.083 129.608  0.00  0.00    +0.000 C 
ATOM     15  C   UNL     1      -5.678  -3.993 130.697  0.00  0.00    +0.000 C 
ATOM     16  C   UNL     1      -5.698  -4.816 131.762  0.00  0.00    +0.000 C 
ATOM     17  C   UNL     1      -4.742  -4.665 132.883  0.00  0.00    +0.000 C 
ATOM     18  O   UNL     1      -4.824  -5.364 133.889  0.00  0.00    +0.000 OA
ATOM     19  C   UNL     1      -3.687  -3.643 132.753  0.00  0.00    +0.000 C 
ATOM     20  C   UNL     1      -3.664  -2.819 131.699  0.00  0.00    +0.000 C 
ATOM     21  C   UNL     1      -4.668  -2.846 130.556  0.00  0.00    +0.000 C 
ATOM     22  C   UNL     1      -3.830  -3.156 129.287  0.00  0.00    +0.000 C 
ENDROOT
BRANCH   5  23
ATOM     23  C   UNL     1      -6.393   3.350 127.966  0.00  0.00    +0.000 C 
ATOM     24  O   UNL     1      -6.342   3.457 126.739  0.00  0.00    +0.000 OA
BRANCH  23  25
ATOM     25  C   UNL     1      -5.642   4.363 128.872  0.00  0.00    +0.000 C 
BRANCH  25  26
ATOM     26  O   UNL     1      -4.998   5.290 127.956  0.00  0.00    +0.000 OA
BRANCH  26  27
ATOM     27  C   UNL     1      -3.658   5.449 128.025  0.00  0.00    +0.000 C 
ATOM     28  O   UNL     1      -3.091   6.523 127.801  0.00  0.00    +0.000 OA
BRANCH  27  29
ATOM     29  C   UNL     1      -2.957   4.163 128.418  0.00  0.00    +0.000 C 
ATOM     30  C   UNL     1      -2.324   3.513 127.195  0.00  0.00    +0.000 C 
ENDBRANCH  27  29
ENDBRANCH  26  27
ENDBRANCH  25  26
ENDBRANCH  23  25
ENDBRANCH   5  23
BRANCH   9  31
ATOM     31  O   UNL     1      -3.453  -0.190 129.797  0.00  0.00    +0.000 OA
ATOM     32  H   UNL     1      -3.651  -0.101 128.856  0.00  0.00    +0.000 HD
ENDBRANCH   9  31
BRANCH   5  33
ATOM     33  O   UNL     1      -7.864   2.730 129.897  0.00  0.00    +0.000 OA
BRANCH  33  34
ATOM     34  C   UNL     1      -9.148   3.075 130.227  0.00  0.00    +0.000 C 
ATOM     35  O   UNL     1      -9.719   3.942 129.568  0.00  0.00    +0.000 OA
BRANCH  34  36
ATOM     36  C   UNL     1      -9.895   2.338 131.323  0.00  0.00    +0.000 C 
ATOM     37  C   UNL     1      -9.369   1.006 131.809  0.00  0.00    +0.000 C 
ENDBRANCH  34  36
ENDBRANCH  33  34
ENDBRANCH   5  33
TORSDOF 9
ENDMDL
MODEL 9
REMARK VINA RESULT:      -7.5      3.993      7.894
REMARK  Name = Beclomethasone dipropionate
REMARK  14 active torsions:
REMARK  status: ('A' for Active; 'I' for Inactive)
REMARK    1  A    between atoms: C_4  and  C_5
REMARK    2  A    between atoms: C_6  and  O_7
REMARK    3  A    between atoms: C_6  and  C_12
REMARK    4  A    between atoms: O_7  and  C_8
REMARK    5  A    between atoms: C_8  and  C_10
REMARK    6  A    between atoms: C_10  and  C_11
REMARK    7  A    between atoms: C_12  and  C_14
REMARK    8  A    between atoms: C_14  and  O_15
REMARK    9  A    between atoms: O_15  and  C_16
REMARK   10  A    between atoms: C_16  and  C_18
REMARK   11  A    between atoms: C_18  and  C_19
REMARK   12  A    between atoms: C_20  and  C_21
REMARK   13  A    between atoms: C_23  and  O_24
REMARK   14  A    between atoms: C_37  and  C_38
REMARK                            x       y       z     vdW  Elec       q    Type
REMARK                         _______ _______ _______ _____ _____    ______ ____
ROOT
ATOM      1  C   UNL     1      -6.300   1.464 128.836  0.00  0.00    +0.000 C 
ATOM      2  C   UNL     1      -6.005   1.401 130.326  0.00  0.00    +0.000 C 
ATOM      3  C   UNL     1      -6.165   2.883 130.807  0.00  0.00    +0.000 C 
ATOM      4  C   UNL     1      -6.708   2.879 132.237  0.00  0.00    +0.000 C 
ATOM      5  C   UNL     1      -7.013   3.672 129.685  0.00  0.00    +0.000 C 
ATOM      6  C   UNL     1      -7.485   2.461 128.767  0.00  0.00    +0.000 C 
ATOM      7  C   UNL     1      -8.773   1.873 129.430  0.00  0.00    +0.000 C 
ATOM      8  C   UNL     1      -7.707   2.779 127.273  0.00  0.00    +0.000 C 
ATOM      9  C   UNL     1      -8.005   1.541 126.408  0.00  0.00    +0.000 C 
ATOM     10  C   UNL     1      -6.981   0.380 126.597  0.00  0.00    +0.000 C 
ATOM     11 CL   UNL     1      -5.450   1.022 125.730  0.00  0.00    +0.000 Cl
ATOM     12  C   UNL     1      -6.604   0.133 128.105  0.00  0.00    +0.000 C 
ATOM     13  C   UNL     1      -5.446  -0.885 128.228  0.00  0.00    +0.000 C 
ATOM     14  C   UNL     1      -5.664  -2.178 127.427  0.00  0.00    +0.000 C 
ATOM     15  C   UNL     1      -6.183  -1.931 126.028  0.00  0.00    +0.000 C 
ATOM     16  C   UNL     1      -5.557  -2.430 124.946  0.00  0.00    +0.000 C 
ATOM     17  C   UNL     1      -5.997  -2.103 123.570  0.00  0.00    +0.000 C 
ATOM     18  O   UNL     1      -5.368  -2.493 122.590  0.00  0.00    +0.000 OA
ATOM     19  C   UNL     1      -7.218  -1.291 123.414  0.00  0.00    +0.000 C 
ATOM     20  C   UNL     1      -7.842  -0.789 124.485  0.00  0.00    +0.000 C 
ATOM     21  C   UNL     1      -7.396  -0.997 125.924  0.00  0.00    +0.000 C 
ATOM     22  C   UNL     1      -8.576  -1.734 126.613  0.00  0.00    +0.000 C 
ENDROOT
BRANCH   5  23
ATOM     23  C   UNL     1      -8.286   4.446 130.128  0.00  0.00    +0.000 C 
ATOM     24  O   UNL     1      -8.735   4.351 131.272  0.00  0.00    +0.000 OA
BRANCH  23  25
ATOM     25  C   UNL     1      -8.964   5.388 129.096  0.00  0.00    +0.000 C 
BRANCH  25  26
ATOM     26  O   UNL     1      -9.024   6.686 129.747  0.00  0.00    +0.000 OA
BRANCH  26  27
ATOM     27  C   UNL     1     -10.061   7.508 129.469  0.00  0.00    +0.000 C 
ATOM     28  O   UNL     1     -10.005   8.407 128.625  0.00  0.00    +0.000 OA
BRANCH  27  29
ATOM     29  C   UNL     1     -11.282   7.176 130.305  0.00  0.00    +0.000 C 
ATOM     30  C   UNL     1     -12.456   6.817 129.403  0.00  0.00    +0.000 C 
ENDBRANCH  27  29
ENDBRANCH  26  27
ENDBRANCH  25  26
ENDBRANCH  23  25
ENDBRANCH   5  23
BRANCH   9  31
ATOM     31  O   UNL     1      -9.378   1.189 126.559  0.00  0.00    +0.000 OA
ATOM     32  H   UNL     1      -9.670   0.627 125.830  0.00  0.00    +0.000 HD
ENDBRANCH   9  31
BRANCH   5  33
ATOM     33  O   UNL     1      -6.072   4.550 128.961  0.00  0.00    +0.000 OA
BRANCH  33  34
ATOM     34  C   UNL     1      -5.002   5.308 129.358  0.00  0.00    +0.000 C 
ATOM     35  O   UNL     1      -5.208   6.394 129.896  0.00  0.00    +0.000 OA
BRANCH  34  36
ATOM     36  C   UNL     1      -3.584   4.783 129.227  0.00  0.00    +0.000 C 
ATOM     37  C   UNL     1      -3.324   3.566 128.368  0.00  0.00    +0.000 C 
ENDBRANCH  34  36
ENDBRANCH  33  34
ENDBRANCH   5  33
TORSDOF 9
ENDMDL
