MODEL 1
REMARK VINA RESULT:      -8.4      0.000      0.000
REMARK  Name = Bedaquiline
REMARK  12 active torsions:
REMARK  status: ('A' for Active; 'I' for Inactive)
REMARK    1  A    between atoms: C_1  and  O_2
REMARK    2  A    between atoms: O_2  and  C_3
REMARK    3  A    between atoms: C_13  and  C_14
REMARK    4  A    between atoms: C_14  and  C_15
REMARK    5  A    between atoms: C_14  and  C_21
REMARK    6  A    between atoms: C_21  and  O_22
REMARK    7  A    between atoms: C_21  and  C_23
REMARK    8  A    between atoms: C_21  and  C_28
REMARK    9  A    between atoms: C_23  and  C_24
REMARK   10  A    between atoms: C_24  and  N_25
REMARK   11  A    between atoms: N_25  and  C_26
REMARK   12  A    between atoms: N_25  and  C_27
REMARK                            x       y       z     vdW  Elec       q    Type
REMARK                         _______ _______ _______ _____ _____    ______ ____
ROOT
ATOM      1  C   UNL     1      -6.681   0.221 128.192  0.00  0.00    +0.000 C 
ENDROOT
BRANCH   1  12
ATOM      2  C   UNL     1      -6.030   1.605 130.276  0.00  0.00    +0.000 A 
ATOM      3  N   UNL     1      -6.373   2.441 131.298  0.00  0.00    +0.000 NA
ATOM      4  C   UNL     1      -7.594   3.053 131.303  0.00  0.00    +0.000 A 
ATOM      5  C   UNL     1      -8.555   2.793 130.351  0.00  0.00    +0.000 A 
ATOM      6  C   UNL     1      -9.751   3.561 130.202  0.00  0.00    +0.000 A 
ATOM      7  C   UNL     1     -10.002   4.606 131.066  0.00  0.00    +0.000 A 
ATOM      8 BR   UNL     1     -11.435   5.806 130.785  0.00  0.00    +0.000 Br
ATOM      9  C   UNL     1      -9.171   4.740 132.160  0.00  0.00    +0.000 A 
ATOM     10  C   UNL     1      -8.000   3.960 132.269  0.00  0.00    +0.000 A 
ATOM     11  C   UNL     1      -8.245   1.728 129.532  0.00  0.00    +0.000 A 
ATOM     12  C   UNL     1      -6.959   1.206 129.335  0.00  0.00    +0.000 A 
BRANCH   2  14
ATOM     13  C   UNL     1      -4.479   0.306 131.552  0.00  0.00    +0.000 C 
ATOM     14  O   UNL     1      -4.775   1.063 130.386  0.00  0.00    +0.000 OA
ENDBRANCH   2  14
ENDBRANCH   1  12
BRANCH   1  15
ATOM     15  C   UNL     1      -6.762  -1.147 128.789  0.00  0.00    +0.000 A 
ATOM     16  C   UNL     1      -7.883  -1.672 129.444  0.00  0.00    +0.000 A 
ATOM     17  C   UNL     1      -7.810  -2.938 129.987  0.00  0.00    +0.000 A 
ATOM     18  C   UNL     1      -6.626  -3.668 129.877  0.00  0.00    +0.000 A 
ATOM     19  C   UNL     1      -5.497  -3.116 129.273  0.00  0.00    +0.000 A 
ATOM     20  C   UNL     1      -5.579  -1.880 128.698  0.00  0.00    +0.000 A 
ENDBRANCH   1  15
BRANCH   1  21
ATOM     21  C   UNL     1      -7.522   0.267 126.861  0.00  0.00    +0.000 C 
BRANCH  21  22
ATOM     22  C   UNL     1      -7.565  -1.201 126.095  0.00  0.00    +0.000 A 
ATOM     23  C   UNL     1      -8.986  -1.579 126.236  0.00  0.00    +0.000 A 
ATOM     24  C   UNL     1      -9.406  -2.811 125.870  0.00  0.00    +0.000 A 
ATOM     25  C   UNL     1      -8.514  -3.444 125.060  0.00  0.00    +0.000 A 
ATOM     26  C   UNL     1      -7.145  -3.017 124.736  0.00  0.00    +0.000 A 
ATOM     27  C   UNL     1      -6.308  -2.110 125.369  0.00  0.00    +0.000 A 
ATOM     28  C   UNL     1      -4.705  -2.721 124.733  0.00  0.00    +0.000 A 
ATOM     29  C   UNL     1      -4.555  -3.374 123.491  0.00  0.00    +0.000 A 
ATOM     30  C   UNL     1      -5.618  -2.811 122.998  0.00  0.00    +0.000 A 
ATOM     31  C   UNL     1      -6.682  -3.491 123.561  0.00  0.00    +0.000 A 
ENDBRANCH  21  22
BRANCH  21  32
ATOM     32  O   UNL     1      -8.922   0.473 126.878  0.00  0.00    +0.000 OA
ATOM     33  H   UNL     1      -9.170   1.250 126.385  0.00  0.00    +0.000 HD
ENDBRANCH  21  32
BRANCH  21  34
ATOM     34  C   UNL     1      -6.848   1.606 126.037  0.00  0.00    +0.000 C 
BRANCH  34  35
ATOM     35  C   UNL     1      -7.148   1.813 124.527  0.00  0.00    +0.000 C 
BRANCH  35  36
ATOM     36  N   UNL     1      -8.485   1.990 123.957  0.00  0.00    +0.000 NA
ATOM     37  C   UNL     1      -8.342   3.007 122.926  0.00  0.00    +0.000 C 
ATOM     38  C   UNL     1      -8.899   0.719 123.308  0.00  0.00    +0.000 C 
ENDBRANCH  35  36
ENDBRANCH  34  35
ENDBRANCH  21  34
ENDBRANCH   1  21
TORSDOF 9
ENDMDL
MODEL 2
REMARK VINA RESULT:      -8.4      1.885      4.274
REMARK  Name = Bedaquiline
REMARK  12 active torsions:
REMARK  status: ('A' for Active; 'I' for Inactive)
REMARK    1  A    between atoms: C_1  and  O_2
REMARK    2  A    between atoms: O_2  and  C_3
REMARK    3  A    between atoms: C_13  and  C_14
REMARK    4  A    between atoms: C_14  and  C_15
REMARK    5  A    between atoms: C_14  and  C_21
REMARK    6  A    between atoms: C_21  and  O_22
REMARK    7  A    between atoms: C_21  and  C_23
REMARK    8  A    between atoms: C_21  and  C_28
REMARK    9  A    between atoms: C_23  and  C_24
REMARK   10  A    between atoms: C_24  and  N_25
REMARK   11  A    between atoms: N_25  and  C_26
REMARK   12  A    between atoms: N_25  and  C_27
REMARK                            x       y       z     vdW  Elec       q    Type
REMARK                         _______ _______ _______ _____ _____    ______ ____
ROOT
ATOM      1  C   UNL     1      -8.280   0.788 127.941  0.00  0.00    +0.000 C 
ENDROOT
BRANCH   1  12
ATOM      2  C   UNL     1      -6.922   2.820 128.784  0.00  0.00    +0.000 A 
ATOM      3  N   UNL     1      -6.822   3.941 129.554  0.00  0.00    +0.000 NA
ATOM      4  C   UNL     1      -7.937   4.476 130.136  0.00  0.00    +0.000 A 
ATOM      5  C   UNL     1      -9.173   3.873 130.056  0.00  0.00    +0.000 A 
ATOM      6  C   UNL     1     -10.389   4.503 130.466  0.00  0.00    +0.000 A 
ATOM      7  C   UNL     1     -10.351   5.770 131.009  0.00  0.00    +0.000 A 
ATOM      8 BR   UNL     1     -11.928   6.753 131.352  0.00  0.00    +0.000 Br
ATOM      9  C   UNL     1      -9.110   6.297 131.308  0.00  0.00    +0.000 A 
ATOM     10  C   UNL     1      -7.934   5.642 130.884  0.00  0.00    +0.000 A 
ATOM     11  C   UNL     1      -9.134   2.605 129.516  0.00  0.00    +0.000 A 
ATOM     12  C   UNL     1      -8.095   2.093 128.728  0.00  0.00    +0.000 A 
BRANCH   2  14
ATOM     13  C   UNL     1      -4.750   3.373 127.952  0.00  0.00    +0.000 C 
ATOM     14  O   UNL     1      -5.733   2.392 128.251  0.00  0.00    +0.000 OA
ENDBRANCH   2  14
ENDBRANCH   1  12
BRANCH   1  15
ATOM     15  C   UNL     1      -8.412   1.181 126.504  0.00  0.00    +0.000 A 
ATOM     16  C   UNL     1      -7.461   1.913 125.783  0.00  0.00    +0.000 A 
ATOM     17  C   UNL     1      -7.727   2.245 124.470  0.00  0.00    +0.000 A 
ATOM     18  C   UNL     1      -8.932   1.848 123.890  0.00  0.00    +0.000 A 
ATOM     19  C   UNL     1      -9.897   1.168 124.632  0.00  0.00    +0.000 A 
ATOM     20  C   UNL     1      -9.620   0.802 125.918  0.00  0.00    +0.000 A 
ENDBRANCH   1  15
BRANCH   1  21
ATOM     21  C   UNL     1      -7.245  -0.391 128.073  0.00  0.00    +0.000 C 
BRANCH  21  22
ATOM     22  C   UNL     1      -7.503  -1.582 126.952  0.00  0.00    +0.000 A 
ATOM     23  C   UNL     1      -8.416  -2.492 127.675  0.00  0.00    +0.000 A 
ATOM     24  C   UNL     1      -8.746  -3.692 127.146  0.00  0.00    +0.000 A 
ATOM     25  C   UNL     1      -8.475  -3.764 125.814  0.00  0.00    +0.000 A 
ATOM     26  C   UNL     1      -7.726  -2.795 125.002  0.00  0.00    +0.000 A 
ATOM     27  C   UNL     1      -6.856  -1.783 125.378  0.00  0.00    +0.000 A 
ATOM     28  C   UNL     1      -5.944  -1.600 123.802  0.00  0.00    +0.000 A 
ATOM     29  C   UNL     1      -6.503  -1.887 122.540  0.00  0.00    +0.000 A 
ATOM     30  C   UNL     1      -7.715  -1.684 122.962  0.00  0.00    +0.000 A 
ATOM     31  C   UNL     1      -8.039  -2.815 123.690  0.00  0.00    +0.000 A 
ENDBRANCH  21  22
BRANCH  21  32
ATOM     32  O   UNL     1      -5.872  -0.205 127.786  0.00  0.00    +0.000 OA
ATOM     33  H   UNL     1      -5.730   0.031 126.874  0.00  0.00    +0.000 HD
ENDBRANCH  21  32
BRANCH  21  34
ATOM     34  C   UNL     1      -7.339  -0.790 129.734  0.00  0.00    +0.000 C 
BRANCH  34  35
ATOM     35  C   UNL     1      -6.168  -1.551 130.412  0.00  0.00    +0.000 C 
BRANCH  35  36
ATOM     36  N   UNL     1      -5.402  -2.633 129.790  0.00  0.00    +0.000 NA
ATOM     37  C   UNL     1      -4.077  -2.572 130.389  0.00  0.00    +0.000 C 
ATOM     38  C   UNL     1      -6.024  -3.931 130.158  0.00  0.00    +0.000 C 
ENDBRANCH  35  36
ENDBRANCH  34  35
ENDBRANCH  21  34
ENDBRANCH   1  21
TORSDOF 9
ENDMDL
MODEL 3
REMARK VINA RESULT:      -8.4      3.401      5.897
REMARK  Name = Bedaquiline
REMARK  12 active torsions:
REMARK  status: ('A' for Active; 'I' for Inactive)
REMARK    1  A    between atoms: C_1  and  O_2
REMARK    2  A    between atoms: O_2  and  C_3
REMARK    3  A    between atoms: C_13  and  C_14
REMARK    4  A    between atoms: C_14  and  C_15
REMARK    5  A    between atoms: C_14  and  C_21
REMARK    6  A    between atoms: C_21  and  O_22
REMARK    7  A    between atoms: C_21  and  C_23
REMARK    8  A    between atoms: C_21  and  C_28
REMARK    9  A    between atoms: C_23  and  C_24
REMARK   10  A    between atoms: C_24  and  N_25
REMARK   11  A    between atoms: N_25  and  C_26
REMARK   12  A    between atoms: N_25  and  C_27
REMARK                            x       y       z     vdW  Elec       q    Type
REMARK                         _______ _______ _______ _____ _____    ______ ____
ROOT
ATOM      1  C   UNL     1      -6.991   2.533 128.122  0.00  0.00    +0.000 C 
ENDROOT
BRANCH   1  12
ATOM      2  C   UNL     1      -5.828   4.636 127.169  0.00  0.00    +0.000 A 
ATOM      3  N   UNL     1      -4.781   5.509 127.161  0.00  0.00    +0.000 NA
ATOM      4  C   UNL     1      -3.865   5.492 128.175  0.00  0.00    +0.000 A 
ATOM      5  C   UNL     1      -3.896   4.554 129.183  0.00  0.00    +0.000 A 
ATOM      6  C   UNL     1      -3.093   4.631 130.362  0.00  0.00    +0.000 A 
ATOM      7  C   UNL     1      -2.200   5.672 130.512  0.00  0.00    +0.000 A 
ATOM      8 BR   UNL     1      -1.282   5.969 132.137  0.00  0.00    +0.000 Br
ATOM      9  C   UNL     1      -1.989   6.491 129.421  0.00  0.00    +0.000 A 
ATOM     10  C   UNL     1      -2.806   6.380 128.274  0.00  0.00    +0.000 A 
ATOM     11  C   UNL     1      -4.800   3.536 128.961  0.00  0.00    +0.000 A 
ATOM     12  C   UNL     1      -5.888   3.599 128.079  0.00  0.00    +0.000 A 
BRANCH   2  14
ATOM     13  C   UNL     1      -6.139   4.583 124.799  0.00  0.00    +0.000 C 
ATOM     14  O   UNL     1      -6.679   4.763 126.101  0.00  0.00    +0.000 OA
ENDBRANCH   2  14
ENDBRANCH   1  12
BRANCH   1  15
ATOM     15  C   UNL     1      -6.669   1.552 127.041  0.00  0.00    +0.000 A 
ATOM     16  C   UNL     1      -5.397   1.025 126.790  0.00  0.00    +0.000 A 
ATOM     17  C   UNL     1      -5.228   0.158 125.730  0.00  0.00    +0.000 A 
ATOM     18  C   UNL     1      -6.323  -0.175 124.931  0.00  0.00    +0.000 A 
ATOM     19  C   UNL     1      -7.574   0.399 125.154  0.00  0.00    +0.000 A 
ATOM     20  C   UNL     1      -7.753   1.225 126.227  0.00  0.00    +0.000 A 
ENDBRANCH   1  15
BRANCH   1  21
ATOM     21  C   UNL     1      -7.320   1.761 129.455  0.00  0.00    +0.000 C 
BRANCH  21  22
ATOM     22  C   UNL     1      -6.736   0.210 129.442  0.00  0.00    +0.000 A 
ATOM     23  C   UNL     1      -5.517   0.334 130.266  0.00  0.00    +0.000 A 
ATOM     24  C   UNL     1      -4.654  -0.702 130.371  0.00  0.00    +0.000 A 
ATOM     25  C   UNL     1      -5.211  -1.882 129.985  0.00  0.00    +0.000 A 
ATOM     26  C   UNL     1      -6.508  -2.082 129.323  0.00  0.00    +0.000 A 
ATOM     27  C   UNL     1      -7.324  -1.188 128.646  0.00  0.00    +0.000 A 
ATOM     28  C   UNL     1      -8.278  -2.387 127.645  0.00  0.00    +0.000 A 
ATOM     29  C   UNL     1      -8.534  -3.713 128.050  0.00  0.00    +0.000 A 
ATOM     30  C   UNL     1      -8.409  -3.418 129.310  0.00  0.00    +0.000 A 
ATOM     31  C   UNL     1      -7.047  -3.303 129.522  0.00  0.00    +0.000 A 
ENDBRANCH  21  22
BRANCH  21  32
ATOM     32  O   UNL     1      -6.736   2.134 130.689  0.00  0.00    +0.000 OA
ATOM     33  H   UNL     1      -7.276   1.871 131.429  0.00  0.00    +0.000 HD
ENDBRANCH  21  32
BRANCH  21  34
ATOM     34  C   UNL     1      -9.004   2.005 129.626  0.00  0.00    +0.000 C 
BRANCH  34  35
ATOM     35  C   UNL     1      -9.530   3.284 130.334  0.00  0.00    +0.000 C 
BRANCH  35  36
ATOM     36  N   UNL     1      -9.722   4.581 129.683  0.00  0.00    +0.000 NA
ATOM     37  C   UNL     1     -10.892   5.170 130.319  0.00  0.00    +0.000 C 
ATOM     38  C   UNL     1      -8.546   5.440 129.975  0.00  0.00    +0.000 C 
ENDBRANCH  35  36
ENDBRANCH  34  35
ENDBRANCH  21  34
ENDBRANCH   1  21
TORSDOF 9
ENDMDL
MODEL 4
REMARK VINA RESULT:      -8.1      2.567      5.078
REMARK  Name = Bedaquiline
REMARK  12 active torsions:
REMARK  status: ('A' for Active; 'I' for Inactive)
REMARK    1  A    between atoms: C_1  and  O_2
REMARK    2  A    between atoms: O_2  and  C_3
REMARK    3  A    between atoms: C_13  and  C_14
REMARK    4  A    between atoms: C_14  and  C_15
REMARK    5  A    between atoms: C_14  and  C_21
REMARK    6  A    between atoms: C_21  and  O_22
REMARK    7  A    between atoms: C_21  and  C_23
REMARK    8  A    between atoms: C_21  and  C_28
REMARK    9  A    between atoms: C_23  and  C_24
REMARK   10  A    between atoms: C_24  and  N_25
REMARK   11  A    between atoms: N_25  and  C_26
REMARK   12  A    between atoms: N_25  and  C_27
REMARK                            x       y       z     vdW  Elec       q    Type
REMARK                         _______ _______ _______ _____ _____    ______ ____
ROOT
ATOM      1  C   UNL     1      -7.743   0.623 128.500  0.00  0.00    +0.000 C 
ENDROOT
BRANCH   1  12
ATOM      2  C   UNL     1      -8.209   2.859 129.710  0.00  0.00    +0.000 A 
ATOM      3  N   UNL     1      -7.758   3.988 130.329  0.00  0.00    +0.000 NA
ATOM      4  C   UNL     1      -6.444   4.095 130.688  0.00  0.00    +0.000 A 
ATOM      5  C   UNL     1      -5.510   3.134 130.369  0.00  0.00    +0.000 A 
ATOM      6  C   UNL     1      -4.185   3.108 130.904  0.00  0.00    +0.000 A 
ATOM      7  C   UNL     1      -3.778   4.107 131.764  0.00  0.00    +0.000 A 
ATOM      8 BR   UNL     1      -2.133   4.012 132.691  0.00  0.00    +0.000 Br
ATOM      9  C   UNL     1      -4.614   5.195 131.917  0.00  0.00    +0.000 A 
ATOM     10  C   UNL     1      -5.916   5.179 131.370  0.00  0.00    +0.000 A 
ATOM     11  C   UNL     1      -5.981   2.176 129.495  0.00  0.00    +0.000 A 
ATOM     12  C   UNL     1      -7.333   1.890 129.261  0.00  0.00    +0.000 A 
BRANCH   2  14
ATOM     13  C   UNL     1     -10.434   3.435 130.370  0.00  0.00    +0.000 C 
ATOM     14  O   UNL     1      -9.547   2.874 129.411  0.00  0.00    +0.000 OA
ENDBRANCH   2  14
ENDBRANCH   1  12
BRANCH   1  15
ATOM     15  C   UNL     1      -7.765   0.992 127.052  0.00  0.00    +0.000 A 
ATOM     16  C   UNL     1      -6.667   1.478 126.331  0.00  0.00    +0.000 A 
ATOM     17  C   UNL     1      -6.834   1.820 125.006  0.00  0.00    +0.000 A 
ATOM     18  C   UNL     1      -8.088   1.680 124.410  0.00  0.00    +0.000 A 
ATOM     19  C   UNL     1      -9.189   1.249 125.150  0.00  0.00    +0.000 A 
ATOM     20  C   UNL     1      -9.017   0.869 126.451  0.00  0.00    +0.000 A 
ENDBRANCH   1  15
BRANCH   1  21
ATOM     21  C   UNL     1      -6.954  -0.727 128.690  0.00  0.00    +0.000 C 
BRANCH  21  22
ATOM     22  C   UNL     1      -7.298  -1.828 127.501  0.00  0.00    +0.000 A 
ATOM     23  C   UNL     1      -8.380  -2.620 128.120  0.00  0.00    +0.000 A 
ATOM     24  C   UNL     1      -8.839  -3.740 127.517  0.00  0.00    +0.000 A 
ATOM     25  C   UNL     1      -8.486  -3.804 126.204  0.00  0.00    +0.000 A 
ATOM     26  C   UNL     1      -7.551  -2.925 125.488  0.00  0.00    +0.000 A 
ATOM     27  C   UNL     1      -6.575  -2.064 125.966  0.00  0.00    +0.000 A 
ATOM     28  C   UNL     1      -5.536  -1.960 124.463  0.00  0.00    +0.000 A 
ATOM     29  C   UNL     1      -6.037  -2.118 123.155  0.00  0.00    +0.000 A 
ATOM     30  C   UNL     1      -7.236  -1.757 123.505  0.00  0.00    +0.000 A 
ATOM     31  C   UNL     1      -7.768  -2.853 124.158  0.00  0.00    +0.000 A 
ENDBRANCH  21  22
BRANCH  21  32
ATOM     32  O   UNL     1      -5.547  -0.786 128.551  0.00  0.00    +0.000 OA
ATOM     33  H   UNL     1      -5.195  -1.615 128.862  0.00  0.00    +0.000 HD
ENDBRANCH  21  32
BRANCH  21  34
ATOM     34  C   UNL     1      -7.294  -1.137 130.315  0.00  0.00    +0.000 C 
BRANCH  34  35
ATOM     35  C   UNL     1      -6.338  -2.086 131.088  0.00  0.00    +0.000 C 
BRANCH  35  36
ATOM     36  N   UNL     1      -6.513  -3.534 131.207  0.00  0.00    +0.000 NA
ATOM     37  C   UNL     1      -5.629  -4.121 130.211  0.00  0.00    +0.000 C 
ATOM     38  C   UNL     1      -6.053  -3.961 132.554  0.00  0.00    +0.000 C 
ENDBRANCH  35  36
ENDBRANCH  34  35
ENDBRANCH  21  34
ENDBRANCH   1  21
TORSDOF 9
ENDMDL
MODEL 5
REMARK VINA RESULT:      -7.9      2.040      2.794
REMARK  Name = Bedaquiline
REMARK  12 active torsions:
REMARK  status: ('A' for Active; 'I' for Inactive)
REMARK    1  A    between atoms: C_1  and  O_2
REMARK    2  A    between atoms: O_2  and  C_3
REMARK    3  A    between atoms: C_13  and  C_14
REMARK    4  A    between atoms: C_14  and  C_15
REMARK    5  A    between atoms: C_14  and  C_21
REMARK    6  A    between atoms: C_21  and  O_22
REMARK    7  A    between atoms: C_21  and  C_23
REMARK    8  A    between atoms: C_21  and  C_28
REMARK    9  A    between atoms: C_23  and  C_24
REMARK   10  A    between atoms: C_24  and  N_25
REMARK   11  A    between atoms: N_25  and  C_26
REMARK   12  A    between atoms: N_25  and  C_27
REMARK                            x       y       z     vdW  Elec       q    Type
REMARK                         _______ _______ _______ _____ _____    ______ ____
ROOT
ATOM      1  C   UNL     1      -5.904   1.507 128.316  0.00  0.00    +0.000 C 
ENDROOT
BRANCH   1  12
ATOM      2  C   UNL     1      -5.878   2.544 130.684  0.00  0.00    +0.000 A 
ATOM      3  N   UNL     1      -6.523   3.167 131.712  0.00  0.00    +0.000 NA
ATOM      4  C   UNL     1      -7.770   3.693 131.522  0.00  0.00    +0.000 A 
ATOM      5  C   UNL     1      -8.462   3.543 130.340  0.00  0.00    +0.000 A 
ATOM      6  C   UNL     1      -9.666   4.250 130.032  0.00  0.00    +0.000 A 
ATOM      7  C   UNL     1     -10.207   5.111 130.964  0.00  0.00    +0.000 A 
ATOM      8 BR   UNL     1     -11.654   6.252 130.540  0.00  0.00    +0.000 Br
ATOM      9  C   UNL     1      -9.660   5.104 132.231  0.00  0.00    +0.000 A 
ATOM     10  C   UNL     1      -8.470   4.390 132.492  0.00  0.00    +0.000 A 
ATOM     11  C   UNL     1      -7.871   2.658 129.463  0.00  0.00    +0.000 A 
ATOM     12  C   UNL     1      -6.528   2.259 129.499  0.00  0.00    +0.000 A 
BRANCH   2  14
ATOM     13  C   UNL     1      -3.951   2.677 132.093  0.00  0.00    +0.000 C 
ATOM     14  O   UNL     1      -4.631   2.070 131.003  0.00  0.00    +0.000 OA
ENDBRANCH   2  14
ENDBRANCH   1  12
BRANCH   1  15
ATOM     15  C   UNL     1      -6.255   0.066 128.503  0.00  0.00    +0.000 A 
ATOM     16  C   UNL     1      -7.503  -0.407 128.928  0.00  0.00    +0.000 A 
ATOM     17  C   UNL     1      -7.682  -1.764 129.100  0.00  0.00    +0.000 A 
ATOM     18  C   UNL     1      -6.621  -2.636 128.850  0.00  0.00    +0.000 A 
ATOM     19  C   UNL     1      -5.367  -2.152 128.481  0.00  0.00    +0.000 A 
ATOM     20  C   UNL     1      -5.198  -0.813 128.270  0.00  0.00    +0.000 A 
ENDBRANCH   1  15
BRANCH   1  21
ATOM     21  C   UNL     1      -6.208   1.937 126.832  0.00  0.00    +0.000 C 
BRANCH  21  22
ATOM     22  C   UNL     1      -7.066   0.784 126.008  0.00  0.00    +0.000 A 
ATOM     23  C   UNL     1      -8.454   1.263 126.166  0.00  0.00    +0.000 A 
ATOM     24  C   UNL     1      -9.492   0.498 125.759  0.00  0.00    +0.000 A 
ATOM     25  C   UNL     1      -9.106  -0.489 124.905  0.00  0.00    +0.000 A 
ATOM     26  C   UNL     1      -7.733  -0.889 124.567  0.00  0.00    +0.000 A 
ATOM     27  C   UNL     1      -6.534  -0.639 125.217  0.00  0.00    +0.000 A 
ATOM     28  C   UNL     1      -5.548  -2.014 124.520  0.00  0.00    +0.000 A 
ATOM     29  C   UNL     1      -5.786  -2.580 123.250  0.00  0.00    +0.000 A 
ATOM     30  C   UNL     1      -6.347  -1.496 122.804  0.00  0.00    +0.000 A 
ATOM     31  C   UNL     1      -7.612  -1.486 123.363  0.00  0.00    +0.000 A 
ENDBRANCH  21  22
BRANCH  21  32
ATOM     32  O   UNL     1      -7.077   3.015 126.538  0.00  0.00    +0.000 OA
ATOM     33  H   UNL     1      -7.262   3.541 127.311  0.00  0.00    +0.000 HD
ENDBRANCH  21  32
BRANCH  21  34
ATOM     34  C   UNL     1      -4.665   2.390 126.248  0.00  0.00    +0.000 C 
BRANCH  34  35
ATOM     35  C   UNL     1      -4.144   3.833 126.485  0.00  0.00    +0.000 C 
BRANCH  35  36
ATOM     36  N   UNL     1      -2.839   4.168 127.058  0.00  0.00    +0.000 NA
ATOM     37  C   UNL     1      -3.019   4.117 128.502  0.00  0.00    +0.000 C 
ATOM     38  C   UNL     1      -1.864   3.117 126.669  0.00  0.00    +0.000 C 
ENDBRANCH  35  36
ENDBRANCH  34  35
ENDBRANCH  21  34
ENDBRANCH   1  21
TORSDOF 9
ENDMDL
MODEL 6
REMARK VINA RESULT:      -7.9      3.373      7.088
REMARK  Name = Bedaquiline
REMARK  12 active torsions:
REMARK  status: ('A' for Active; 'I' for Inactive)
REMARK    1  A    between atoms: C_1  and  O_2
REMARK    2  A    between atoms: O_2  and  C_3
REMARK    3  A    between atoms: C_13  and  C_14
REMARK    4  A    between atoms: C_14  and  C_15
REMARK    5  A    between atoms: C_14  and  C_21
REMARK    6  A    between atoms: C_21  and  O_22
REMARK    7  A    between atoms: C_21  and  C_23
REMARK    8  A    between atoms: C_21  and  C_28
REMARK    9  A    between atoms: C_23  and  C_24
REMARK   10  A    between atoms: C_24  and  N_25
REMARK   11  A    between atoms: N_25  and  C_26
REMARK   12  A    between atoms: N_25  and  C_27
REMARK                            x       y       z     vdW  Elec       q    Type
REMARK                         _______ _______ _______ _____ _____    ______ ____
ROOT
ATOM      1  C   UNL     1      -7.248   1.431 129.850  0.00  0.00    +0.000 C 
ENDROOT
BRANCH   1  12
ATOM      2  C   UNL     1      -8.013  -1.021 130.142  0.00  0.00    +0.000 A 
ATOM      3  N   UNL     1      -8.238  -2.262 129.622  0.00  0.00    +0.000 NA
ATOM      4  C   UNL     1      -8.233  -2.450 128.269  0.00  0.00    +0.000 A 
ATOM      5  C   UNL     1      -7.914  -1.444 127.384  0.00  0.00    +0.000 A 
ATOM      6  C   UNL     1      -8.101  -1.542 125.970  0.00  0.00    +0.000 A 
ATOM      7  C   UNL     1      -8.593  -2.711 125.429  0.00  0.00    +0.000 A 
ATOM      8 BR   UNL     1      -9.087  -2.832 123.608  0.00  0.00    +0.000 Br
ATOM      9  C   UNL     1      -8.703  -3.803 126.265  0.00  0.00    +0.000 A 
ATOM     10  C   UNL     1      -8.509  -3.662 127.656  0.00  0.00    +0.000 A 
ATOM     11  C   UNL     1      -7.415  -0.311 127.994  0.00  0.00    +0.000 A 
ATOM     12  C   UNL     1      -7.587   0.023 129.344  0.00  0.00    +0.000 A 
BRANCH   2  14
ATOM     13  C   UNL     1      -7.265  -1.899 132.237  0.00  0.00    +0.000 C 
ATOM     14  O   UNL     1      -8.055  -0.966 131.512  0.00  0.00    +0.000 OA
ENDBRANCH   2  14
ENDBRANCH   1  12
BRANCH   1  15
ATOM     15  C   UNL     1      -6.000   1.295 130.662  0.00  0.00    +0.000 A 
ATOM     16  C   UNL     1      -4.892   0.516 130.306  0.00  0.00    +0.000 A 
ATOM     17  C   UNL     1      -3.818   0.445 131.168  0.00  0.00    +0.000 A 
ATOM     18  C   UNL     1      -3.856   1.145 132.375  0.00  0.00    +0.000 A 
ATOM     19  C   UNL     1      -4.986   1.873 132.747  0.00  0.00    +0.000 A 
ATOM     20  C   UNL     1      -6.033   1.979 131.877  0.00  0.00    +0.000 A 
ENDBRANCH   1  15
BRANCH   1  21
ATOM     21  C   UNL     1      -7.098   2.638 128.849  0.00  0.00    +0.000 C 
BRANCH  21  22
ATOM     22  C   UNL     1      -5.514   2.967 128.496  0.00  0.00    +0.000 A 
ATOM     23  C   UNL     1      -5.354   2.326 127.175  0.00  0.00    +0.000 A 
ATOM     24  C   UNL     1      -4.133   2.235 126.601  0.00  0.00    +0.000 A 
ATOM     25  C   UNL     1      -3.232   3.086 127.163  0.00  0.00    +0.000 A 
ATOM     26  C   UNL     1      -3.404   3.892 128.379  0.00  0.00    +0.000 A 
ATOM     27  C   UNL     1      -4.318   3.779 129.416  0.00  0.00    +0.000 A 
ATOM     28  C   UNL     1      -3.389   4.684 130.706  0.00  0.00    +0.000 A 
ATOM     29  C   UNL     1      -2.464   5.712 130.427  0.00  0.00    +0.000 A 
ATOM     30  C   UNL     1      -3.030   5.996 129.292  0.00  0.00    +0.000 A 
ATOM     31  C   UNL     1      -2.628   4.995 128.426  0.00  0.00    +0.000 A 
ENDBRANCH  21  22
BRANCH  21  32
ATOM     32  O   UNL     1      -7.539   2.544 127.508  0.00  0.00    +0.000 OA
ATOM     33  H   UNL     1      -8.303   3.090 127.348  0.00  0.00    +0.000 HD
ENDBRANCH  21  32
BRANCH  21  34
ATOM     34  C   UNL     1      -8.048   3.856 129.584  0.00  0.00    +0.000 C 
BRANCH  34  35
ATOM     35  C   UNL     1      -7.377   4.900 130.516  0.00  0.00    +0.000 C 
BRANCH  35  36
ATOM     36  N   UNL     1      -7.409   6.349 130.309  0.00  0.00    +0.000 NA
ATOM     37  C   UNL     1      -8.679   6.798 130.859  0.00  0.00    +0.000 C 
ATOM     38  C   UNL     1      -6.312   6.968 131.097  0.00  0.00    +0.000 C 
ENDBRANCH  35  36
ENDBRANCH  34  35
ENDBRANCH  21  34
ENDBRANCH   1  21
TORSDOF 9
ENDMDL
MODEL 7
REMARK VINA RESULT:      -7.8      2.917      7.025
REMARK  Name = Bedaquiline
REMARK  12 active torsions:
REMARK  status: ('A' for Active; 'I' for Inactive)
REMARK    1  A    between atoms: C_1  and  O_2
REMARK    2  A    between atoms: O_2  and  C_3
REMARK    3  A    between atoms: C_13  and  C_14
REMARK    4  A    between atoms: C_14  and  C_15
REMARK    5  A    between atoms: C_14  and  C_21
REMARK    6  A    between atoms: C_21  and  O_22
REMARK    7  A    between atoms: C_21  and  C_23
REMARK    8  A    between atoms: C_21  and  C_28
REMARK    9  A    between atoms: C_23  and  C_24
REMARK   10  A    between atoms: C_24  and  N_25
REMARK   11  A    between atoms: N_25  and  C_26
REMARK   12  A    between atoms: N_25  and  C_27
REMARK                            x       y       z     vdW  Elec       q    Type
REMARK                         _______ _______ _______ _____ _____    ______ ____
ROOT
ATOM      1  C   UNL     1      -7.720   0.275 125.755  0.00  0.00    +0.000 C 
ENDROOT
BRANCH   1  12
ATOM      2  C   UNL     1      -9.329   1.480 124.130  0.00  0.00    +0.000 A 
ATOM      3  N   UNL     1      -9.549   2.163 122.970  0.00  0.00    +0.000 NA
ATOM      4  C   UNL     1      -8.496   2.649 122.249  0.00  0.00    +0.000 A 
ATOM      5  C   UNL     1      -7.186   2.401 122.596  0.00  0.00    +0.000 A 
ATOM      6  C   UNL     1      -6.069   3.061 121.996  0.00  0.00    +0.000 A 
ATOM      7  C   UNL     1      -6.281   3.976 120.986  0.00  0.00    +0.000 A 
ATOM      8 BR   UNL     1      -4.882   5.055 120.313  0.00  0.00    +0.000 Br
ATOM      9  C   UNL     1      -7.557   4.071 120.470  0.00  0.00    +0.000 A 
ATOM     10  C   UNL     1      -8.632   3.401 121.093  0.00  0.00    +0.000 A 
ATOM     11  C   UNL     1      -7.049   1.467 123.601  0.00  0.00    +0.000 A 
ATOM     12  C   UNL     1      -8.055   1.098 124.504  0.00  0.00    +0.000 A 
BRANCH   2  14
ATOM     13  C   UNL     1     -11.692   1.129 124.042  0.00  0.00    +0.000 C 
ATOM     14  O   UNL     1     -10.469   1.055 124.762  0.00  0.00    +0.000 OA
ENDBRANCH   2  14
ENDBRANCH   1  12
BRANCH   1  15
ATOM     15  C   UNL     1      -7.902  -1.159 125.375  0.00  0.00    +0.000 A 
ATOM     16  C   UNL     1      -7.200  -1.815 124.357  0.00  0.00    +0.000 A 
ATOM     17  C   UNL     1      -7.496  -3.133 124.080  0.00  0.00    +0.000 A 
ATOM     18  C   UNL     1      -8.487  -3.785 124.815  0.00  0.00    +0.000 A 
ATOM     19  C   UNL     1      -9.220  -3.109 125.789  0.00  0.00    +0.000 A 
ATOM     20  C   UNL     1      -8.901  -1.816 126.093  0.00  0.00    +0.000 A 
ENDBRANCH   1  15
BRANCH   1  21
ATOM     21  C   UNL     1      -6.341   0.454 126.496  0.00  0.00    +0.000 C 
BRANCH  21  22
ATOM     22  C   UNL     1      -6.247  -0.458 127.876  0.00  0.00    +0.000 A 
ATOM     23  C   UNL     1      -5.221  -1.457 127.515  0.00  0.00    +0.000 A 
ATOM     24  C   UNL     1      -4.963  -2.500 128.336  0.00  0.00    +0.000 A 
ATOM     25  C   UNL     1      -5.439  -2.299 129.595  0.00  0.00    +0.000 A 
ATOM     26  C   UNL     1      -6.318  -1.215 130.054  0.00  0.00    +0.000 A 
ATOM     27  C   UNL     1      -7.131  -0.348 129.340  0.00  0.00    +0.000 A 
ATOM     28  C   UNL     1      -8.281   0.124 130.682  0.00  0.00    +0.000 A 
ATOM     29  C   UNL     1      -7.925   0.139 132.046  0.00  0.00    +0.000 A 
ATOM     30  C   UNL     1      -6.664   0.303 131.778  0.00  0.00    +0.000 A 
ATOM     31  C   UNL     1      -6.215  -0.940 131.371  0.00  0.00    +0.000 A 
ENDBRANCH  21  22
BRANCH  21  32
ATOM     32  O   UNL     1      -5.131  -0.006 125.925  0.00  0.00    +0.000 OA
ATOM     33  H   UNL     1      -4.638   0.703 125.522  0.00  0.00    +0.000 HD
ENDBRANCH  21  32
BRANCH  21  34
ATOM     34  C   UNL     1      -6.198   2.154 126.621  0.00  0.00    +0.000 C 
BRANCH  34  35
ATOM     35  C   UNL     1      -6.956   2.911 127.745  0.00  0.00    +0.000 C 
BRANCH  35  36
ATOM     36  N   UNL     1      -7.351   4.319 127.686  0.00  0.00    +0.000 NA
ATOM     37  C   UNL     1      -7.982   4.497 126.386  0.00  0.00    +0.000 C 
ATOM     38  C   UNL     1      -8.367   4.575 128.739  0.00  0.00    +0.000 C 
ENDBRANCH  35  36
ENDBRANCH  34  35
ENDBRANCH  21  34
ENDBRANCH   1  21
TORSDOF 9
ENDMDL
MODEL 8
REMARK VINA RESULT:      -7.7      2.033      4.660
REMARK  Name = Bedaquiline
REMARK  12 active torsions:
REMARK  status: ('A' for Active; 'I' for Inactive)
REMARK    1  A    between atoms: C_1  and  O_2
REMARK    2  A    between atoms: O_2  and  C_3
REMARK    3  A    between atoms: C_13  and  C_14
REMARK    4  A    between atoms: C_14  and  C_15
REMARK    5  A    between atoms: C_14  and  C_21
REMARK    6  A    between atoms: C_21  and  O_22
REMARK    7  A    between atoms: C_21  and  C_23
REMARK    8  A    between atoms: C_21  and  C_28
REMARK    9  A    between atoms: C_23  and  C_24
REMARK   10  A    between atoms: C_24  and  N_25
REMARK   11  A    between atoms: N_25  and  C_26
REMARK   12  A    between atoms: N_25  and  C_27
REMARK                            x       y       z     vdW  Elec       q    Type
REMARK                         _______ _______ _______ _____ _____    ______ ____
ROOT
ATOM      1  C   UNL     1      -8.371   1.087 128.008  0.00  0.00    +0.000 C 
ENDROOT
BRANCH   1  12
ATOM      2  C   UNL     1      -7.086   3.186 128.798  0.00  0.00    +0.000 A 
ATOM      3  N   UNL     1      -7.022   4.323 129.548  0.00  0.00    +0.000 NA
ATOM      4  C   UNL     1      -8.149   4.822 130.138  0.00  0.00    +0.000 A 
ATOM      5  C   UNL     1      -9.360   4.168 130.085  0.00  0.00    +0.000 A 
ATOM      6  C   UNL     1     -10.595   4.754 130.503  0.00  0.00    +0.000 A 
ATOM      7  C   UNL     1     -10.601   6.031 131.025  0.00  0.00    +0.000 A 
ATOM      8 BR   UNL     1     -12.213   6.954 131.375  0.00  0.00    +0.000 Br
ATOM      9  C   UNL     1      -9.380   6.613 131.296  0.00  0.00    +0.000 A 
ATOM     10  C   UNL     1      -8.183   5.999 130.866  0.00  0.00    +0.000 A 
ATOM     11  C   UNL     1      -9.277   2.893 129.566  0.00  0.00    +0.000 A 
ATOM     12  C   UNL     1      -8.229   2.411 128.770  0.00  0.00    +0.000 A 
BRANCH   2  14
ATOM     13  C   UNL     1      -4.850   3.766 128.180  0.00  0.00    +0.000 C 
ATOM     14  O   UNL     1      -5.889   2.798 128.254  0.00  0.00    +0.000 OA
ENDBRANCH   2  14
ENDBRANCH   1  12
BRANCH   1  15
ATOM     15  C   UNL     1      -8.517   1.448 126.565  0.00  0.00    +0.000 A 
ATOM     16  C   UNL     1      -7.636   2.268 125.850  0.00  0.00    +0.000 A 
ATOM     17  C   UNL     1      -7.911   2.556 124.529  0.00  0.00    +0.000 A 
ATOM     18  C   UNL     1      -9.058   2.030 123.934  0.00  0.00    +0.000 A 
ATOM     19  C   UNL     1      -9.959   1.262 124.669  0.00  0.00    +0.000 A 
ATOM     20  C   UNL     1      -9.669   0.940 125.964  0.00  0.00    +0.000 A 
ENDBRANCH   1  15
BRANCH   1  21
ATOM     21  C   UNL     1      -7.297  -0.055 128.160  0.00  0.00    +0.000 C 
BRANCH  21  22
ATOM     22  C   UNL     1      -6.933  -0.772 126.712  0.00  0.00    +0.000 A 
ATOM     23  C   UNL     1      -5.515  -0.398 126.533  0.00  0.00    +0.000 A 
ATOM     24  C   UNL     1      -4.879  -0.666 125.370  0.00  0.00    +0.000 A 
ATOM     25  C   UNL     1      -5.536  -1.593 124.621  0.00  0.00    +0.000 A 
ATOM     26  C   UNL     1      -6.880  -2.139 124.855  0.00  0.00    +0.000 A 
ATOM     27  C   UNL     1      -7.922  -1.668 125.639  0.00  0.00    +0.000 A 
ATOM     28  C   UNL     1      -9.305  -2.537 124.814  0.00  0.00    +0.000 A 
ATOM     29  C   UNL     1      -9.165  -3.771 124.146  0.00  0.00    +0.000 A 
ATOM     30  C   UNL     1      -8.123  -4.102 124.849  0.00  0.00    +0.000 A 
ATOM     31  C   UNL     1      -7.080  -3.362 124.322  0.00  0.00    +0.000 A 
ENDBRANCH  21  22
BRANCH  21  32
ATOM     32  O   UNL     1      -5.961   0.232 128.530  0.00  0.00    +0.000 OA
ATOM     33  H   UNL     1      -5.775   1.165 128.487  0.00  0.00    +0.000 HD
ENDBRANCH  21  32
BRANCH  21  34
ATOM     34  C   UNL     1      -7.947  -1.018 129.415  0.00  0.00    +0.000 C 
BRANCH  34  35
ATOM     35  C   UNL     1      -7.062  -1.400 130.633  0.00  0.00    +0.000 C 
BRANCH  35  36
ATOM     36  N   UNL     1      -7.198  -0.835 131.976  0.00  0.00    +0.000 NA
ATOM     37  C   UNL     1      -8.274   0.142 131.885  0.00  0.00    +0.000 C 
ATOM     38  C   UNL     1      -7.621  -1.913 132.907  0.00  0.00    +0.000 C 
ENDBRANCH  35  36
ENDBRANCH  34  35
ENDBRANCH  21  34
ENDBRANCH   1  21
TORSDOF 9
ENDMDL
MODEL 9
REMARK VINA RESULT:      -7.6      2.811      4.099
REMARK  Name = Bedaquiline
REMARK  12 active torsions:
REMARK  status: ('A' for Active; 'I' for Inactive)
REMARK    1  A    between atoms: C_1  and  O_2
REMARK    2  A    between atoms: O_2  and  C_3
REMARK    3  A    between atoms: C_13  and  C_14
REMARK    4  A    between atoms: C_14  and  C_15
REMARK    5  A    between atoms: C_14  and  C_21
REMARK    6  A    between atoms: C_21  and  O_22
REMARK    7  A    between atoms: C_21  and  C_23
REMARK    8  A    between atoms: C_21  and  C_28
REMARK    9  A    between atoms: C_23  and  C_24
REMARK   10  A    between atoms: C_24  and  N_25
REMARK   11  A    between atoms: N_25  and  C_26
REMARK   12  A    between atoms: N_25  and  C_27
REMARK                            x       y       z     vdW  Elec       q    Type
REMARK                         _______ _______ _______ _____ _____    ______ ____
ROOT
ATOM      1  C   UNL     1      -5.253   0.639 128.929  0.00  0.00    +0.000 C 
ENDROOT
BRANCH   1  12
ATOM      2  C   UNL     1      -3.825   2.749 128.494  0.00  0.00    +0.000 A 
ATOM      3  N   UNL     1      -3.161   3.846 128.958  0.00  0.00    +0.000 NA
ATOM      4  C   UNL     1      -3.337   4.261 130.248  0.00  0.00    +0.000 A 
ATOM      5  C   UNL     1      -4.100   3.556 131.152  0.00  0.00    +0.000 A 
ATOM      6  C   UNL     1      -4.477   4.062 132.435  0.00  0.00    +0.000 A 
ATOM      7  C   UNL     1      -4.037   5.308 132.832  0.00  0.00    +0.000 A 
ATOM      8 BR   UNL     1      -4.683   6.136 134.403  0.00  0.00    +0.000 Br
ATOM      9  C   UNL     1      -3.091   5.930 132.043  0.00  0.00    +0.000 A 
ATOM     10  C   UNL     1      -2.747   5.395 130.782  0.00  0.00    +0.000 A 
ATOM     11  C   UNL     1      -4.493   2.316 130.695  0.00  0.00    +0.000 A 
ATOM     12  C   UNL     1      -4.531   1.925 129.350  0.00  0.00    +0.000 A 
BRANCH   2  14
ATOM     13  C   UNL     1      -2.501   3.129 126.540  0.00  0.00    +0.000 C 
ATOM     14  O   UNL     1      -3.569   2.446 127.182  0.00  0.00    +0.000 OA
ENDBRANCH   2  14
ENDBRANCH   1  12
BRANCH   1  15
ATOM     15  C   UNL     1      -4.565  -0.481 129.642  0.00  0.00    +0.000 A 
ATOM     16  C   UNL     1      -4.202  -1.701 129.059  0.00  0.00    +0.000 A 
ATOM     17  C   UNL     1      -3.608  -2.668 129.843  0.00  0.00    +0.000 A 
ATOM     18  C   UNL     1      -3.382  -2.414 131.196  0.00  0.00    +0.000 A 
ATOM     19  C   UNL     1      -3.798  -1.219 131.781  0.00  0.00    +0.000 A 
ATOM     20  C   UNL     1      -4.348  -0.244 130.999  0.00  0.00    +0.000 A 
ENDBRANCH   1  15
BRANCH   1  21
ATOM     21  C   UNL     1      -6.812   0.493 129.099  0.00  0.00    +0.000 C 
BRANCH  21  22
ATOM     22  C   UNL     1      -7.328  -1.063 128.857  0.00  0.00    +0.000 A 
ATOM     23  C   UNL     1      -7.603  -1.513 130.237  0.00  0.00    +0.000 A 
ATOM     24  C   UNL     1      -7.902  -2.808 130.487  0.00  0.00    +0.000 A 
ATOM     25  C   UNL     1      -8.275  -3.480 129.363  0.00  0.00    +0.000 A 
ATOM     26  C   UNL     1      -8.195  -3.009 127.974  0.00  0.00    +0.000 A 
ATOM     27  C   UNL     1      -7.464  -1.973 127.412  0.00  0.00    +0.000 A 
ATOM     28  C   UNL     1      -7.447  -2.554 125.677  0.00  0.00    +0.000 A 
ATOM     29  C   UNL     1      -8.462  -3.352 125.111  0.00  0.00    +0.000 A 
ATOM     30  C   UNL     1      -9.351  -2.932 125.960  0.00  0.00    +0.000 A 
ATOM     31  C   UNL     1      -9.073  -3.601 127.138  0.00  0.00    +0.000 A 
ENDBRANCH  21  22
BRANCH  21  32
ATOM     32  O   UNL     1      -7.438   0.668 130.356  0.00  0.00    +0.000 OA
ATOM     33  H   UNL     1      -6.802   0.721 131.063  0.00  0.00    +0.000 HD
ENDBRANCH  21  32
BRANCH  21  34
ATOM     34  C   UNL     1      -7.419   1.729 128.083  0.00  0.00    +0.000 C 
BRANCH  34  35
ATOM     35  C   UNL     1      -8.744   1.506 127.305  0.00  0.00    +0.000 C 
BRANCH  35  36
ATOM     36  N   UNL     1      -8.967   1.885 125.908  0.00  0.00    +0.000 NA
ATOM     37  C   UNL     1      -7.645   2.127 125.349  0.00  0.00    +0.000 C 
ATOM     38  C   UNL     1      -9.576   0.734 125.193  0.00  0.00    +0.000 C 
ENDBRANCH  35  36
ENDBRANCH  34  35
ENDBRANCH  21  34
ENDBRANCH   1  21
TORSDOF 9
ENDMDL
