MODEL 1
REMARK VINA RESULT:      -8.1      0.000      0.000
REMARK  Name = Belinostat
REMARK  6 active torsions:
REMARK  status: ('A' for Active; 'I' for Inactive)
REMARK    1  A    between atoms: O_1  and  N_2
REMARK    2  A    between atoms: C_3  and  C_5
REMARK    3  A    between atoms: C_6  and  C_7
REMARK    4  A    between atoms: C_11  and  S_13
REMARK    5  A    between atoms: S_13  and  N_16
REMARK    6  A    between atoms: N_16  and  C_17
REMARK                            x       y       z     vdW  Elec       q    Type
REMARK                         _______ _______ _______ _____ _____    ______ ____
ROOT
ATOM      1  C   UNL     1      -6.855   2.993 123.108  0.00  0.00    +0.000 A 
ATOM      2  C   UNL     1      -6.038   2.884 124.241  0.00  0.00    +0.000 A 
ATOM      3  C   UNL     1      -6.235   1.848 125.163  0.00  0.00    +0.000 A 
ATOM      4  C   UNL     1      -7.282   0.941 124.987  0.00  0.00    +0.000 A 
ATOM      5  C   UNL     1      -8.102   1.041 123.855  0.00  0.00    +0.000 A 
ATOM      6  C   UNL     1      -7.884   2.059 122.925  0.00  0.00    +0.000 A 
ENDROOT
BRANCH   5   7
ATOM      7  S   UNL     1      -9.372  -0.194 123.635  0.00  0.00    +0.000 S 
ATOM      8  O   UNL     1      -9.649  -0.724 124.951  0.00  0.00    +0.000 OA
ATOM      9  O   UNL     1     -10.404   0.441 122.837  0.00  0.00    +0.000 OA
BRANCH   7  10
ATOM     10  N   UNL     1      -8.685  -1.423 122.712  0.00  0.00    +0.000 N 
ATOM     11  H   UNL     1      -8.887  -1.514 121.727  0.00  0.00    +0.000 HD
BRANCH  10  12
ATOM     12  C   UNL     1      -7.570  -2.161 123.203  0.00  0.00    +0.000 A 
ATOM     13  C   UNL     1      -6.294  -1.875 122.705  0.00  0.00    +0.000 A 
ATOM     14  C   UNL     1      -5.203  -2.669 123.074  0.00  0.00    +0.000 A 
ATOM     15  C   UNL     1      -5.375  -3.712 123.982  0.00  0.00    +0.000 A 
ATOM     16  C   UNL     1      -6.647  -4.000 124.474  0.00  0.00    +0.000 A 
ATOM     17  C   UNL     1      -7.743  -3.236 124.071  0.00  0.00    +0.000 A 
ENDBRANCH  10  12
ENDBRANCH   7  10
ENDBRANCH   5   7
BRANCH   1  19
ATOM     18  C   UNL     1      -5.408   4.058 121.388  0.00  0.00    +0.000 C 
ATOM     19  C   UNL     1      -6.570   3.991 122.063  0.00  0.00    +0.000 C 
BRANCH  18  21
ATOM     20  N   UNL     1      -5.844   4.958 119.210  0.00  0.00    +0.000 N 
ATOM     21  C   UNL     1      -5.171   5.144 120.394  0.00  0.00    +0.000 C 
ATOM     22  O   UNL     1      -4.430   6.092 120.647  0.00  0.00    +0.000 OA
ATOM     23  H   UNL     1      -6.459   4.181 119.001  0.00  0.00    +0.000 HD
BRANCH  20  24
ATOM     24  O   UNL     1      -5.669   5.963 118.233  0.00  0.00    +0.000 OA
ATOM     25  H   UNL     1      -6.547   6.365 118.128  0.00  0.00    +0.000 HD
ENDBRANCH  20  24
ENDBRANCH  18  21
ENDBRANCH   1  19
TORSDOF 6
ENDMDL
MODEL 2
REMARK VINA RESULT:      -7.8      2.229      2.643
REMARK  Name = Belinostat
REMARK  6 active torsions:
REMARK  status: ('A' for Active; 'I' for Inactive)
REMARK    1  A    between atoms: O_1  and  N_2
REMARK    2  A    between atoms: C_3  and  C_5
REMARK    3  A    between atoms: C_6  and  C_7
REMARK    4  A    between atoms: C_11  and  S_13
REMARK    5  A    between atoms: S_13  and  N_16
REMARK    6  A    between atoms: N_16  and  C_17
REMARK                            x       y       z     vdW  Elec       q    Type
REMARK                         _______ _______ _______ _____ _____    ______ ____
ROOT
ATOM      1  C   UNL     1      -6.585   2.797 123.294  0.00  0.00    +0.000 A 
ATOM      2  C   UNL     1      -5.884   3.104 124.467  0.00  0.00    +0.000 A 
ATOM      3  C   UNL     1      -5.954   2.257 125.580  0.00  0.00    +0.000 A 
ATOM      4  C   UNL     1      -6.765   1.120 125.547  0.00  0.00    +0.000 A 
ATOM      5  C   UNL     1      -7.467   0.804 124.377  0.00  0.00    +0.000 A 
ATOM      6  C   UNL     1      -7.372   1.638 123.261  0.00  0.00    +0.000 A 
ENDROOT
BRANCH   5   7
ATOM      7  S   UNL     1      -8.422  -0.704 124.360  0.00  0.00    +0.000 S 
ATOM      8  O   UNL     1      -9.604  -0.439 125.148  0.00  0.00    +0.000 OA
ATOM      9  O   UNL     1      -8.507  -1.101 122.968  0.00  0.00    +0.000 OA
BRANCH   7  10
ATOM     10  N   UNL     1      -7.503  -1.858 125.173  0.00  0.00    +0.000 N 
ATOM     11  H   UNL     1      -6.550  -2.053 124.904  0.00  0.00    +0.000 HD
BRANCH  10  12
ATOM     12  C   UNL     1      -7.919  -2.353 126.443  0.00  0.00    +0.000 A 
ATOM     13  C   UNL     1      -7.433  -1.739 127.602  0.00  0.00    +0.000 A 
ATOM     14  C   UNL     1      -7.722  -2.284 128.858  0.00  0.00    +0.000 A 
ATOM     15  C   UNL     1      -8.541  -3.407 128.958  0.00  0.00    +0.000 A 
ATOM     16  C   UNL     1      -9.020  -4.021 127.802  0.00  0.00    +0.000 A 
ATOM     17  C   UNL     1      -8.695  -3.504 126.548  0.00  0.00    +0.000 A 
ENDBRANCH  10  12
ENDBRANCH   7  10
ENDBRANCH   5   7
BRANCH   1  19
ATOM     18  C   UNL     1      -5.303   4.320 121.802  0.00  0.00    +0.000 C 
ATOM     19  C   UNL     1      -6.410   3.604 122.075  0.00  0.00    +0.000 C 
BRANCH  18  21
ATOM     20  N   UNL     1      -6.080   4.757 119.577  0.00  0.00    +0.000 N 
ATOM     21  C   UNL     1      -5.232   5.169 120.579  0.00  0.00    +0.000 C 
ATOM     22  O   UNL     1      -4.468   6.129 120.509  0.00  0.00    +0.000 OA
ATOM     23  H   UNL     1      -6.714   3.968 119.633  0.00  0.00    +0.000 HD
BRANCH  20  24
ATOM     24  O   UNL     1      -6.067   5.531 118.396  0.00  0.00    +0.000 OA
ATOM     25  H   UNL     1      -6.603   6.314 118.605  0.00  0.00    +0.000 HD
ENDBRANCH  20  24
ENDBRANCH  18  21
ENDBRANCH   1  19
TORSDOF 6
ENDMDL
MODEL 3
REMARK VINA RESULT:      -7.5      2.081      2.655
REMARK  Name = Belinostat
REMARK  6 active torsions:
REMARK  status: ('A' for Active; 'I' for Inactive)
REMARK    1  A    between atoms: O_1  and  N_2
REMARK    2  A    between atoms: C_3  and  C_5
REMARK    3  A    between atoms: C_6  and  C_7
REMARK    4  A    between atoms: C_11  and  S_13
REMARK    5  A    between atoms: S_13  and  N_16
REMARK    6  A    between atoms: N_16  and  C_17
REMARK                            x       y       z     vdW  Elec       q    Type
REMARK                         _______ _______ _______ _____ _____    ______ ____
ROOT
ATOM      1  C   UNL     1      -6.109   3.403 123.615  0.00  0.00    +0.000 A 
ATOM      2  C   UNL     1      -5.294   4.264 124.361  0.00  0.00    +0.000 A 
ATOM      3  C   UNL     1      -4.828   3.883 125.626  0.00  0.00    +0.000 A 
ATOM      4  C   UNL     1      -5.214   2.660 126.178  0.00  0.00    +0.000 A 
ATOM      5  C   UNL     1      -6.027   1.792 125.437  0.00  0.00    +0.000 A 
ATOM      6  C   UNL     1      -6.466   2.164 124.164  0.00  0.00    +0.000 A 
ENDROOT
BRANCH   5   7
ATOM      7  S   UNL     1      -6.422   0.205 126.154  0.00  0.00    +0.000 S 
ATOM      8  O   UNL     1      -5.487   0.011 127.239  0.00  0.00    +0.000 OA
ATOM      9  O   UNL     1      -7.855   0.220 126.377  0.00  0.00    +0.000 OA
BRANCH   7  10
ATOM     10  N   UNL     1      -6.092  -0.946 124.970  0.00  0.00    +0.000 N 
ATOM     11  H   UNL     1      -5.149  -1.259 124.791  0.00  0.00    +0.000 HD
BRANCH  10  12
ATOM     12  C   UNL     1      -7.140  -1.738 124.417  0.00  0.00    +0.000 A 
ATOM     13  C   UNL     1      -7.855  -1.246 123.320  0.00  0.00    +0.000 A 
ATOM     14  C   UNL     1      -8.969  -1.943 122.840  0.00  0.00    +0.000 A 
ATOM     15  C   UNL     1      -9.334  -3.157 123.419  0.00  0.00    +0.000 A 
ATOM     16  C   UNL     1      -8.625  -3.643 124.515  0.00  0.00    +0.000 A 
ATOM     17  C   UNL     1      -7.541  -2.926 125.023  0.00  0.00    +0.000 A 
ENDBRANCH  10  12
ENDBRANCH   7  10
ENDBRANCH   5   7
BRANCH   1  19
ATOM     18  C   UNL     1      -5.622   4.172 121.300  0.00  0.00    +0.000 C 
ATOM     19  C   UNL     1      -6.489   3.732 122.231  0.00  0.00    +0.000 C 
BRANCH  18  21
ATOM     20  N   UNL     1      -5.328   5.519 119.339  0.00  0.00    +0.000 N 
ATOM     21  C   UNL     1      -6.100   4.552 119.940  0.00  0.00    +0.000 C 
ATOM     22  O   UNL     1      -7.099   4.035 119.444  0.00  0.00    +0.000 OA
ATOM     23  H   UNL     1      -4.501   5.944 119.743  0.00  0.00    +0.000 HD
BRANCH  20  24
ATOM     24  O   UNL     1      -5.724   5.911 118.042  0.00  0.00    +0.000 OA
ATOM     25  H   UNL     1      -6.338   6.651 118.181  0.00  0.00    +0.000 HD
ENDBRANCH  20  24
ENDBRANCH  18  21
ENDBRANCH   1  19
TORSDOF 6
ENDMDL
MODEL 4
REMARK VINA RESULT:      -7.4      3.073      3.837
REMARK  Name = Belinostat
REMARK  6 active torsions:
REMARK  status: ('A' for Active; 'I' for Inactive)
REMARK    1  A    between atoms: O_1  and  N_2
REMARK    2  A    between atoms: C_3  and  C_5
REMARK    3  A    between atoms: C_6  and  C_7
REMARK    4  A    between atoms: C_11  and  S_13
REMARK    5  A    between atoms: S_13  and  N_16
REMARK    6  A    between atoms: N_16  and  C_17
REMARK                            x       y       z     vdW  Elec       q    Type
REMARK                         _______ _______ _______ _____ _____    ______ ____
ROOT
ATOM      1  C   UNL     1      -6.531   2.514 124.196  0.00  0.00    +0.000 A 
ATOM      2  C   UNL     1      -6.716   3.502 123.221  0.00  0.00    +0.000 A 
ATOM      3  C   UNL     1      -7.804   3.438 122.341  0.00  0.00    +0.000 A 
ATOM      4  C   UNL     1      -8.689   2.359 122.396  0.00  0.00    +0.000 A 
ATOM      5  C   UNL     1      -8.513   1.368 123.370  0.00  0.00    +0.000 A 
ATOM      6  C   UNL     1      -7.442   1.451 124.263  0.00  0.00    +0.000 A 
ENDROOT
BRANCH   5   7
ATOM      7  S   UNL     1      -9.720   0.055 123.451  0.00  0.00    +0.000 S 
ATOM      8  O   UNL     1      -9.817  -0.316 124.844  0.00  0.00    +0.000 OA
ATOM      9  O   UNL     1     -10.871   0.532 122.708  0.00  0.00    +0.000 OA
BRANCH   7  10
ATOM     10  N   UNL     1      -9.063  -1.247 122.610  0.00  0.00    +0.000 N 
ATOM     11  H   UNL     1      -9.247  -1.383 121.626  0.00  0.00    +0.000 HD
BRANCH  10  12
ATOM     12  C   UNL     1      -7.989  -2.001 123.165  0.00  0.00    +0.000 A 
ATOM     13  C   UNL     1      -6.679  -1.707 122.772  0.00  0.00    +0.000 A 
ATOM     14  C   UNL     1      -5.620  -2.513 123.202  0.00  0.00    +0.000 A 
ATOM     15  C   UNL     1      -5.862  -3.578 124.068  0.00  0.00    +0.000 A 
ATOM     16  C   UNL     1      -7.168  -3.874 124.454  0.00  0.00    +0.000 A 
ATOM     17  C   UNL     1      -8.229  -3.097 123.990  0.00  0.00    +0.000 A 
ENDBRANCH  10  12
ENDBRANCH   7  10
ENDBRANCH   5   7
BRANCH   1  19
ATOM     18  C   UNL     1      -4.773   3.773 125.426  0.00  0.00    +0.000 C 
ATOM     19  C   UNL     1      -5.474   2.644 125.214  0.00  0.00    +0.000 C 
BRANCH  18  21
ATOM     20  N   UNL     1      -2.977   2.617 126.512  0.00  0.00    +0.000 N 
ATOM     21  C   UNL     1      -3.669   3.801 126.427  0.00  0.00    +0.000 C 
ATOM     22  O   UNL     1      -3.440   4.805 127.099  0.00  0.00    +0.000 OA
ATOM     23  H   UNL     1      -3.160   1.789 125.956  0.00  0.00    +0.000 HD
BRANCH  20  24
ATOM     24  O   UNL     1      -1.909   2.587 127.436  0.00  0.00    +0.000 OA
ATOM     25  H   UNL     1      -2.314   2.803 128.293  0.00  0.00    +0.000 HD
ENDBRANCH  20  24
ENDBRANCH  18  21
ENDBRANCH   1  19
TORSDOF 6
ENDMDL
MODEL 5
REMARK VINA RESULT:      -7.2      3.407      6.855
REMARK  Name = Belinostat
REMARK  6 active torsions:
REMARK  status: ('A' for Active; 'I' for Inactive)
REMARK    1  A    between atoms: O_1  and  N_2
REMARK    2  A    between atoms: C_3  and  C_5
REMARK    3  A    between atoms: C_6  and  C_7
REMARK    4  A    between atoms: C_11  and  S_13
REMARK    5  A    between atoms: S_13  and  N_16
REMARK    6  A    between atoms: N_16  and  C_17
REMARK                            x       y       z     vdW  Elec       q    Type
REMARK                         _______ _______ _______ _____ _____    ______ ____
ROOT
ATOM      1  C   UNL     1      -7.280  -0.765 123.591  0.00  0.00    +0.000 A 
ATOM      2  C   UNL     1      -8.605  -0.878 123.149  0.00  0.00    +0.000 A 
ATOM      3  C   UNL     1      -9.535   0.133 123.424  0.00  0.00    +0.000 A 
ATOM      4  C   UNL     1      -9.162   1.242 124.187  0.00  0.00    +0.000 A 
ATOM      5  C   UNL     1      -7.839   1.364 124.630  0.00  0.00    +0.000 A 
ATOM      6  C   UNL     1      -6.908   0.367 124.329  0.00  0.00    +0.000 A 
ENDROOT
BRANCH   5   7
ATOM      7  S   UNL     1      -7.394   2.842 125.529  0.00  0.00    +0.000 S 
ATOM      8  O   UNL     1      -8.489   3.104 126.435  0.00  0.00    +0.000 OA
ATOM      9  O   UNL     1      -6.044   2.618 126.009  0.00  0.00    +0.000 OA
BRANCH   7  10
ATOM     10  N   UNL     1      -7.343   4.088 124.398  0.00  0.00    +0.000 N 
ATOM     11  H   UNL     1      -7.659   5.018 124.629  0.00  0.00    +0.000 HD
BRANCH  10  12
ATOM     12  C   UNL     1      -6.570   3.956 123.209  0.00  0.00    +0.000 A 
ATOM     13  C   UNL     1      -5.287   4.514 123.168  0.00  0.00    +0.000 A 
ATOM     14  C   UNL     1      -4.559   4.511 121.974  0.00  0.00    +0.000 A 
ATOM     15  C   UNL     1      -5.088   3.903 120.836  0.00  0.00    +0.000 A 
ATOM     16  C   UNL     1      -6.368   3.354 120.876  0.00  0.00    +0.000 A 
ATOM     17  C   UNL     1      -7.113   3.396 122.055  0.00  0.00    +0.000 A 
ENDBRANCH  10  12
ENDBRANCH   7  10
ENDBRANCH   5   7
BRANCH   1  19
ATOM     18  C   UNL     1      -5.733  -2.663 124.025  0.00  0.00    +0.000 C 
ATOM     19  C   UNL     1      -6.262  -1.751 123.190  0.00  0.00    +0.000 C 
BRANCH  18  21
ATOM     20  N   UNL     1      -5.012  -4.907 123.591  0.00  0.00    +0.000 N 
ATOM     21  C   UNL     1      -4.654  -3.580 123.559  0.00  0.00    +0.000 C 
ATOM     22  O   UNL     1      -3.559  -3.151 123.201  0.00  0.00    +0.000 OA
ATOM     23  H   UNL     1      -5.915  -5.264 123.881  0.00  0.00    +0.000 HD
BRANCH  20  24
ATOM     24  O   UNL     1      -4.034  -5.824 123.148  0.00  0.00    +0.000 OA
ATOM     25  H   UNL     1      -3.197  -5.494 123.515  0.00  0.00    +0.000 HD
ENDBRANCH  20  24
ENDBRANCH  18  21
ENDBRANCH   1  19
TORSDOF 6
ENDMDL
MODEL 6
REMARK VINA RESULT:      -7.2      2.070      2.639
REMARK  Name = Belinostat
REMARK  6 active torsions:
REMARK  status: ('A' for Active; 'I' for Inactive)
REMARK    1  A    between atoms: O_1  and  N_2
REMARK    2  A    between atoms: C_3  and  C_5
REMARK    3  A    between atoms: C_6  and  C_7
REMARK    4  A    between atoms: C_11  and  S_13
REMARK    5  A    between atoms: S_13  and  N_16
REMARK    6  A    between atoms: N_16  and  C_17
REMARK                            x       y       z     vdW  Elec       q    Type
REMARK                         _______ _______ _______ _____ _____    ______ ____
ROOT
ATOM      1  C   UNL     1      -7.177   2.899 122.559  0.00  0.00    +0.000 A 
ATOM      2  C   UNL     1      -8.574   2.833 122.484  0.00  0.00    +0.000 A 
ATOM      3  C   UNL     1      -9.302   2.072 123.407  0.00  0.00    +0.000 A 
ATOM      4  C   UNL     1      -8.636   1.330 124.385  0.00  0.00    +0.000 A 
ATOM      5  C   UNL     1      -7.239   1.391 124.469  0.00  0.00    +0.000 A 
ATOM      6  C   UNL     1      -6.520   2.174 123.563  0.00  0.00    +0.000 A 
ENDROOT
BRANCH   5   7
ATOM      7  S   UNL     1      -6.444   0.489 125.789  0.00  0.00    +0.000 S 
ATOM      8  O   UNL     1      -5.164   1.128 125.997  0.00  0.00    +0.000 OA
ATOM      9  O   UNL     1      -7.429   0.393 126.849  0.00  0.00    +0.000 OA
BRANCH   7  10
ATOM     10  N   UNL     1      -6.161  -1.063 125.200  0.00  0.00    +0.000 N 
ATOM     11  H   UNL     1      -5.318  -1.566 125.433  0.00  0.00    +0.000 HD
BRANCH  10  12
ATOM     12  C   UNL     1      -7.222  -1.827 124.634  0.00  0.00    +0.000 A 
ATOM     13  C   UNL     1      -7.396  -1.822 123.246  0.00  0.00    +0.000 A 
ATOM     14  C   UNL     1      -8.504  -2.458 122.676  0.00  0.00    +0.000 A 
ATOM     15  C   UNL     1      -9.406  -3.146 123.486  0.00  0.00    +0.000 A 
ATOM     16  C   UNL     1      -9.235  -3.146 124.869  0.00  0.00    +0.000 A 
ATOM     17  C   UNL     1      -8.155  -2.474 125.442  0.00  0.00    +0.000 A 
ENDBRANCH  10  12
ENDBRANCH   7  10
ENDBRANCH   5   7
BRANCH   1  19
ATOM     18  C   UNL     1      -6.842   4.218 120.477  0.00  0.00    +0.000 C 
ATOM     19  C   UNL     1      -6.413   3.803 121.683  0.00  0.00    +0.000 C 
BRANCH  18  21
ATOM     20  N   UNL     1      -6.402   5.151 118.314  0.00  0.00    +0.000 N 
ATOM     21  C   UNL     1      -5.977   5.077 119.620  0.00  0.00    +0.000 C 
ATOM     22  O   UNL     1      -4.982   5.639 120.073  0.00  0.00    +0.000 OA
ATOM     23  H   UNL     1      -7.224   4.693 117.938  0.00  0.00    +0.000 HD
BRANCH  20  24
ATOM     24  O   UNL     1      -5.628   5.962 117.455  0.00  0.00    +0.000 OA
ATOM     25  H   UNL     1      -5.461   5.410 116.673  0.00  0.00    +0.000 HD
ENDBRANCH  20  24
ENDBRANCH  18  21
ENDBRANCH   1  19
TORSDOF 6
ENDMDL
MODEL 7
REMARK VINA RESULT:      -7.1      4.730      8.231
REMARK  Name = Belinostat
REMARK  6 active torsions:
REMARK  status: ('A' for Active; 'I' for Inactive)
REMARK    1  A    between atoms: O_1  and  N_2
REMARK    2  A    between atoms: C_3  and  C_5
REMARK    3  A    between atoms: C_6  and  C_7
REMARK    4  A    between atoms: C_11  and  S_13
REMARK    5  A    between atoms: S_13  and  N_16
REMARK    6  A    between atoms: N_16  and  C_17
REMARK                            x       y       z     vdW  Elec       q    Type
REMARK                         _______ _______ _______ _____ _____    ______ ____
ROOT
ATOM      1  C   UNL     1      -7.788  -2.631 128.452  0.00  0.00    +0.000 A 
ATOM      2  C   UNL     1      -8.432  -3.737 127.882  0.00  0.00    +0.000 A 
ATOM      3  C   UNL     1      -9.155  -3.602 126.689  0.00  0.00    +0.000 A 
ATOM      4  C   UNL     1      -9.283  -2.350 126.083  0.00  0.00    +0.000 A 
ATOM      5  C   UNL     1      -8.640  -1.240 126.646  0.00  0.00    +0.000 A 
ATOM      6  C   UNL     1      -7.897  -1.385 127.819  0.00  0.00    +0.000 A 
ENDROOT
BRANCH   5   7
ATOM      7  S   UNL     1      -8.765   0.319 125.785  0.00  0.00    +0.000 S 
ATOM      8  O   UNL     1      -9.752   0.126 124.747  0.00  0.00    +0.000 OA
ATOM      9  O   UNL     1      -8.932   1.325 126.817  0.00  0.00    +0.000 OA
BRANCH   7  10
ATOM     10  N   UNL     1      -7.274   0.576 125.046  0.00  0.00    +0.000 N 
ATOM     11  H   UNL     1      -6.730   1.404 125.237  0.00  0.00    +0.000 HD
BRANCH  10  12
ATOM     12  C   UNL     1      -6.595  -0.493 124.394  0.00  0.00    +0.000 A 
ATOM     13  C   UNL     1      -6.959  -0.830 123.085  0.00  0.00    +0.000 A 
ATOM     14  C   UNL     1      -6.400  -1.954 122.469  0.00  0.00    +0.000 A 
ATOM     15  C   UNL     1      -5.438  -2.709 123.138  0.00  0.00    +0.000 A 
ATOM     16  C   UNL     1      -5.080  -2.377 124.443  0.00  0.00    +0.000 A 
ATOM     17  C   UNL     1      -5.671  -1.282 125.074  0.00  0.00    +0.000 A 
ENDBRANCH  10  12
ENDBRANCH   7  10
ENDBRANCH   5   7
BRANCH   1  19
ATOM     18  C   UNL     1      -6.282  -3.934 129.942  0.00  0.00    +0.000 C 
ATOM     19  C   UNL     1      -6.913  -2.788 129.626  0.00  0.00    +0.000 C 
BRANCH  18  21
ATOM     20  N   UNL     1      -4.147  -3.701 131.007  0.00  0.00    +0.000 N 
ATOM     21  C   UNL     1      -5.469  -4.032 131.188  0.00  0.00    +0.000 C 
ATOM     22  O   UNL     1      -5.970  -4.388 132.253  0.00  0.00    +0.000 OA
ATOM     23  H   UNL     1      -3.733  -3.402 130.131  0.00  0.00    +0.000 HD
BRANCH  20  24
ATOM     24  O   UNL     1      -3.329  -3.762 132.156  0.00  0.00    +0.000 OA
ATOM     25  H   UNL     1      -3.669  -4.517 132.665  0.00  0.00    +0.000 HD
ENDBRANCH  20  24
ENDBRANCH  18  21
ENDBRANCH   1  19
TORSDOF 6
ENDMDL
MODEL 8
REMARK VINA RESULT:      -7.1      3.627      7.348
REMARK  Name = Belinostat
REMARK  6 active torsions:
REMARK  status: ('A' for Active; 'I' for Inactive)
REMARK    1  A    between atoms: O_1  and  N_2
REMARK    2  A    between atoms: C_3  and  C_5
REMARK    3  A    between atoms: C_6  and  C_7
REMARK    4  A    between atoms: C_11  and  S_13
REMARK    5  A    between atoms: S_13  and  N_16
REMARK    6  A    between atoms: N_16  and  C_17
REMARK                            x       y       z     vdW  Elec       q    Type
REMARK                         _______ _______ _______ _____ _____    ______ ____
ROOT
ATOM      1  C   UNL     1      -6.202  -1.124 125.551  0.00  0.00    +0.000 A 
ATOM      2  C   UNL     1      -5.674  -1.834 124.465  0.00  0.00    +0.000 A 
ATOM      3  C   UNL     1      -6.254  -1.726 123.195  0.00  0.00    +0.000 A 
ATOM      4  C   UNL     1      -7.398  -0.946 123.009  0.00  0.00    +0.000 A 
ATOM      5  C   UNL     1      -7.931  -0.231 124.090  0.00  0.00    +0.000 A 
ATOM      6  C   UNL     1      -7.332  -0.320 125.348  0.00  0.00    +0.000 A 
ENDROOT
BRANCH   5   7
ATOM      7  S   UNL     1      -9.343   0.817 123.780  0.00  0.00    +0.000 S 
ATOM      8  O   UNL     1      -9.843   0.441 122.477  0.00  0.00    +0.000 OA
ATOM      9  O   UNL     1     -10.169   0.726 124.969  0.00  0.00    +0.000 OA
BRANCH   7  10
ATOM     10  N   UNL     1      -8.754   2.391 123.677  0.00  0.00    +0.000 N 
ATOM     11  H   UNL     1      -8.680   2.977 124.495  0.00  0.00    +0.000 HD
BRANCH  10  12
ATOM     12  C   UNL     1      -8.052   2.828 122.517  0.00  0.00    +0.000 A 
ATOM     13  C   UNL     1      -6.654   2.775 122.510  0.00  0.00    +0.000 A 
ATOM     14  C   UNL     1      -5.938   3.316 121.437  0.00  0.00    +0.000 A 
ATOM     15  C   UNL     1      -6.617   3.858 120.348  0.00  0.00    +0.000 A 
ATOM     16  C   UNL     1      -8.009   3.915 120.358  0.00  0.00    +0.000 A 
ATOM     17  C   UNL     1      -8.723   3.417 121.448  0.00  0.00    +0.000 A 
ENDBRANCH  10  12
ENDBRANCH   7  10
ENDBRANCH   5   7
BRANCH   1  19
ATOM     18  C   UNL     1      -5.539  -2.156 127.715  0.00  0.00    +0.000 C 
ATOM     19  C   UNL     1      -5.519  -1.120 126.856  0.00  0.00    +0.000 C 
BRANCH  18  21
ATOM     20  N   UNL     1      -3.571  -2.460 129.048  0.00  0.00    +0.000 N 
ATOM     21  C   UNL     1      -4.882  -2.047 129.049  0.00  0.00    +0.000 C 
ATOM     22  O   UNL     1      -5.494  -1.631 130.031  0.00  0.00    +0.000 OA
ATOM     23  H   UNL     1      -3.064  -2.799 128.239  0.00  0.00    +0.000 HD
BRANCH  20  24
ATOM     24  O   UNL     1      -2.891  -2.368 130.282  0.00  0.00    +0.000 OA
ATOM     25  H   UNL     1      -2.195  -3.045 130.236  0.00  0.00    +0.000 HD
ENDBRANCH  20  24
ENDBRANCH  18  21
ENDBRANCH   1  19
TORSDOF 6
ENDMDL
MODEL 9
REMARK VINA RESULT:      -7.0      8.466     10.340
REMARK  Name = Belinostat
REMARK  6 active torsions:
REMARK  status: ('A' for Active; 'I' for Inactive)
REMARK    1  A    between atoms: O_1  and  N_2
REMARK    2  A    between atoms: C_3  and  C_5
REMARK    3  A    between atoms: C_6  and  C_7
REMARK    4  A    between atoms: C_11  and  S_13
REMARK    5  A    between atoms: S_13  and  N_16
REMARK    6  A    between atoms: N_16  and  C_17
REMARK                            x       y       z     vdW  Elec       q    Type
REMARK                         _______ _______ _______ _____ _____    ______ ____
ROOT
ATOM      1  C   UNL     1      -7.862   6.483 131.588  0.00  0.00    +0.000 A 
ATOM      2  C   UNL     1      -7.659   5.828 132.809  0.00  0.00    +0.000 A 
ATOM      3  C   UNL     1      -6.363   5.627 133.302  0.00  0.00    +0.000 A 
ATOM      4  C   UNL     1      -5.256   6.035 132.553  0.00  0.00    +0.000 A 
ATOM      5  C   UNL     1      -5.451   6.692 131.331  0.00  0.00    +0.000 A 
ATOM      6  C   UNL     1      -6.746   6.915 130.858  0.00  0.00    +0.000 A 
ENDROOT
BRANCH   5   7
ATOM      7  S   UNL     1      -4.006   7.267 130.455  0.00  0.00    +0.000 S 
ATOM      8  O   UNL     1      -4.419   7.460 129.084  0.00  0.00    +0.000 OA
ATOM      9  O   UNL     1      -3.470   8.355 131.250  0.00  0.00    +0.000 OA
BRANCH   7  10
ATOM     10  N   UNL     1      -2.895   6.001 130.491  0.00  0.00    +0.000 N 
ATOM     11  H   UNL     1      -2.308   5.842 131.296  0.00  0.00    +0.000 HD
BRANCH  10  12
ATOM     12  C   UNL     1      -2.972   4.942 129.541  0.00  0.00    +0.000 A 
ATOM     13  C   UNL     1      -2.398   5.120 128.278  0.00  0.00    +0.000 A 
ATOM     14  C   UNL     1      -2.571   4.149 127.286  0.00  0.00    +0.000 A 
ATOM     15  C   UNL     1      -3.267   2.977 127.573  0.00  0.00    +0.000 A 
ATOM     16  C   UNL     1      -3.843   2.802 128.829  0.00  0.00    +0.000 A 
ATOM     17  C   UNL     1      -3.710   3.791 129.805  0.00  0.00    +0.000 A 
ENDBRANCH  10  12
ENDBRANCH   7  10
ENDBRANCH   5   7
BRANCH   1  19
ATOM     18  C   UNL     1      -9.495   7.324 129.911  0.00  0.00    +0.000 C 
ATOM     19  C   UNL     1      -9.220   6.823 131.129  0.00  0.00    +0.000 C 
BRANCH  18  21
ATOM     20  N   UNL     1     -10.952   8.715 128.611  0.00  0.00    +0.000 N 
ATOM     21  C   UNL     1     -10.889   7.710 129.548  0.00  0.00    +0.000 C 
ATOM     22  O   UNL     1     -11.860   7.164 130.067  0.00  0.00    +0.000 OA
ATOM     23  H   UNL     1     -10.153   9.163 128.178  0.00  0.00    +0.000 HD
BRANCH  20  24
ATOM     24  O   UNL     1     -12.248   9.115 128.217  0.00  0.00    +0.000 OA
ATOM     25  H   UNL     1     -12.552   9.708 128.925  0.00  0.00    +0.000 HD
ENDBRANCH  20  24
ENDBRANCH  18  21
ENDBRANCH   1  19
TORSDOF 6
ENDMDL
