MODEL 1
REMARK VINA RESULT:      -9.9      0.000      0.000
REMARK  Name = Belumosudil
REMARK  8 active torsions:
REMARK  status: ('A' for Active; 'I' for Inactive)
REMARK    1  A    between atoms: C_1  and  C_2
REMARK    2  A    between atoms: C_2  and  C_3
REMARK    3  A    between atoms: C_2  and  N_4
REMARK    4  A    between atoms: C_5  and  C_7
REMARK    5  A    between atoms: C_7  and  O_8
REMARK    6  A    between atoms: O_8  and  C_9
REMARK    7  A    between atoms: C_13  and  C_15
REMARK    8  A    between atoms: N_24  and  C_25
REMARK                            x       y       z     vdW  Elec       q    Type
REMARK                         _______ _______ _______ _____ _____    ______ ____
ROOT
ATOM      1  C   UNL     1      -7.212   0.607 126.180  0.00  0.00    +0.000 A 
ATOM      2  N   UNL     1      -8.230  -0.170 126.498  0.00  0.00    +0.000 NA
ATOM      3  C   UNL     1      -8.499  -1.103 125.596  0.00  0.00    +0.000 A 
ATOM      4  C   UNL     1      -8.474  -0.950 124.231  0.00  0.00    +0.000 A 
ATOM      5  C   UNL     1      -9.095  -2.028 123.457  0.00  0.00    +0.000 A 
ATOM      6  C   UNL     1      -9.132  -3.319 124.018  0.00  0.00    +0.000 A 
ATOM      7  C   UNL     1      -8.658  -3.485 125.310  0.00  0.00    +0.000 A 
ATOM      8  C   UNL     1      -8.426  -2.366 126.089  0.00  0.00    +0.000 A 
ATOM      9  C   UNL     1      -7.659   0.210 123.960  0.00  0.00    +0.000 A 
ATOM     10  N   UNL     1      -8.364   1.324 123.419  0.00  0.00    +0.000 N 
ATOM     11  N   UNL     1      -6.796   0.698 124.906  0.00  0.00    +0.000 NA
ATOM     12  H   UNL     1      -8.133   1.864 124.276  0.00  0.00    +0.000 HD
ENDROOT
BRANCH  10  13
ATOM     13  C   UNL     1      -8.103   2.438 122.572  0.00  0.00    +0.000 A 
ATOM     14  C   UNL     1      -8.999   2.984 121.640  0.00  0.00    +0.000 A 
ATOM     15  C   UNL     1      -8.523   3.765 120.566  0.00  0.00    +0.000 A 
ATOM     16  C   UNL     1      -7.153   4.060 120.539  0.00  0.00    +0.000 A 
ATOM     17  N   UNL     1      -6.390   4.821 119.693  0.00  0.00    +0.000 N 
ATOM     18  N   UNL     1      -5.075   4.822 119.987  0.00  0.00    +0.000 NA
ATOM     19  C   UNL     1      -4.998   4.029 121.058  0.00  0.00    +0.000 A 
ATOM     20  C   UNL     1      -6.260   3.568 121.479  0.00  0.00    +0.000 A 
ATOM     21  C   UNL     1      -6.737   2.752 122.505  0.00  0.00    +0.000 A 
ATOM     22  H   UNL     1      -6.707   5.382 118.911  0.00  0.00    +0.000 HD
ENDBRANCH  10  13
BRANCH   1  27
ATOM     23  C   UNL     1      -8.124   3.370 128.550  0.00  0.00    +0.000 A 
ATOM     24  C   UNL     1      -6.979   4.160 128.582  0.00  0.00    +0.000 A 
ATOM     25  C   UNL     1      -5.833   3.748 127.893  0.00  0.00    +0.000 A 
ATOM     26  C   UNL     1      -5.832   2.547 127.156  0.00  0.00    +0.000 A 
ATOM     27  C   UNL     1      -7.006   1.782 127.049  0.00  0.00    +0.000 A 
ATOM     28  C   UNL     1      -8.119   2.198 127.801  0.00  0.00    +0.000 A 
BRANCH  23  29
ATOM     29  O   UNL     1      -9.236   3.871 129.164  0.00  0.00    +0.000 OA
BRANCH  29  30
ATOM     30  C   UNL     1      -9.148   5.193 129.702  0.00  0.00    +0.000 C 
BRANCH  30  32
ATOM     31  N   UNL     1     -11.146   6.652 129.578  0.00  0.00    +0.000 N 
ATOM     32  C   UNL     1     -10.051   6.135 128.903  0.00  0.00    +0.000 C 
ATOM     33  O   UNL     1      -9.820   6.420 127.713  0.00  0.00    +0.000 OA
ATOM     34  H   UNL     1     -11.358   6.329 130.516  0.00  0.00    +0.000 HD
BRANCH  31  36
ATOM     35  C   UNL     1     -13.242   6.888 128.265  0.00  0.00    +0.000 C 
ATOM     36  C   UNL     1     -12.058   7.595 128.928  0.00  0.00    +0.000 C 
ATOM     37  C   UNL     1     -12.598   8.614 129.934  0.00  0.00    +0.000 C 
ENDBRANCH  31  36
ENDBRANCH  30  32
ENDBRANCH  29  30
ENDBRANCH  23  29
ENDBRANCH   1  27
TORSDOF 6
ENDMDL
MODEL 2
REMARK VINA RESULT:      -9.7      3.950      8.024
REMARK  Name = Belumosudil
REMARK  8 active torsions:
REMARK  status: ('A' for Active; 'I' for Inactive)
REMARK    1  A    between atoms: C_1  and  C_2
REMARK    2  A    between atoms: C_2  and  C_3
REMARK    3  A    between atoms: C_2  and  N_4
REMARK    4  A    between atoms: C_5  and  C_7
REMARK    5  A    between atoms: C_7  and  O_8
REMARK    6  A    between atoms: O_8  and  C_9
REMARK    7  A    between atoms: C_13  and  C_15
REMARK    8  A    between atoms: N_24  and  C_25
REMARK                            x       y       z     vdW  Elec       q    Type
REMARK                         _______ _______ _______ _____ _____    ______ ____
ROOT
ATOM      1  C   UNL     1      -7.640  -3.068 129.257  0.00  0.00    +0.000 A 
ATOM      2  N   UNL     1      -6.392  -3.488 129.342  0.00  0.00    +0.000 NA
ATOM      3  C   UNL     1      -5.963  -3.658 130.585  0.00  0.00    +0.000 A 
ATOM      4  C   UNL     1      -6.225  -2.839 131.657  0.00  0.00    +0.000 A 
ATOM      5  C   UNL     1      -5.402  -3.066 132.848  0.00  0.00    +0.000 A 
ATOM      6  C   UNL     1      -4.873  -4.353 133.059  0.00  0.00    +0.000 A 
ATOM      7  C   UNL     1      -5.084  -5.317 132.086  0.00  0.00    +0.000 A 
ATOM      8  C   UNL     1      -5.555  -4.926 130.846  0.00  0.00    +0.000 A 
ATOM      9  C   UNL     1      -7.401  -2.074 131.316  0.00  0.00    +0.000 A 
ATOM     10  N   UNL     1      -7.175  -0.678 131.137  0.00  0.00    +0.000 N 
ATOM     11  N   UNL     1      -8.235  -2.482 130.308  0.00  0.00    +0.000 NA
ATOM     12  H   UNL     1      -7.447  -0.781 130.139  0.00  0.00    +0.000 HD
ENDROOT
BRANCH  10  13
ATOM     13  C   UNL     1      -7.896   0.542 131.274  0.00  0.00    +0.000 A 
ATOM     14  C   UNL     1      -9.037   0.733 132.068  0.00  0.00    +0.000 A 
ATOM     15  C   UNL     1      -9.919   1.802 131.805  0.00  0.00    +0.000 A 
ATOM     16  C   UNL     1      -9.550   2.713 130.806  0.00  0.00    +0.000 A 
ATOM     17  N   UNL     1     -10.131   3.866 130.349  0.00  0.00    +0.000 N 
ATOM     18  N   UNL     1      -9.475   4.447 129.326  0.00  0.00    +0.000 NA
ATOM     19  C   UNL     1      -8.438   3.631 129.123  0.00  0.00    +0.000 A 
ATOM     20  C   UNL     1      -8.402   2.567 130.043  0.00  0.00    +0.000 A 
ATOM     21  C   UNL     1      -7.566   1.474 130.279  0.00  0.00    +0.000 A 
ATOM     22  H   UNL     1     -10.963   4.321 130.706  0.00  0.00    +0.000 HD
ENDBRANCH  10  13
BRANCH   1  27
ATOM     23  C   UNL     1      -8.355  -0.772 126.376  0.00  0.00    +0.000 A 
ATOM     24  C   UNL     1      -9.099  -1.565 125.507  0.00  0.00    +0.000 A 
ATOM     25  C   UNL     1      -9.303  -2.916 125.805  0.00  0.00    +0.000 A 
ATOM     26  C   UNL     1      -8.776  -3.479 126.985  0.00  0.00    +0.000 A 
ATOM     27  C   UNL     1      -8.093  -2.671 127.909  0.00  0.00    +0.000 A 
ATOM     28  C   UNL     1      -7.857  -1.332 127.547  0.00  0.00    +0.000 A 
BRANCH  23  29
ATOM     29  O   UNL     1      -8.268   0.557 126.077  0.00  0.00    +0.000 OA
BRANCH  29  30
ATOM     30  C   UNL     1      -9.350   1.134 125.340  0.00  0.00    +0.000 C 
BRANCH  30  32
ATOM     31  N   UNL     1      -8.278   2.128 123.341  0.00  0.00    +0.000 N 
ATOM     32  C   UNL     1      -8.854   2.366 124.578  0.00  0.00    +0.000 C 
ATOM     33  O   UNL     1      -8.959   3.516 125.043  0.00  0.00    +0.000 OA
ATOM     34  H   UNL     1      -8.124   1.175 123.031  0.00  0.00    +0.000 HD
BRANCH  31  36
ATOM     35  C   UNL     1      -6.367   3.014 122.021  0.00  0.00    +0.000 C 
ATOM     36  C   UNL     1      -7.803   3.232 122.503  0.00  0.00    +0.000 C 
ATOM     37  C   UNL     1      -8.707   3.418 121.282  0.00  0.00    +0.000 C 
ENDBRANCH  31  36
ENDBRANCH  30  32
ENDBRANCH  29  30
ENDBRANCH  23  29
ENDBRANCH   1  27
TORSDOF 6
ENDMDL
MODEL 3
REMARK VINA RESULT:      -9.6      3.718      6.460
REMARK  Name = Belumosudil
REMARK  8 active torsions:
REMARK  status: ('A' for Active; 'I' for Inactive)
REMARK    1  A    between atoms: C_1  and  C_2
REMARK    2  A    between atoms: C_2  and  C_3
REMARK    3  A    between atoms: C_2  and  N_4
REMARK    4  A    between atoms: C_5  and  C_7
REMARK    5  A    between atoms: C_7  and  O_8
REMARK    6  A    between atoms: O_8  and  C_9
REMARK    7  A    between atoms: C_13  and  C_15
REMARK    8  A    between atoms: N_24  and  C_25
REMARK                            x       y       z     vdW  Elec       q    Type
REMARK                         _______ _______ _______ _____ _____    ______ ____
ROOT
ATOM      1  C   UNL     1      -7.371  -0.830 130.870  0.00  0.00    +0.000 A 
ATOM      2  N   UNL     1      -7.667  -1.809 131.703  0.00  0.00    +0.000 NA
ATOM      3  C   UNL     1      -6.908  -2.887 131.562  0.00  0.00    +0.000 A 
ATOM      4  C   UNL     1      -6.483  -3.435 130.376  0.00  0.00    +0.000 A 
ATOM      5  C   UNL     1      -5.914  -4.782 130.463  0.00  0.00    +0.000 A 
ATOM      6  C   UNL     1      -5.314  -5.177 131.675  0.00  0.00    +0.000 A 
ATOM      7  C   UNL     1      -5.371  -4.303 132.749  0.00  0.00    +0.000 A 
ATOM      8  C   UNL     1      -6.228  -3.220 132.688  0.00  0.00    +0.000 A 
ATOM      9  C   UNL     1      -6.586  -2.395 129.379  0.00  0.00    +0.000 A 
ATOM     10  N   UNL     1      -7.574  -2.622 128.377  0.00  0.00    +0.000 N 
ATOM     11  N   UNL     1      -6.677  -1.078 129.747  0.00  0.00    +0.000 NA
ATOM     12  H   UNL     1      -8.087  -1.786 128.720  0.00  0.00    +0.000 HD
ENDROOT
BRANCH  10  13
ATOM     13  C   UNL     1      -7.804  -2.283 127.014  0.00  0.00    +0.000 A 
ATOM     14  C   UNL     1      -9.018  -2.430 126.328  0.00  0.00    +0.000 A 
ATOM     15  C   UNL     1      -9.039  -2.495 124.919  0.00  0.00    +0.000 A 
ATOM     16  C   UNL     1      -7.827  -2.294 124.245  0.00  0.00    +0.000 A 
ATOM     17  N   UNL     1      -7.511  -2.234 122.914  0.00  0.00    +0.000 N 
ATOM     18  N   UNL     1      -6.197  -2.062 122.666  0.00  0.00    +0.000 NA
ATOM     19  C   UNL     1      -5.658  -2.013 123.886  0.00  0.00    +0.000 A 
ATOM     20  C   UNL     1      -6.624  -2.099 124.906  0.00  0.00    +0.000 A 
ATOM     21  C   UNL     1      -6.610  -2.092 126.301  0.00  0.00    +0.000 A 
ATOM     22  H   UNL     1      -8.146  -2.282 122.126  0.00  0.00    +0.000 HD
ENDBRANCH  10  13
BRANCH   1  27
ATOM     23  C   UNL     1      -8.938   2.355 129.654  0.00  0.00    +0.000 A 
ATOM     24  C   UNL     1      -9.801   2.706 130.688  0.00  0.00    +0.000 A 
ATOM     25  C   UNL     1      -9.962   1.845 131.779  0.00  0.00    +0.000 A 
ATOM     26  C   UNL     1      -9.248   0.633 131.848  0.00  0.00    +0.000 A 
ATOM     27  C   UNL     1      -8.314   0.305 130.851  0.00  0.00    +0.000 A 
ATOM     28  C   UNL     1      -8.222   1.167 129.742  0.00  0.00    +0.000 A 
BRANCH  23  29
ATOM     29  O   UNL     1      -8.754   3.277 128.665  0.00  0.00    +0.000 OA
BRANCH  29  30
ATOM     30  C   UNL     1      -7.598   3.126 127.835  0.00  0.00    +0.000 C 
BRANCH  30  32
ATOM     31  N   UNL     1      -7.908   2.013 125.645  0.00  0.00    +0.000 N 
ATOM     32  C   UNL     1      -8.008   3.194 126.363  0.00  0.00    +0.000 C 
ATOM     33  O   UNL     1      -8.406   4.250 125.836  0.00  0.00    +0.000 OA
ATOM     34  H   UNL     1      -7.494   1.194 126.077  0.00  0.00    +0.000 HD
BRANCH  31  36
ATOM     35  C   UNL     1      -7.205   1.371 123.349  0.00  0.00    +0.000 C 
ATOM     36  C   UNL     1      -8.310   1.947 124.238  0.00  0.00    +0.000 C 
ATOM     37  C   UNL     1      -9.569   1.093 124.069  0.00  0.00    +0.000 C 
ENDBRANCH  31  36
ENDBRANCH  30  32
ENDBRANCH  29  30
ENDBRANCH  23  29
ENDBRANCH   1  27
TORSDOF 6
ENDMDL
MODEL 4
REMARK VINA RESULT:      -9.5      3.644      5.844
REMARK  Name = Belumosudil
REMARK  8 active torsions:
REMARK  status: ('A' for Active; 'I' for Inactive)
REMARK    1  A    between atoms: C_1  and  C_2
REMARK    2  A    between atoms: C_2  and  C_3
REMARK    3  A    between atoms: C_2  and  N_4
REMARK    4  A    between atoms: C_5  and  C_7
REMARK    5  A    between atoms: C_7  and  O_8
REMARK    6  A    between atoms: O_8  and  C_9
REMARK    7  A    between atoms: C_13  and  C_15
REMARK    8  A    between atoms: N_24  and  C_25
REMARK                            x       y       z     vdW  Elec       q    Type
REMARK                         _______ _______ _______ _____ _____    ______ ____
ROOT
ATOM      1  C   UNL     1      -7.331  -0.820 131.069  0.00  0.00    +0.000 A 
ATOM      2  N   UNL     1      -7.675  -1.843 131.827  0.00  0.00    +0.000 NA
ATOM      3  C   UNL     1      -6.917  -2.918 131.660  0.00  0.00    +0.000 A 
ATOM      4  C   UNL     1      -6.436  -3.399 130.466  0.00  0.00    +0.000 A 
ATOM      5  C   UNL     1      -5.880  -4.754 130.502  0.00  0.00    +0.000 A 
ATOM      6  C   UNL     1      -5.346  -5.226 131.716  0.00  0.00    +0.000 A 
ATOM      7  C   UNL     1      -5.452  -4.417 132.837  0.00  0.00    +0.000 A 
ATOM      8  C   UNL     1      -6.298  -3.323 132.797  0.00  0.00    +0.000 A 
ATOM      9  C   UNL     1      -6.481  -2.301 129.530  0.00  0.00    +0.000 A 
ATOM     10  N   UNL     1      -7.419  -2.460 128.467  0.00  0.00    +0.000 N 
ATOM     11  N   UNL     1      -6.582  -1.007 129.970  0.00  0.00    +0.000 NA
ATOM     12  H   UNL     1      -7.943  -1.640 128.833  0.00  0.00    +0.000 HD
ENDROOT
BRANCH  10  13
ATOM     13  C   UNL     1      -7.577  -2.039 127.117  0.00  0.00    +0.000 A 
ATOM     14  C   UNL     1      -7.495  -0.716 126.658  0.00  0.00    +0.000 A 
ATOM     15  C   UNL     1      -8.089  -0.347 125.432  0.00  0.00    +0.000 A 
ATOM     16  C   UNL     1      -8.653  -1.368 124.655  0.00  0.00    +0.000 A 
ATOM     17  N   UNL     1      -9.243  -1.368 123.419  0.00  0.00    +0.000 N 
ATOM     18  N   UNL     1      -9.706  -2.572 123.028  0.00  0.00    +0.000 NA
ATOM     19  C   UNL     1      -9.399  -3.368 124.055  0.00  0.00    +0.000 A 
ATOM     20  C   UNL     1      -8.700  -2.690 125.071  0.00  0.00    +0.000 A 
ATOM     21  C   UNL     1      -8.157  -3.030 126.311  0.00  0.00    +0.000 A 
ATOM     22  H   UNL     1      -9.344  -0.585 122.783  0.00  0.00    +0.000 HD
ENDBRANCH  10  13
BRANCH   1  27
ATOM     23  C   UNL     1      -8.701   2.539 130.107  0.00  0.00    +0.000 A 
ATOM     24  C   UNL     1      -9.718   2.750 131.033  0.00  0.00    +0.000 A 
ATOM     25  C   UNL     1     -10.047   1.741 131.945  0.00  0.00    +0.000 A 
ATOM     26  C   UNL     1      -9.347   0.518 131.945  0.00  0.00    +0.000 A 
ATOM     27  C   UNL     1      -8.265   0.323 131.070  0.00  0.00    +0.000 A 
ATOM     28  C   UNL     1      -8.002   1.337 130.130  0.00  0.00    +0.000 A 
BRANCH  23  29
ATOM     29  O   UNL     1      -8.367   3.592 129.307  0.00  0.00    +0.000 OA
BRANCH  29  30
ATOM     30  C   UNL     1      -8.620   4.906 129.813  0.00  0.00    +0.000 C 
BRANCH  30  32
ATOM     31  N   UNL     1     -10.595   6.315 129.318  0.00  0.00    +0.000 N 
ATOM     32  C   UNL     1      -9.466   5.691 128.809  0.00  0.00    +0.000 C 
ATOM     33  O   UNL     1      -9.164   5.764 127.604  0.00  0.00    +0.000 OA
ATOM     34  H   UNL     1     -10.865   6.161 130.283  0.00  0.00    +0.000 HD
BRANCH  31  36
ATOM     35  C   UNL     1     -12.877   7.254 129.023  0.00  0.00    +0.000 C 
ATOM     36  C   UNL     1     -11.460   7.128 128.459  0.00  0.00    +0.000 C 
ATOM     37  C   UNL     1     -10.881   8.532 128.273  0.00  0.00    +0.000 C 
ENDBRANCH  31  36
ENDBRANCH  30  32
ENDBRANCH  29  30
ENDBRANCH  23  29
ENDBRANCH   1  27
TORSDOF 6
ENDMDL
MODEL 5
REMARK VINA RESULT:      -9.5      4.094      8.002
REMARK  Name = Belumosudil
REMARK  8 active torsions:
REMARK  status: ('A' for Active; 'I' for Inactive)
REMARK    1  A    between atoms: C_1  and  C_2
REMARK    2  A    between atoms: C_2  and  C_3
REMARK    3  A    between atoms: C_2  and  N_4
REMARK    4  A    between atoms: C_5  and  C_7
REMARK    5  A    between atoms: C_7  and  O_8
REMARK    6  A    between atoms: O_8  and  C_9
REMARK    7  A    between atoms: C_13  and  C_15
REMARK    8  A    between atoms: N_24  and  C_25
REMARK                            x       y       z     vdW  Elec       q    Type
REMARK                         _______ _______ _______ _____ _____    ______ ____
ROOT
ATOM      1  C   UNL     1      -7.222   0.326 125.360  0.00  0.00    +0.000 A 
ATOM      2  N   UNL     1      -7.138  -0.281 124.192  0.00  0.00    +0.000 NA
ATOM      3  C   UNL     1      -7.847  -1.399 124.112  0.00  0.00    +0.000 A 
ATOM      4  C   UNL     1      -7.981  -2.352 125.092  0.00  0.00    +0.000 A 
ATOM      5  C   UNL     1      -8.562  -3.628 124.667  0.00  0.00    +0.000 A 
ATOM      6  C   UNL     1      -9.435  -3.629 123.562  0.00  0.00    +0.000 A 
ATOM      7  C   UNL     1      -9.631  -2.438 122.880  0.00  0.00    +0.000 A 
ATOM      8  C   UNL     1      -8.778  -1.377 123.124  0.00  0.00    +0.000 A 
ATOM      9  C   UNL     1      -7.637  -1.712 126.340  0.00  0.00    +0.000 A 
ATOM     10  N   UNL     1      -6.440  -2.191 126.948  0.00  0.00    +0.000 N 
ATOM     11  N   UNL     1      -7.629  -0.346 126.449  0.00  0.00    +0.000 NA
ATOM     12  H   UNL     1      -6.018  -1.250 126.816  0.00  0.00    +0.000 HD
ENDROOT
BRANCH  10  13
ATOM     13  C   UNL     1      -5.890  -2.323 128.254  0.00  0.00    +0.000 A 
ATOM     14  C   UNL     1      -4.576  -2.712 128.553  0.00  0.00    +0.000 A 
ATOM     15  C   UNL     1      -4.257  -3.236 129.823  0.00  0.00    +0.000 A 
ATOM     16  C   UNL     1      -5.271  -3.243 130.791  0.00  0.00    +0.000 A 
ATOM     17  N   UNL     1      -5.285  -3.617 132.109  0.00  0.00    +0.000 N 
ATOM     18  N   UNL     1      -6.491  -3.509 132.700  0.00  0.00    +0.000 NA
ATOM     19  C   UNL     1      -7.274  -3.051 131.721  0.00  0.00    +0.000 A 
ATOM     20  C   UNL     1      -6.564  -2.817 130.528  0.00  0.00    +0.000 A 
ATOM     21  C   UNL     1      -6.877  -2.351 129.251  0.00  0.00    +0.000 A 
ATOM     22  H   UNL     1      -4.503  -3.934 132.669  0.00  0.00    +0.000 HD
ENDBRANCH  10  13
BRANCH   1  27
ATOM     23  C   UNL     1      -5.602   3.645 124.694  0.00  0.00    +0.000 A 
ATOM     24  C   UNL     1      -4.500   3.643 125.544  0.00  0.00    +0.000 A 
ATOM     25  C   UNL     1      -4.314   2.581 126.435  0.00  0.00    +0.000 A 
ATOM     26  C   UNL     1      -5.224   1.506 126.472  0.00  0.00    +0.000 A 
ATOM     27  C   UNL     1      -6.295   1.456 125.564  0.00  0.00    +0.000 A 
ATOM     28  C   UNL     1      -6.482   2.569 124.723  0.00  0.00    +0.000 A 
BRANCH  23  29
ATOM     29  O   UNL     1      -5.679   4.660 123.785  0.00  0.00    +0.000 OA
BRANCH  29  30
ATOM     30  C   UNL     1      -4.771   4.620 122.681  0.00  0.00    +0.000 C 
BRANCH  30  32
ATOM     31  N   UNL     1      -6.755   4.380 121.218  0.00  0.00    +0.000 N 
ATOM     32  C   UNL     1      -5.455   3.973 121.475  0.00  0.00    +0.000 C 
ATOM     33  O   UNL     1      -4.881   3.126 120.766  0.00  0.00    +0.000 OA
ATOM     34  H   UNL     1      -7.226   5.001 121.866  0.00  0.00    +0.000 HD
BRANCH  31  36
ATOM     35  C   UNL     1      -9.009   3.883 120.298  0.00  0.00    +0.000 C 
ATOM     36  C   UNL     1      -7.496   3.859 120.068  0.00  0.00    +0.000 C 
ATOM     37  C   UNL     1      -7.181   4.663 118.805  0.00  0.00    +0.000 C 
ENDBRANCH  31  36
ENDBRANCH  30  32
ENDBRANCH  29  30
ENDBRANCH  23  29
ENDBRANCH   1  27
TORSDOF 6
ENDMDL
MODEL 6
REMARK VINA RESULT:      -9.5      3.087      6.799
REMARK  Name = Belumosudil
REMARK  8 active torsions:
REMARK  status: ('A' for Active; 'I' for Inactive)
REMARK    1  A    between atoms: C_1  and  C_2
REMARK    2  A    between atoms: C_2  and  C_3
REMARK    3  A    between atoms: C_2  and  N_4
REMARK    4  A    between atoms: C_5  and  C_7
REMARK    5  A    between atoms: C_7  and  O_8
REMARK    6  A    between atoms: O_8  and  C_9
REMARK    7  A    between atoms: C_13  and  C_15
REMARK    8  A    between atoms: N_24  and  C_25
REMARK                            x       y       z     vdW  Elec       q    Type
REMARK                         _______ _______ _______ _____ _____    ______ ____
ROOT
ATOM      1  C   UNL     1      -7.730   0.958 123.510  0.00  0.00    +0.000 A 
ATOM      2  N   UNL     1      -7.328  -0.269 123.241  0.00  0.00    +0.000 NA
ATOM      3  C   UNL     1      -8.031  -1.214 123.850  0.00  0.00    +0.000 A 
ATOM      4  C   UNL     1      -8.497  -1.178 125.142  0.00  0.00    +0.000 A 
ATOM      5  C   UNL     1      -8.982  -2.452 125.680  0.00  0.00    +0.000 A 
ATOM      6  C   UNL     1      -9.483  -3.411 124.779  0.00  0.00    +0.000 A 
ATOM      7  C   UNL     1      -9.410  -3.136 123.422  0.00  0.00    +0.000 A 
ATOM      8  C   UNL     1      -8.621  -2.085 122.992  0.00  0.00    +0.000 A 
ATOM      9  C   UNL     1      -8.515   0.210 125.538  0.00  0.00    +0.000 A 
ATOM     10  N   UNL     1      -7.578   0.554 126.557  0.00  0.00    +0.000 N 
ATOM     11  N   UNL     1      -8.476   1.208 124.599  0.00  0.00    +0.000 NA
ATOM     12  H   UNL     1      -7.094   1.172 125.877  0.00  0.00    +0.000 HD
ENDROOT
BRANCH  10  13
ATOM     13  C   UNL     1      -7.453   1.505 127.608  0.00  0.00    +0.000 A 
ATOM     14  C   UNL     1      -6.266   1.823 128.285  0.00  0.00    +0.000 A 
ATOM     15  C   UNL     1      -6.312   2.417 129.564  0.00  0.00    +0.000 A 
ATOM     16  C   UNL     1      -7.571   2.772 130.067  0.00  0.00    +0.000 A 
ATOM     17  N   UNL     1      -7.959   3.403 131.219  0.00  0.00    +0.000 N 
ATOM     18  N   UNL     1      -9.294   3.525 131.358  0.00  0.00    +0.000 NA
ATOM     19  C   UNL     1      -9.772   2.949 130.253  0.00  0.00    +0.000 A 
ATOM     20  C   UNL     1      -8.752   2.509 129.390  0.00  0.00    +0.000 A 
ATOM     21  C   UNL     1      -8.694   1.871 128.150  0.00  0.00    +0.000 A 
ATOM     22  H   UNL     1      -7.364   3.793 131.941  0.00  0.00    +0.000 HD
ENDBRANCH  10  13
BRANCH   1  27
ATOM     23  C   UNL     1      -5.905   4.236 123.577  0.00  0.00    +0.000 A 
ATOM     24  C   UNL     1      -5.444   4.376 122.271  0.00  0.00    +0.000 A 
ATOM     25  C   UNL     1      -5.641   3.341 121.351  0.00  0.00    +0.000 A 
ATOM     26  C   UNL     1      -6.315   2.163 121.730  0.00  0.00    +0.000 A 
ATOM     27  C   UNL     1      -6.856   2.042 123.022  0.00  0.00    +0.000 A 
ATOM     28  C   UNL     1      -6.587   3.079 123.935  0.00  0.00    +0.000 A 
BRANCH  23  29
ATOM     29  O   UNL     1      -5.764   5.316 124.400  0.00  0.00    +0.000 OA
BRANCH  29  30
ATOM     30  C   UNL     1      -6.080   5.131 125.782  0.00  0.00    +0.000 C 
BRANCH  30  32
ATOM     31  N   UNL     1      -3.988   4.072 126.580  0.00  0.00    +0.000 N 
ATOM     32  C   UNL     1      -4.799   5.196 126.617  0.00  0.00    +0.000 C 
ATOM     33  O   UNL     1      -4.502   6.197 127.294  0.00  0.00    +0.000 OA
ATOM     34  H   UNL     1      -4.302   3.239 126.094  0.00  0.00    +0.000 HD
BRANCH  31  36
ATOM     35  C   UNL     1      -2.902   3.629 128.771  0.00  0.00    +0.000 C 
ATOM     36  C   UNL     1      -2.717   4.034 127.307  0.00  0.00    +0.000 C 
ATOM     37  C   UNL     1      -1.741   3.055 126.649  0.00  0.00    +0.000 C 
ENDBRANCH  31  36
ENDBRANCH  30  32
ENDBRANCH  29  30
ENDBRANCH  23  29
ENDBRANCH   1  27
TORSDOF 6
ENDMDL
MODEL 7
REMARK VINA RESULT:      -9.4      3.961      8.559
REMARK  Name = Belumosudil
REMARK  8 active torsions:
REMARK  status: ('A' for Active; 'I' for Inactive)
REMARK    1  A    between atoms: C_1  and  C_2
REMARK    2  A    between atoms: C_2  and  C_3
REMARK    3  A    between atoms: C_2  and  N_4
REMARK    4  A    between atoms: C_5  and  C_7
REMARK    5  A    between atoms: C_7  and  O_8
REMARK    6  A    between atoms: O_8  and  C_9
REMARK    7  A    between atoms: C_13  and  C_15
REMARK    8  A    between atoms: N_24  and  C_25
REMARK                            x       y       z     vdW  Elec       q    Type
REMARK                         _______ _______ _______ _____ _____    ______ ____
ROOT
ATOM      1  C   UNL     1      -4.904   4.070 125.843  0.00  0.00    +0.000 A 
ATOM      2  N   UNL     1      -5.120   5.087 126.654  0.00  0.00    +0.000 NA
ATOM      3  C   UNL     1      -4.314   5.120 127.706  0.00  0.00    +0.000 A 
ATOM      4  C   UNL     1      -3.904   4.042 128.453  0.00  0.00    +0.000 A 
ATOM      5  C   UNL     1      -3.265   4.360 129.733  0.00  0.00    +0.000 A 
ATOM      6  C   UNL     1      -2.603   5.596 129.861  0.00  0.00    +0.000 A 
ATOM      7  C   UNL     1      -2.665   6.486 128.800  0.00  0.00    +0.000 A 
ATOM      8  C   UNL     1      -3.578   6.258 127.786  0.00  0.00    +0.000 A 
ATOM      9  C   UNL     1      -4.095   2.872 127.630  0.00  0.00    +0.000 A 
ATOM     10  N   UNL     1      -5.106   1.977 128.088  0.00  0.00    +0.000 N 
ATOM     11  N   UNL     1      -4.239   2.984 126.272  0.00  0.00    +0.000 NA
ATOM     12  H   UNL     1      -5.648   2.176 127.224  0.00  0.00    +0.000 HD
ENDROOT
BRANCH  10  13
ATOM     13  C   UNL     1      -5.401   0.586 128.029  0.00  0.00    +0.000 A 
ATOM     14  C   UNL     1      -6.215  -0.037 127.072  0.00  0.00    +0.000 A 
ATOM     15  C   UNL     1      -6.799  -1.294 127.339  0.00  0.00    +0.000 A 
ATOM     16  C   UNL     1      -6.442  -1.930 128.536  0.00  0.00    +0.000 A 
ATOM     17  N   UNL     1      -6.769  -3.150 129.065  0.00  0.00    +0.000 N 
ATOM     18  N   UNL     1      -6.243  -3.382 130.284  0.00  0.00    +0.000 NA
ATOM     19  C   UNL     1      -5.557  -2.266 130.540  0.00  0.00    +0.000 A 
ATOM     20  C   UNL     1      -5.600  -1.350 129.472  0.00  0.00    +0.000 A 
ATOM     21  C   UNL     1      -5.073  -0.083 129.218  0.00  0.00    +0.000 A 
ATOM     22  H   UNL     1      -7.328  -3.879 128.637  0.00  0.00    +0.000 HD
ENDBRANCH  10  13
BRANCH   1  27
ATOM     23  C   UNL     1      -8.188   3.115 124.298  0.00  0.00    +0.000 A 
ATOM     24  C   UNL     1      -7.930   3.168 122.932  0.00  0.00    +0.000 A 
ATOM     25  C   UNL     1      -6.686   3.618 122.478  0.00  0.00    +0.000 A 
ATOM     26  C   UNL     1      -5.685   4.003 123.391  0.00  0.00    +0.000 A 
ATOM     27  C   UNL     1      -5.903   3.877 124.774  0.00  0.00    +0.000 A 
ATOM     28  C   UNL     1      -7.186   3.477 125.192  0.00  0.00    +0.000 A 
BRANCH  23  29
ATOM     29  O   UNL     1      -9.385   2.581 124.680  0.00  0.00    +0.000 OA
BRANCH  29  30
ATOM     30  C   UNL     1      -9.930   1.543 123.861  0.00  0.00    +0.000 C 
BRANCH  30  32
ATOM     31  N   UNL     1      -8.694  -0.570 123.490  0.00  0.00    +0.000 N 
ATOM     32  C   UNL     1      -9.456   0.181 124.371  0.00  0.00    +0.000 C 
ATOM     33  O   UNL     1      -9.740  -0.232 125.511  0.00  0.00    +0.000 OA
ATOM     34  H   UNL     1      -8.558  -0.247 122.539  0.00  0.00    +0.000 HD
BRANCH  31  36
ATOM     35  C   UNL     1      -9.052  -3.030 123.444  0.00  0.00    +0.000 C 
ATOM     36  C   UNL     1      -8.151  -1.873 123.883  0.00  0.00    +0.000 C 
ATOM     37  C   UNL     1      -6.758  -2.085 123.287  0.00  0.00    +0.000 C 
ENDBRANCH  31  36
ENDBRANCH  30  32
ENDBRANCH  29  30
ENDBRANCH  23  29
ENDBRANCH   1  27
TORSDOF 6
ENDMDL
MODEL 8
REMARK VINA RESULT:      -9.3      2.836      4.659
REMARK  Name = Belumosudil
REMARK  8 active torsions:
REMARK  status: ('A' for Active; 'I' for Inactive)
REMARK    1  A    between atoms: C_1  and  C_2
REMARK    2  A    between atoms: C_2  and  C_3
REMARK    3  A    between atoms: C_2  and  N_4
REMARK    4  A    between atoms: C_5  and  C_7
REMARK    5  A    between atoms: C_7  and  O_8
REMARK    6  A    between atoms: O_8  and  C_9
REMARK    7  A    between atoms: C_13  and  C_15
REMARK    8  A    between atoms: N_24  and  C_25
REMARK                            x       y       z     vdW  Elec       q    Type
REMARK                         _______ _______ _______ _____ _____    ______ ____
ROOT
ATOM      1  C   UNL     1      -7.893   1.479 127.820  0.00  0.00    +0.000 A 
ATOM      2  N   UNL     1      -8.808   1.475 126.870  0.00  0.00    +0.000 NA
ATOM      3  C   UNL     1      -8.416   0.892 125.746  0.00  0.00    +0.000 A 
ATOM      4  C   UNL     1      -7.178   0.997 125.161  0.00  0.00    +0.000 A 
ATOM      5  C   UNL     1      -7.080   0.511 123.782  0.00  0.00    +0.000 A 
ATOM      6  C   UNL     1      -7.972  -0.495 123.363  0.00  0.00    +0.000 A 
ATOM      7  C   UNL     1      -8.953  -0.912 124.249  0.00  0.00    +0.000 A 
ATOM      8  C   UNL     1      -9.196  -0.158 125.383  0.00  0.00    +0.000 A 
ATOM      9  C   UNL     1      -6.267   1.428 126.195  0.00  0.00    +0.000 A 
ATOM     10  N   UNL     1      -5.742   2.742 126.019  0.00  0.00    +0.000 N 
ATOM     11  N   UNL     1      -6.597   1.298 127.519  0.00  0.00    +0.000 NA
ATOM     12  H   UNL     1      -6.230   3.034 126.889  0.00  0.00    +0.000 HD
ENDROOT
BRANCH  10  13
ATOM     13  C   UNL     1      -4.567   3.471 126.358  0.00  0.00    +0.000 A 
ATOM     14  C   UNL     1      -3.296   2.919 126.574  0.00  0.00    +0.000 A 
ATOM     15  C   UNL     1      -2.328   3.626 127.320  0.00  0.00    +0.000 A 
ATOM     16  C   UNL     1      -2.651   4.927 127.728  0.00  0.00    +0.000 A 
ATOM     17  N   UNL     1      -1.939   5.887 128.397  0.00  0.00    +0.000 N 
ATOM     18  N   UNL     1      -2.631   7.017 128.641  0.00  0.00    +0.000 NA
ATOM     19  C   UNL     1      -3.828   6.766 128.107  0.00  0.00    +0.000 A 
ATOM     20  C   UNL     1      -3.886   5.507 127.481  0.00  0.00    +0.000 A 
ATOM     21  C   UNL     1      -4.852   4.776 126.790  0.00  0.00    +0.000 A 
ATOM     22  H   UNL     1      -0.972   5.841 128.698  0.00  0.00    +0.000 HD
ENDBRANCH  10  13
BRANCH   1  27
ATOM     23  C   UNL     1      -8.594   4.580 129.815  0.00  0.00    +0.000 A 
ATOM     24  C   UNL     1      -8.556   4.132 131.132  0.00  0.00    +0.000 A 
ATOM     25  C   UNL     1      -8.393   2.768 131.396  0.00  0.00    +0.000 A 
ATOM     26  C   UNL     1      -8.253   1.844 130.342  0.00  0.00    +0.000 A 
ATOM     27  C   UNL     1      -8.208   2.293 129.011  0.00  0.00    +0.000 A 
ATOM     28  C   UNL     1      -8.433   3.663 128.782  0.00  0.00    +0.000 A 
BRANCH  23  29
ATOM     29  O   UNL     1      -8.662   5.930 129.624  0.00  0.00    +0.000 OA
BRANCH  29  30
ATOM     30  C   UNL     1      -9.025   6.733 130.750  0.00  0.00    +0.000 C 
BRANCH  30  32
ATOM     31  N   UNL     1     -11.084   7.670 129.741  0.00  0.00    +0.000 N 
ATOM     32  C   UNL     1     -10.542   6.926 130.778  0.00  0.00    +0.000 C 
ATOM     33  O   UNL     1     -11.252   6.446 131.681  0.00  0.00    +0.000 OA
ATOM     34  H   UNL     1     -10.471   8.124 129.073  0.00  0.00    +0.000 HD
BRANCH  31  36
ATOM     35  C   UNL     1     -12.867   9.293 129.141  0.00  0.00    +0.000 C 
ATOM     36  C   UNL     1     -12.528   7.887 129.641  0.00  0.00    +0.000 C 
ATOM     37  C   UNL     1     -13.170   6.866 128.699  0.00  0.00    +0.000 C 
ENDBRANCH  31  36
ENDBRANCH  30  32
ENDBRANCH  29  30
ENDBRANCH  23  29
ENDBRANCH   1  27
TORSDOF 6
ENDMDL
MODEL 9
REMARK VINA RESULT:      -9.2      4.009      6.629
REMARK  Name = Belumosudil
REMARK  8 active torsions:
REMARK  status: ('A' for Active; 'I' for Inactive)
REMARK    1  A    between atoms: C_1  and  C_2
REMARK    2  A    between atoms: C_2  and  C_3
REMARK    3  A    between atoms: C_2  and  N_4
REMARK    4  A    between atoms: C_5  and  C_7
REMARK    5  A    between atoms: C_7  and  O_8
REMARK    6  A    between atoms: O_8  and  C_9
REMARK    7  A    between atoms: C_13  and  C_15
REMARK    8  A    between atoms: N_24  and  C_25
REMARK                            x       y       z     vdW  Elec       q    Type
REMARK                         _______ _______ _______ _____ _____    ______ ____
ROOT
ATOM      1  C   UNL     1      -7.346  -0.748 130.903  0.00  0.00    +0.000 A 
ATOM      2  N   UNL     1      -7.694  -1.770 131.660  0.00  0.00    +0.000 NA
ATOM      3  C   UNL     1      -6.930  -2.842 131.504  0.00  0.00    +0.000 A 
ATOM      4  C   UNL     1      -6.432  -3.324 130.318  0.00  0.00    +0.000 A 
ATOM      5  C   UNL     1      -5.871  -4.677 130.364  0.00  0.00    +0.000 A 
ATOM      6  C   UNL     1      -5.349  -5.142 131.586  0.00  0.00    +0.000 A 
ATOM      7  C   UNL     1      -5.471  -4.331 132.703  0.00  0.00    +0.000 A 
ATOM      8  C   UNL     1      -6.321  -3.241 132.650  0.00  0.00    +0.000 A 
ATOM      9  C   UNL     1      -6.472  -2.229 129.378  0.00  0.00    +0.000 A 
ATOM     10  N   UNL     1      -7.397  -2.395 128.305  0.00  0.00    +0.000 N 
ATOM     11  N   UNL     1      -6.584  -0.934 129.813  0.00  0.00    +0.000 NA
ATOM     12  H   UNL     1      -7.929  -1.577 128.662  0.00  0.00    +0.000 HD
ENDROOT
BRANCH  10  13
ATOM     13  C   UNL     1      -7.541  -1.978 126.952  0.00  0.00    +0.000 A 
ATOM     14  C   UNL     1      -7.426  -0.661 126.485  0.00  0.00    +0.000 A 
ATOM     15  C   UNL     1      -8.008  -0.286 125.255  0.00  0.00    +0.000 A 
ATOM     16  C   UNL     1      -8.595  -1.297 124.483  0.00  0.00    +0.000 A 
ATOM     17  N   UNL     1      -9.182  -1.290 123.245  0.00  0.00    +0.000 N 
ATOM     18  N   UNL     1      -9.672  -2.484 122.861  0.00  0.00    +0.000 NA
ATOM     19  C   UNL     1      -9.388  -3.281 123.893  0.00  0.00    +0.000 A 
ATOM     20  C   UNL     1      -8.675  -2.615 124.907  0.00  0.00    +0.000 A 
ATOM     21  C   UNL     1      -8.143  -2.960 126.150  0.00  0.00    +0.000 A 
ATOM     22  H   UNL     1      -9.261  -0.509 122.605  0.00  0.00    +0.000 HD
ENDBRANCH  10  13
BRANCH   1  27
ATOM     23  C   UNL     1      -8.975   2.389 129.641  0.00  0.00    +0.000 A 
ATOM     24  C   UNL     1      -9.771   2.792 130.709  0.00  0.00    +0.000 A 
ATOM     25  C   UNL     1      -9.868   1.982 131.846  0.00  0.00    +0.000 A 
ATOM     26  C   UNL     1      -9.155   0.770 131.926  0.00  0.00    +0.000 A 
ATOM     27  C   UNL     1      -8.285   0.391 130.890  0.00  0.00    +0.000 A 
ATOM     28  C   UNL     1      -8.258   1.201 129.740  0.00  0.00    +0.000 A 
BRANCH  23  29
ATOM     29  O   UNL     1      -8.849   3.264 128.601  0.00  0.00    +0.000 OA
BRANCH  29  30
ATOM     30  C   UNL     1      -7.756   4.186 128.650  0.00  0.00    +0.000 C 
BRANCH  30  32
ATOM     31  N   UNL     1      -5.538   3.576 127.733  0.00  0.00    +0.000 N 
ATOM     32  C   UNL     1      -6.838   3.961 127.447  0.00  0.00    +0.000 C 
ATOM     33  O   UNL     1      -7.233   4.116 126.276  0.00  0.00    +0.000 OA
ATOM     34  H   UNL     1      -5.221   3.548 128.696  0.00  0.00    +0.000 HD
BRANCH  31  36
ATOM     35  C   UNL     1      -3.139   3.591 127.083  0.00  0.00    +0.000 C 
ATOM     36  C   UNL     1      -4.580   3.293 126.662  0.00  0.00    +0.000 C 
ATOM     37  C   UNL     1      -4.668   1.830 126.223  0.00  0.00    +0.000 C 
ENDBRANCH  31  36
ENDBRANCH  30  32
ENDBRANCH  29  30
ENDBRANCH  23  29
ENDBRANCH   1  27
TORSDOF 6
ENDMDL
