MODEL 1
REMARK VINA RESULT:      -7.7      0.000      0.000
REMARK  Name = Belzutifan
REMARK  6 active torsions:
REMARK  status: ('A' for Active; 'I' for Inactive)
REMARK    1  A    between atoms: C_1  and  S_2
REMARK    2  A    between atoms: S_2  and  C_5
REMARK    3  A    between atoms: C_8  and  O_9
REMARK    4  A    between atoms: O_9  and  C_10
REMARK    5  A    between atoms: C_12  and  C_17
REMARK    6  A    between atoms: C_21  and  O_22
REMARK                            x       y       z     vdW  Elec       q    Type
REMARK                         _______ _______ _______ _____ _____    ______ ____
ROOT
ATOM      1  C   UNL     1      -7.979   1.025 124.763  0.00  0.00    +0.000 A 
ATOM      2  C   UNL     1      -7.251   1.344 125.929  0.00  0.00    +0.000 A 
ATOM      3  C   UNL     1      -6.418   0.413 126.554  0.00  0.00    +0.000 A 
ATOM      4  C   UNL     1      -6.288  -0.871 126.048  0.00  0.00    +0.000 A 
ATOM      5  C   UNL     1      -7.003  -1.172 124.879  0.00  0.00    +0.000 A 
ATOM      6  C   UNL     1      -7.858  -0.259 124.220  0.00  0.00    +0.000 A 
ATOM      7  C   UNL     1      -8.441  -0.900 122.971  0.00  0.00    +0.000 C 
ATOM      8  C   UNL     1      -7.866  -2.351 122.972  0.00  0.00    +0.000 C 
ATOM      9  F   UNL     1      -8.871  -3.269 123.058  0.00  0.00    +0.000 F 
ATOM     10  C   UNL     1      -6.943  -2.492 124.185  0.00  0.00    +0.000 C 
ATOM     11  F   UNL     1      -7.366  -3.500 124.992  0.00  0.00    +0.000 F 
ENDROOT
BRANCH   1  13
ATOM     12  C   UNL     1      -8.162   2.791 122.538  0.00  0.00    +0.000 C 
ATOM     13  S   UNL     1      -8.965   2.343 124.066  0.00  0.00    +0.000 S 
ATOM     14  O   UNL     1      -8.876   3.498 124.929  0.00  0.00    +0.000 OA
ATOM     15  O   UNL     1     -10.250   1.752 123.740  0.00  0.00    +0.000 OA
ENDBRANCH   1  13
BRANCH   7  16
ATOM     16  O   UNL     1      -9.861  -0.934 122.957  0.00  0.00    +0.000 OA
ATOM     17  H   UNL     1     -10.180  -1.391 123.751  0.00  0.00    +0.000 HD
ENDBRANCH   7  16
BRANCH   4  18
ATOM     18  O   UNL     1      -5.464  -1.843 126.589  0.00  0.00    +0.000 OA
BRANCH  18  19
ATOM     19  C   UNL     1      -5.789  -2.421 127.803  0.00  0.00    +0.000 A 
ATOM     20  C   UNL     1      -4.754  -2.701 128.705  0.00  0.00    +0.000 A 
ATOM     21  C   UNL     1      -5.041  -3.274 129.957  0.00  0.00    +0.000 A 
ATOM     22  C   UNL     1      -6.362  -3.564 130.302  0.00  0.00    +0.000 A 
ATOM     23  C   UNL     1      -7.376  -3.308 129.387  0.00  0.00    +0.000 A 
ATOM     24  F   UNL     1      -8.645  -3.567 129.726  0.00  0.00    +0.000 F 
ATOM     25  C   UNL     1      -7.100  -2.771 128.133  0.00  0.00    +0.000 A 
BRANCH  21  26
ATOM     26  C   UNL     1      -3.991  -3.559 130.890  0.00  0.00    +0.000 C 
ATOM     27  N   UNL     1      -3.150  -3.796 131.660  0.00  0.00    +0.000 NA
ENDBRANCH  21  26
ENDBRANCH  18  19
ENDBRANCH   4  18
TORSDOF 5
ENDMDL
MODEL 2
REMARK VINA RESULT:      -7.7      2.343      3.173
REMARK  Name = Belzutifan
REMARK  6 active torsions:
REMARK  status: ('A' for Active; 'I' for Inactive)
REMARK    1  A    between atoms: C_1  and  S_2
REMARK    2  A    between atoms: S_2  and  C_5
REMARK    3  A    between atoms: C_8  and  O_9
REMARK    4  A    between atoms: O_9  and  C_10
REMARK    5  A    between atoms: C_12  and  C_17
REMARK    6  A    between atoms: C_21  and  O_22
REMARK                            x       y       z     vdW  Elec       q    Type
REMARK                         _______ _______ _______ _____ _____    ______ ____
ROOT
ATOM      1  C   UNL     1      -6.068   2.403 125.471  0.00  0.00    +0.000 A 
ATOM      2  C   UNL     1      -5.144   1.506 126.048  0.00  0.00    +0.000 A 
ATOM      3  C   UNL     1      -5.391   0.132 126.107  0.00  0.00    +0.000 A 
ATOM      4  C   UNL     1      -6.570  -0.397 125.605  0.00  0.00    +0.000 A 
ATOM      5  C   UNL     1      -7.474   0.502 125.017  0.00  0.00    +0.000 A 
ATOM      6  C   UNL     1      -7.262   1.897 124.941  0.00  0.00    +0.000 A 
ATOM      7  C   UNL     1      -8.419   2.561 124.214  0.00  0.00    +0.000 C 
ATOM      8  C   UNL     1      -9.399   1.390 123.890  0.00  0.00    +0.000 C 
ATOM      9  F   UNL     1     -10.601   1.581 124.507  0.00  0.00    +0.000 F 
ATOM     10  C   UNL     1      -8.767   0.091 124.396  0.00  0.00    +0.000 C 
ATOM     11  F   UNL     1      -9.583  -0.517 125.296  0.00  0.00    +0.000 F 
ENDROOT
BRANCH   1  13
ATOM     12  C   UNL     1      -4.051   4.208 126.350  0.00  0.00    +0.000 C 
ATOM     13  S   UNL     1      -5.581   4.122 125.438  0.00  0.00    +0.000 S 
ATOM     14  O   UNL     1      -6.546   4.894 126.185  0.00  0.00    +0.000 OA
ATOM     15  O   UNL     1      -5.292   4.430 124.049  0.00  0.00    +0.000 OA
ENDBRANCH   1  13
BRANCH   7  16
ATOM     16  O   UNL     1      -9.080   3.557 124.981  0.00  0.00    +0.000 OA
ATOM     17  H   UNL     1      -8.948   4.425 124.566  0.00  0.00    +0.000 HD
ENDBRANCH   7  16
BRANCH   4  18
ATOM     18  O   UNL     1      -6.879  -1.746 125.598  0.00  0.00    +0.000 OA
BRANCH  18  19
ATOM     19  C   UNL     1      -7.270  -2.366 126.771  0.00  0.00    +0.000 A 
ATOM     20  C   UNL     1      -6.457  -2.221 127.903  0.00  0.00    +0.000 A 
ATOM     21  C   UNL     1      -6.824  -2.821 129.122  0.00  0.00    +0.000 A 
ATOM     22  C   UNL     1      -8.005  -3.563 129.202  0.00  0.00    +0.000 A 
ATOM     23  C   UNL     1      -8.787  -3.723 128.065  0.00  0.00    +0.000 A 
ATOM     24  F   UNL     1      -9.929  -4.416 128.147  0.00  0.00    +0.000 F 
ATOM     25  C   UNL     1      -8.417  -3.160 126.847  0.00  0.00    +0.000 A 
BRANCH  21  26
ATOM     26  C   UNL     1      -6.004  -2.676 130.286  0.00  0.00    +0.000 C 
ATOM     27  N   UNL     1      -5.337  -2.575 131.236  0.00  0.00    +0.000 NA
ENDBRANCH  21  26
ENDBRANCH  18  19
ENDBRANCH   4  18
TORSDOF 5
ENDMDL
MODEL 3
REMARK VINA RESULT:      -7.7      8.535     10.891
REMARK  Name = Belzutifan
REMARK  6 active torsions:
REMARK  status: ('A' for Active; 'I' for Inactive)
REMARK    1  A    between atoms: C_1  and  S_2
REMARK    2  A    between atoms: S_2  and  C_5
REMARK    3  A    between atoms: C_8  and  O_9
REMARK    4  A    between atoms: O_9  and  C_10
REMARK    5  A    between atoms: C_12  and  C_17
REMARK    6  A    between atoms: C_21  and  O_22
REMARK                            x       y       z     vdW  Elec       q    Type
REMARK                         _______ _______ _______ _____ _____    ______ ____
ROOT
ATOM      1  C   UNL     1      -7.031   5.553 131.058  0.00  0.00    +0.000 A 
ATOM      2  C   UNL     1      -7.619   6.832 130.966  0.00  0.00    +0.000 A 
ATOM      3  C   UNL     1      -9.004   7.006 130.940  0.00  0.00    +0.000 A 
ATOM      4  C   UNL     1      -9.854   5.912 130.992  0.00  0.00    +0.000 A 
ATOM      5  C   UNL     1      -9.260   4.646 131.100  0.00  0.00    +0.000 A 
ATOM      6  C   UNL     1      -7.864   4.429 131.126  0.00  0.00    +0.000 A 
ATOM      7  C   UNL     1      -7.569   2.947 131.286  0.00  0.00    +0.000 C 
ATOM      8  C   UNL     1      -8.975   2.270 131.308  0.00  0.00    +0.000 C 
ATOM      9  F   UNL     1      -9.114   1.409 130.259  0.00  0.00    +0.000 F 
ATOM     10  C   UNL     1     -10.032   3.373 131.205  0.00  0.00    +0.000 C 
ATOM     11  F   UNL     1     -10.822   3.176 130.118  0.00  0.00    +0.000 F 
ENDROOT
BRANCH   1  13
ATOM     12  C   UNL     1      -4.709   7.179 130.801  0.00  0.00    +0.000 C 
ATOM     13  S   UNL     1      -5.246   5.509 131.122  0.00  0.00    +0.000 S 
ATOM     14  O   UNL     1      -4.759   4.705 130.025  0.00  0.00    +0.000 OA
ATOM     15  O   UNL     1      -4.902   5.185 132.495  0.00  0.00    +0.000 OA
ENDBRANCH   1  13
BRANCH   7  16
ATOM     16  O   UNL     1      -6.780   2.406 130.236  0.00  0.00    +0.000 OA
ATOM     17  H   UNL     1      -7.101   1.517 130.016  0.00  0.00    +0.000 HD
ENDBRANCH   7  16
BRANCH   4  18
ATOM     18  O   UNL     1     -11.236   5.998 130.999  0.00  0.00    +0.000 OA
BRANCH  18  19
ATOM     19  C   UNL     1     -11.878   6.802 130.075  0.00  0.00    +0.000 A 
ATOM     20  C   UNL     1     -12.250   8.096 130.463  0.00  0.00    +0.000 A 
ATOM     21  C   UNL     1     -12.892   8.953 129.550  0.00  0.00    +0.000 A 
ATOM     22  C   UNL     1     -13.158   8.512 128.252  0.00  0.00    +0.000 A 
ATOM     23  C   UNL     1     -12.810   7.216 127.889  0.00  0.00    +0.000 A 
ATOM     24  F   UNL     1     -13.047   6.800 126.639  0.00  0.00    +0.000 F 
ATOM     25  C   UNL     1     -12.205   6.349 128.794  0.00  0.00    +0.000 A 
BRANCH  21  26
ATOM     26  C   UNL     1     -13.271  10.280 129.933  0.00  0.00    +0.000 C 
ATOM     27  N   UNL     1     -13.576  11.365 130.228  0.00  0.00    +0.000 NA
ENDBRANCH  21  26
ENDBRANCH  18  19
ENDBRANCH   4  18
TORSDOF 5
ENDMDL
MODEL 4
REMARK VINA RESULT:      -7.4      8.280     10.738
REMARK  Name = Belzutifan
REMARK  6 active torsions:
REMARK  status: ('A' for Active; 'I' for Inactive)
REMARK    1  A    between atoms: C_1  and  S_2
REMARK    2  A    between atoms: S_2  and  C_5
REMARK    3  A    between atoms: C_8  and  O_9
REMARK    4  A    between atoms: O_9  and  C_10
REMARK    5  A    between atoms: C_12  and  C_17
REMARK    6  A    between atoms: C_21  and  O_22
REMARK                            x       y       z     vdW  Elec       q    Type
REMARK                         _______ _______ _______ _____ _____    ______ ____
ROOT
ATOM      1  C   UNL     1      -6.790   5.228 131.539  0.00  0.00    +0.000 A 
ATOM      2  C   UNL     1      -7.294   6.539 131.400  0.00  0.00    +0.000 A 
ATOM      3  C   UNL     1      -8.654   6.787 131.202  0.00  0.00    +0.000 A 
ATOM      4  C   UNL     1      -9.560   5.740 131.123  0.00  0.00    +0.000 A 
ATOM      5  C   UNL     1      -9.051   4.442 131.280  0.00  0.00    +0.000 A 
ATOM      6  C   UNL     1      -7.682   4.150 131.479  0.00  0.00    +0.000 A 
ATOM      7  C   UNL     1      -7.487   2.652 131.644  0.00  0.00    +0.000 C 
ATOM      8  C   UNL     1      -8.918   2.052 131.474  0.00  0.00    +0.000 C 
ATOM      9  F   UNL     1      -8.967   1.214 130.399  0.00  0.00    +0.000 F 
ATOM     10  C   UNL     1      -9.895   3.211 131.260  0.00  0.00    +0.000 C 
ATOM     11  F   UNL     1     -10.549   3.072 130.078  0.00  0.00    +0.000 F 
ENDROOT
BRANCH   1  13
ATOM     12  C   UNL     1      -4.866   4.202 133.368  0.00  0.00    +0.000 C 
ATOM     13  S   UNL     1      -5.033   5.087 131.829  0.00  0.00    +0.000 S 
ATOM     14  O   UNL     1      -4.490   6.406 132.055  0.00  0.00    +0.000 OA
ATOM     15  O   UNL     1      -4.519   4.240 130.768  0.00  0.00    +0.000 OA
ENDBRANCH   1  13
BRANCH   7  16
ATOM     16  O   UNL     1      -6.600   2.083 130.692  0.00  0.00    +0.000 OA
ATOM     17  H   UNL     1      -5.944   1.534 131.150  0.00  0.00    +0.000 HD
ENDBRANCH   7  16
BRANCH   4  18
ATOM     18  O   UNL     1     -10.925   5.901 130.958  0.00  0.00    +0.000 OA
BRANCH  18  19
ATOM     19  C   UNL     1     -11.402   6.906 130.136  0.00  0.00    +0.000 A 
ATOM     20  C   UNL     1     -11.022   6.900 128.787  0.00  0.00    +0.000 A 
ATOM     21  C   UNL     1     -11.496   7.894 127.912  0.00  0.00    +0.000 A 
ATOM     22  C   UNL     1     -12.351   8.890 128.390  0.00  0.00    +0.000 A 
ATOM     23  C   UNL     1     -12.696   8.901 129.736  0.00  0.00    +0.000 A 
ATOM     24  F   UNL     1     -13.531   9.844 130.190  0.00  0.00    +0.000 F 
ATOM     25  C   UNL     1     -12.207   7.941 130.617  0.00  0.00    +0.000 A 
BRANCH  21  26
ATOM     26  C   UNL     1     -11.119   7.894 126.531  0.00  0.00    +0.000 C 
ATOM     27  N   UNL     1     -10.829   7.890 125.402  0.00  0.00    +0.000 NA
ENDBRANCH  21  26
ENDBRANCH  18  19
ENDBRANCH   4  18
TORSDOF 5
ENDMDL
MODEL 5
REMARK VINA RESULT:      -7.3      1.940      2.221
REMARK  Name = Belzutifan
REMARK  6 active torsions:
REMARK  status: ('A' for Active; 'I' for Inactive)
REMARK    1  A    between atoms: C_1  and  S_2
REMARK    2  A    between atoms: S_2  and  C_5
REMARK    3  A    between atoms: C_8  and  O_9
REMARK    4  A    between atoms: O_9  and  C_10
REMARK    5  A    between atoms: C_12  and  C_17
REMARK    6  A    between atoms: C_21  and  O_22
REMARK                            x       y       z     vdW  Elec       q    Type
REMARK                         _______ _______ _______ _____ _____    ______ ____
ROOT
ATOM      1  C   UNL     1      -8.629   0.797 125.042  0.00  0.00    +0.000 A 
ATOM      2  C   UNL     1      -8.374   0.956 126.421  0.00  0.00    +0.000 A 
ATOM      3  C   UNL     1      -8.239  -0.139 127.276  0.00  0.00    +0.000 A 
ATOM      4  C   UNL     1      -8.365  -1.433 126.793  0.00  0.00    +0.000 A 
ATOM      5  C   UNL     1      -8.601  -1.581 125.418  0.00  0.00    +0.000 A 
ATOM      6  C   UNL     1      -8.747  -0.498 124.521  0.00  0.00    +0.000 A 
ATOM      7  C   UNL     1      -8.956  -1.016 123.108  0.00  0.00    +0.000 C 
ATOM      8  C   UNL     1      -8.966  -2.569 123.259  0.00  0.00    +0.000 C 
ATOM      9  F   UNL     1     -10.168  -3.085 122.871  0.00  0.00    +0.000 F 
ATOM     10  C   UNL     1      -8.723  -2.902 124.734  0.00  0.00    +0.000 C 
ATOM     11  F   UNL     1      -9.753  -3.631 125.235  0.00  0.00    +0.000 F 
ENDROOT
BRANCH   1  13
ATOM     12  C   UNL     1      -7.136   2.487 123.305  0.00  0.00    +0.000 C 
ATOM     13  S   UNL     1      -8.731   2.300 124.081  0.00  0.00    +0.000 S 
ATOM     14  O   UNL     1      -8.882   3.419 124.981  0.00  0.00    +0.000 OA
ATOM     15  O   UNL     1      -9.708   2.043 123.039  0.00  0.00    +0.000 OA
ENDBRANCH   1  13
BRANCH   7  16
ATOM     16  O   UNL     1     -10.166  -0.572 122.511  0.00  0.00    +0.000 OA
ATOM     17  H   UNL     1     -10.904  -1.111 122.837  0.00  0.00    +0.000 HD
ENDBRANCH   7  16
BRANCH   4  18
ATOM     18  O   UNL     1      -8.218  -2.572 127.566  0.00  0.00    +0.000 OA
BRANCH  18  19
ATOM     19  C   UNL     1      -7.255  -2.608 128.558  0.00  0.00    +0.000 A 
ATOM     20  C   UNL     1      -7.677  -2.723 129.890  0.00  0.00    +0.000 A 
ATOM     21  C   UNL     1      -6.732  -2.779 130.931  0.00  0.00    +0.000 A 
ATOM     22  C   UNL     1      -5.368  -2.720 130.634  0.00  0.00    +0.000 A 
ATOM     23  C   UNL     1      -4.965  -2.576 129.313  0.00  0.00    +0.000 A 
ATOM     24  F   UNL     1      -3.658  -2.540 129.026  0.00  0.00    +0.000 F 
ATOM     25  C   UNL     1      -5.892  -2.488 128.278  0.00  0.00    +0.000 A 
BRANCH  21  26
ATOM     26  C   UNL     1      -7.150  -2.902 132.295  0.00  0.00    +0.000 C 
ATOM     27  N   UNL     1      -7.490  -3.021 133.403  0.00  0.00    +0.000 NA
ENDBRANCH  21  26
ENDBRANCH  18  19
ENDBRANCH   4  18
TORSDOF 5
ENDMDL
MODEL 6
REMARK VINA RESULT:      -7.3      7.133      8.946
REMARK  Name = Belzutifan
REMARK  6 active torsions:
REMARK  status: ('A' for Active; 'I' for Inactive)
REMARK    1  A    between atoms: C_1  and  S_2
REMARK    2  A    between atoms: S_2  and  C_5
REMARK    3  A    between atoms: C_8  and  O_9
REMARK    4  A    between atoms: O_9  and  C_10
REMARK    5  A    between atoms: C_12  and  C_17
REMARK    6  A    between atoms: C_21  and  O_22
REMARK                            x       y       z     vdW  Elec       q    Type
REMARK                         _______ _______ _______ _____ _____    ______ ____
ROOT
ATOM      1  C   UNL     1      -9.834   5.886 130.635  0.00  0.00    +0.000 A 
ATOM      2  C   UNL     1      -8.970   6.971 130.895  0.00  0.00    +0.000 A 
ATOM      3  C   UNL     1      -7.598   6.792 131.084  0.00  0.00    +0.000 A 
ATOM      4  C   UNL     1      -7.038   5.525 131.033  0.00  0.00    +0.000 A 
ATOM      5  C   UNL     1      -7.902   4.454 130.757  0.00  0.00    +0.000 A 
ATOM      6  C   UNL     1      -9.295   4.595 130.564  0.00  0.00    +0.000 A 
ATOM      7  C   UNL     1      -9.917   3.244 130.251  0.00  0.00    +0.000 C 
ATOM      8  C   UNL     1      -8.724   2.239 130.323  0.00  0.00    +0.000 C 
ATOM      9  F   UNL     1      -8.929   1.316 131.306  0.00  0.00    +0.000 F 
ATOM     10  C   UNL     1      -7.454   3.037 130.630  0.00  0.00    +0.000 C 
ATOM     11  F   UNL     1      -6.876   2.590 131.776  0.00  0.00    +0.000 F 
ENDROOT
BRANCH   1  13
ATOM     12  C   UNL     1     -11.563   7.932 129.674  0.00  0.00    +0.000 C 
ATOM     13  S   UNL     1     -11.554   6.292 130.376  0.00  0.00    +0.000 S 
ATOM     14  O   UNL     1     -12.207   6.395 131.661  0.00  0.00    +0.000 OA
ATOM     15  O   UNL     1     -12.036   5.370 129.365  0.00  0.00    +0.000 OA
ENDBRANCH   1  13
BRANCH   7  16
ATOM     16  O   UNL     1     -10.938   2.861 131.162  0.00  0.00    +0.000 OA
ATOM     17  H   UNL     1     -11.328   3.655 131.562  0.00  0.00    +0.000 HD
ENDBRANCH   7  16
BRANCH   4  18
ATOM     18  O   UNL     1      -5.686   5.263 131.181  0.00  0.00    +0.000 OA
BRANCH  18  19
ATOM     19  C   UNL     1      -4.794   5.705 130.221  0.00  0.00    +0.000 A 
ATOM     20  C   UNL     1      -4.119   4.748 129.451  0.00  0.00    +0.000 A 
ATOM     21  C   UNL     1      -3.213   5.152 128.453  0.00  0.00    +0.000 A 
ATOM     22  C   UNL     1      -2.987   6.512 128.230  0.00  0.00    +0.000 A 
ATOM     23  C   UNL     1      -3.640   7.449 129.020  0.00  0.00    +0.000 A 
ATOM     24  F   UNL     1      -3.439   8.753 128.793  0.00  0.00    +0.000 F 
ATOM     25  C   UNL     1      -4.514   7.060 130.032  0.00  0.00    +0.000 A 
BRANCH  21  26
ATOM     26  C   UNL     1      -2.522   4.184 127.655  0.00  0.00    +0.000 C 
ATOM     27  N   UNL     1      -1.975   3.394 126.996  0.00  0.00    +0.000 NA
ENDBRANCH  21  26
ENDBRANCH  18  19
ENDBRANCH   4  18
TORSDOF 5
ENDMDL
MODEL 7
REMARK VINA RESULT:      -7.2      7.879     10.068
REMARK  Name = Belzutifan
REMARK  6 active torsions:
REMARK  status: ('A' for Active; 'I' for Inactive)
REMARK    1  A    between atoms: C_1  and  S_2
REMARK    2  A    between atoms: S_2  and  C_5
REMARK    3  A    between atoms: C_8  and  O_9
REMARK    4  A    between atoms: O_9  and  C_10
REMARK    5  A    between atoms: C_12  and  C_17
REMARK    6  A    between atoms: C_21  and  O_22
REMARK                            x       y       z     vdW  Elec       q    Type
REMARK                         _______ _______ _______ _____ _____    ______ ____
ROOT
ATOM      1  C   UNL     1      -5.138   5.955 130.484  0.00  0.00    +0.000 A 
ATOM      2  C   UNL     1      -5.974   6.864 131.166  0.00  0.00    +0.000 A 
ATOM      3  C   UNL     1      -7.355   6.671 131.253  0.00  0.00    +0.000 A 
ATOM      4  C   UNL     1      -7.954   5.572 130.656  0.00  0.00    +0.000 A 
ATOM      5  C   UNL     1      -7.111   4.666 129.995  0.00  0.00    +0.000 A 
ATOM      6  C   UNL     1      -5.711   4.828 129.883  0.00  0.00    +0.000 A 
ATOM      7  C   UNL     1      -5.108   3.648 129.138  0.00  0.00    +0.000 C 
ATOM      8  C   UNL     1      -6.332   2.755 128.765  0.00  0.00    +0.000 C 
ATOM      9  F   UNL     1      -6.453   2.643 127.411  0.00  0.00    +0.000 F 
ATOM     10  C   UNL     1      -7.590   3.416 129.335  0.00  0.00    +0.000 C 
ATOM     11  F   UNL     1      -8.479   3.684 128.344  0.00  0.00    +0.000 F 
ENDROOT
BRANCH   1  13
ATOM     12  C   UNL     1      -3.245   7.929 131.274  0.00  0.00    +0.000 C 
ATOM     13  S   UNL     1      -3.390   6.327 130.502  0.00  0.00    +0.000 S 
ATOM     14  O   UNL     1      -2.933   6.486 129.141  0.00  0.00    +0.000 OA
ATOM     15  O   UNL     1      -2.781   5.349 131.385  0.00  0.00    +0.000 OA
ENDBRANCH   1  13
BRANCH   7  16
ATOM     16  O   UNL     1      -4.393   4.017 127.967  0.00  0.00    +0.000 OA
ATOM     17  H   UNL     1      -3.502   4.314 128.213  0.00  0.00    +0.000 HD
ENDBRANCH   7  16
BRANCH   4  18
ATOM     18  O   UNL     1      -9.308   5.292 130.719  0.00  0.00    +0.000 OA
BRANCH  18  19
ATOM     19  C   UNL     1     -10.218   6.181 130.176  0.00  0.00    +0.000 A 
ATOM     20  C   UNL     1     -10.115   6.489 128.813  0.00  0.00    +0.000 A 
ATOM     21  C   UNL     1     -11.029   7.376 128.215  0.00  0.00    +0.000 A 
ATOM     22  C   UNL     1     -12.043   7.951 128.984  0.00  0.00    +0.000 A 
ATOM     23  C   UNL     1     -12.116   7.660 130.341  0.00  0.00    +0.000 A 
ATOM     24  F   UNL     1     -13.100   8.195 131.074  0.00  0.00    +0.000 F 
ATOM     25  C   UNL     1     -11.198   6.809 130.949  0.00  0.00    +0.000 A 
BRANCH  21  26
ATOM     26  C   UNL     1     -10.938   7.693 126.821  0.00  0.00    +0.000 C 
ATOM     27  N   UNL     1     -10.878   7.943 125.685  0.00  0.00    +0.000 NA
ENDBRANCH  21  26
ENDBRANCH  18  19
ENDBRANCH   4  18
TORSDOF 5
ENDMDL
MODEL 8
REMARK VINA RESULT:      -7.1      8.218     10.833
REMARK  Name = Belzutifan
REMARK  6 active torsions:
REMARK  status: ('A' for Active; 'I' for Inactive)
REMARK    1  A    between atoms: C_1  and  S_2
REMARK    2  A    between atoms: S_2  and  C_5
REMARK    3  A    between atoms: C_8  and  O_9
REMARK    4  A    between atoms: O_9  and  C_10
REMARK    5  A    between atoms: C_12  and  C_17
REMARK    6  A    between atoms: C_21  and  O_22
REMARK                            x       y       z     vdW  Elec       q    Type
REMARK                         _______ _______ _______ _____ _____    ______ ____
ROOT
ATOM      1  C   UNL     1      -8.429   2.995 130.185  0.00  0.00    +0.000 A 
ATOM      2  C   UNL     1      -9.791   2.739 129.922  0.00  0.00    +0.000 A 
ATOM      3  C   UNL     1     -10.795   3.633 130.301  0.00  0.00    +0.000 A 
ATOM      4  C   UNL     1     -10.481   4.808 130.964  0.00  0.00    +0.000 A 
ATOM      5  C   UNL     1      -9.122   5.062 131.206  0.00  0.00    +0.000 A 
ATOM      6  C   UNL     1      -8.078   4.181 130.842  0.00  0.00    +0.000 A 
ATOM      7  C   UNL     1      -6.734   4.781 131.219  0.00  0.00    +0.000 C 
ATOM      8  C   UNL     1      -7.091   6.135 131.909  0.00  0.00    +0.000 C 
ATOM      9  F   UNL     1      -6.665   6.144 133.205  0.00  0.00    +0.000 F 
ATOM     10  C   UNL     1      -8.613   6.296 131.873  0.00  0.00    +0.000 C 
ATOM     11  F   UNL     1      -9.109   6.425 133.131  0.00  0.00    +0.000 F 
ENDROOT
BRANCH   1  13
ATOM     12  C   UNL     1      -6.246   2.606 128.400  0.00  0.00    +0.000 C 
ATOM     13  S   UNL     1      -7.269   1.769 129.597  0.00  0.00    +0.000 S 
ATOM     14  O   UNL     1      -7.994   0.750 128.875  0.00  0.00    +0.000 OA
ATOM     15  O   UNL     1      -6.436   1.428 130.736  0.00  0.00    +0.000 OA
ENDBRANCH   1  13
BRANCH   7  16
ATOM     16  O   UNL     1      -5.972   3.967 132.099  0.00  0.00    +0.000 OA
ATOM     17  H   UNL     1      -5.029   4.162 131.983  0.00  0.00    +0.000 HD
ENDBRANCH   7  16
BRANCH   4  18
ATOM     18  O   UNL     1     -11.410   5.760 131.349  0.00  0.00    +0.000 OA
BRANCH  18  19
ATOM     19  C   UNL     1     -11.724   6.797 130.490  0.00  0.00    +0.000 A 
ATOM     20  C   UNL     1     -11.296   6.711 129.158  0.00  0.00    +0.000 A 
ATOM     21  C   UNL     1     -11.607   7.737 128.246  0.00  0.00    +0.000 A 
ATOM     22  C   UNL     1     -12.345   8.844 128.670  0.00  0.00    +0.000 A 
ATOM     23  C   UNL     1     -12.738   8.930 130.000  0.00  0.00    +0.000 A 
ATOM     24  F   UNL     1     -13.463   9.981 130.402  0.00  0.00    +0.000 F 
ATOM     25  C   UNL     1     -12.409   7.937 130.918  0.00  0.00    +0.000 A 
BRANCH  21  26
ATOM     26  C   UNL     1     -11.180   7.656 126.881  0.00  0.00    +0.000 C 
ATOM     27  N   UNL     1     -10.830   7.574 125.773  0.00  0.00    +0.000 NA
ENDBRANCH  21  26
ENDBRANCH  18  19
ENDBRANCH   4  18
TORSDOF 5
ENDMDL
MODEL 9
REMARK VINA RESULT:      -7.1      3.306      4.905
REMARK  Name = Belzutifan
REMARK  6 active torsions:
REMARK  status: ('A' for Active; 'I' for Inactive)
REMARK    1  A    between atoms: C_1  and  S_2
REMARK    2  A    between atoms: S_2  and  C_5
REMARK    3  A    between atoms: C_8  and  O_9
REMARK    4  A    between atoms: O_9  and  C_10
REMARK    5  A    between atoms: C_12  and  C_17
REMARK    6  A    between atoms: C_21  and  O_22
REMARK                            x       y       z     vdW  Elec       q    Type
REMARK                         _______ _______ _______ _____ _____    ______ ____
ROOT
ATOM      1  C   UNL     1      -6.023   2.691 126.571  0.00  0.00    +0.000 A 
ATOM      2  C   UNL     1      -5.600   1.461 127.118  0.00  0.00    +0.000 A 
ATOM      3  C   UNL     1      -5.692   0.266 126.402  0.00  0.00    +0.000 A 
ATOM      4  C   UNL     1      -6.218   0.250 125.119  0.00  0.00    +0.000 A 
ATOM      5  C   UNL     1      -6.619   1.481 124.577  0.00  0.00    +0.000 A 
ATOM      6  C   UNL     1      -6.545   2.710 125.272  0.00  0.00    +0.000 A 
ATOM      7  C   UNL     1      -7.026   3.842 124.380  0.00  0.00    +0.000 C 
ATOM      8  C   UNL     1      -7.452   3.139 123.052  0.00  0.00    +0.000 C 
ATOM      9  F   UNL     1      -8.782   3.327 122.811  0.00  0.00    +0.000 F 
ATOM     10  C   UNL     1      -7.168   1.642 123.199  0.00  0.00    +0.000 C 
ATOM     11  F   UNL     1      -8.306   0.921 123.027  0.00  0.00    +0.000 F 
ENDROOT
BRANCH   1  13
ATOM     12  C   UNL     1      -4.576   5.134 126.777  0.00  0.00    +0.000 C 
ATOM     13  S   UNL     1      -5.798   4.132 127.604  0.00  0.00    +0.000 S 
ATOM     14  O   UNL     1      -5.208   3.719 128.856  0.00  0.00    +0.000 OA
ATOM     15  O   UNL     1      -7.059   4.848 127.572  0.00  0.00    +0.000 OA
ENDBRANCH   1  13
BRANCH   7  16
ATOM     16  O   UNL     1      -8.118   4.571 124.922  0.00  0.00    +0.000 OA
ATOM     17  H   UNL     1      -8.314   5.331 124.352  0.00  0.00    +0.000 HD
ENDBRANCH   7  16
BRANCH   4  18
ATOM     18  O   UNL     1      -6.318  -0.884 124.331  0.00  0.00    +0.000 OA
BRANCH  18  19
ATOM     19  C   UNL     1      -7.338  -1.790 124.559  0.00  0.00    +0.000 A 
ATOM     20  C   UNL     1      -7.553  -2.233 125.871  0.00  0.00    +0.000 A 
ATOM     21  C   UNL     1      -8.589  -3.143 126.152  0.00  0.00    +0.000 A 
ATOM     22  C   UNL     1      -9.407  -3.604 125.118  0.00  0.00    +0.000 A 
ATOM     23  C   UNL     1      -9.165  -3.179 123.817  0.00  0.00    +0.000 A 
ATOM     24  F   UNL     1      -9.961  -3.605 122.829  0.00  0.00    +0.000 F 
ATOM     25  C   UNL     1      -8.122  -2.305 123.524  0.00  0.00    +0.000 A 
BRANCH  21  26
ATOM     26  C   UNL     1      -8.822  -3.598 127.489  0.00  0.00    +0.000 C 
ATOM     27  N   UNL     1      -9.025  -3.958 128.579  0.00  0.00    +0.000 NA
ENDBRANCH  21  26
ENDBRANCH  18  19
ENDBRANCH   4  18
TORSDOF 5
ENDMDL
