MODEL 1
REMARK VINA RESULT:      -8.1      0.000      0.000
REMARK  Name = Bemotrizinol
REMARK  25 active torsions:
REMARK  status: ('A' for Active; 'I' for Inactive)
REMARK    1  A    between atoms: C_1  and  C_2
REMARK    2  A    between atoms: C_2  and  C_3
REMARK    3  A    between atoms: C_3  and  C_4
REMARK    4  A    between atoms: C_4  and  C_5
REMARK    5  A    between atoms: C_5  and  C_6
REMARK    6  A    between atoms: C_5  and  C_8
REMARK    7  A    between atoms: C_6  and  C_7
REMARK    8  A    between atoms: C_8  and  O_9
REMARK    9  A    between atoms: O_9  and  C_10
REMARK   10  A    between atoms: C_12  and  O_13
REMARK   11  A    between atoms: C_14  and  C_17
REMARK   12  A    between atoms: C_19  and  C_31
REMARK   13  A    between atoms: C_21  and  C_23
REMARK   14  A    between atoms: C_26  and  O_27
REMARK   15  A    between atoms: O_27  and  C_28
REMARK   16  A    between atoms: C_32  and  O_33
REMARK   17  A    between atoms: C_35  and  O_36
REMARK   18  A    between atoms: O_36  and  C_37
REMARK   19  A    between atoms: C_37  and  C_38
REMARK   20  A    between atoms: C_38  and  C_39
REMARK   21  A    between atoms: C_38  and  C_41
REMARK   22  A    between atoms: C_39  and  C_40
REMARK   23  A    between atoms: C_41  and  C_42
REMARK   24  A    between atoms: C_42  and  C_43
REMARK   25  A    between atoms: C_43  and  C_44
REMARK                            x       y       z     vdW  Elec       q    Type
REMARK                         _______ _______ _______ _____ _____    ______ ____
ROOT
ATOM      1  C   UNL     1      -6.404   1.228 125.391  0.00  0.00    +0.000 A 
ATOM      2  N   UNL     1      -5.556   1.947 126.124  0.00  0.00    +0.000 NA
ATOM      3  C   UNL     1      -5.166   3.092 125.592  0.00  0.00    +0.000 A 
ATOM      4  N   UNL     1      -5.537   3.546 124.395  0.00  0.00    +0.000 NA
ATOM      5  C   UNL     1      -6.395   2.750 123.753  0.00  0.00    +0.000 A 
ATOM      6  N   UNL     1      -6.894   1.603 124.207  0.00  0.00    +0.000 NA
ENDROOT
BRANCH   3   7
ATOM      7  C   UNL     1      -4.293   3.915 126.417  0.00  0.00    +0.000 A 
ATOM      8  C   UNL     1      -3.023   3.493 126.846  0.00  0.00    +0.000 A 
ATOM      9  C   UNL     1      -2.275   4.260 127.744  0.00  0.00    +0.000 A 
ATOM     10  C   UNL     1      -2.785   5.463 128.238  0.00  0.00    +0.000 A 
ATOM     11  C   UNL     1      -4.014   5.924 127.778  0.00  0.00    +0.000 A 
ATOM     12  C   UNL     1      -4.759   5.156 126.883  0.00  0.00    +0.000 A 
BRANCH   8  13
ATOM     13  O   UNL     1      -2.440   2.322 126.431  0.00  0.00    +0.000 OA
ATOM     14  H   UNL     1      -1.472   2.391 126.518  0.00  0.00    +0.000 HD
ENDBRANCH   8  13
BRANCH  10  15
ATOM     15  O   UNL     1      -2.037   6.083 129.197  0.00  0.00    +0.000 OA
BRANCH  15  16
ATOM     16  C   UNL     1      -2.611   6.210 130.500  0.00  0.00    +0.000 C 
BRANCH  16  17
ATOM     17  C   UNL     1      -2.117   5.064 131.402  0.00  0.00    +0.000 C 
BRANCH  17  18
ATOM     18  C   UNL     1      -1.613   5.577 132.771  0.00  0.00    +0.000 C 
ATOM     19  C   UNL     1      -0.559   6.665 132.693  0.00  0.00    +0.000 C 
ENDBRANCH  17  18
BRANCH  17  20
ATOM     20  C   UNL     1      -3.258   4.038 131.590  0.00  0.00    +0.000 C 
BRANCH  20  21
ATOM     21  C   UNL     1      -4.631   4.627 131.265  0.00  0.00    +0.000 C 
BRANCH  21  22
ATOM     22  C   UNL     1      -5.589   3.577 130.721  0.00  0.00    +0.000 C 
ATOM     23  C   UNL     1      -4.814   2.520 129.950  0.00  0.00    +0.000 C 
ENDBRANCH  21  22
ENDBRANCH  20  21
ENDBRANCH  17  20
ENDBRANCH  16  17
ENDBRANCH  15  16
ENDBRANCH  10  15
ENDBRANCH   3   7
BRANCH   5  24
ATOM     24  C   UNL     1      -6.903   3.240 122.470  0.00  0.00    +0.000 A 
ATOM     25  C   UNL     1      -6.008   3.696 121.491  0.00  0.00    +0.000 A 
ATOM     26  C   UNL     1      -6.459   4.104 120.233  0.00  0.00    +0.000 A 
ATOM     27  C   UNL     1      -7.820   4.077 119.933  0.00  0.00    +0.000 A 
ATOM     28  C   UNL     1      -8.726   3.659 120.911  0.00  0.00    +0.000 A 
ATOM     29  C   UNL     1      -8.272   3.237 122.167  0.00  0.00    +0.000 A 
BRANCH  27  30
ATOM     30  O   UNL     1      -8.378   4.428 118.735  0.00  0.00    +0.000 OA
ATOM     31  C   UNL     1      -9.800   4.461 118.686  0.00  0.00    +0.000 C 
ENDBRANCH  27  30
ENDBRANCH   5  24
BRANCH   1  35
ATOM     32  C   UNL     1      -7.403  -2.562 127.104  0.00  0.00    +0.000 A 
ATOM     33  C   UNL     1      -8.412  -1.793 126.522  0.00  0.00    +0.000 A 
ATOM     34  C   UNL     1      -8.089  -0.572 125.914  0.00  0.00    +0.000 A 
ATOM     35  C   UNL     1      -6.792  -0.046 125.980  0.00  0.00    +0.000 A 
ATOM     36  C   UNL     1      -5.797  -0.876 126.508  0.00  0.00    +0.000 A 
ATOM     37  C   UNL     1      -6.083  -2.189 126.892  0.00  0.00    +0.000 A 
BRANCH  34  38
ATOM     38  O   UNL     1      -9.046   0.118 125.221  0.00  0.00    +0.000 OA
ATOM     39  H   UNL     1      -9.371  -0.439 124.496  0.00  0.00    +0.000 HD
ENDBRANCH  34  38
BRANCH  32  40
ATOM     40  O   UNL     1      -7.796  -3.536 127.986  0.00  0.00    +0.000 OA
BRANCH  40  41
ATOM     41  C   UNL     1      -8.451  -3.149 129.217  0.00  0.00    +0.000 C 
BRANCH  41  42
ATOM     42  C   UNL     1      -7.535  -2.783 130.456  0.00  0.00    +0.000 C 
BRANCH  42  43
ATOM     43  C   UNL     1      -7.120  -1.295 130.461  0.00  0.00    +0.000 C 
ATOM     44  C   UNL     1      -7.841  -0.097 129.874  0.00  0.00    +0.000 C 
ENDBRANCH  42  43
BRANCH  42  45
ATOM     45  C   UNL     1      -6.293  -3.700 130.438  0.00  0.00    +0.000 C 
BRANCH  45  46
ATOM     46  C   UNL     1      -5.034  -2.864 130.358  0.00  0.00    +0.000 C 
BRANCH  46  48
ATOM     47  C   UNL     1      -3.217  -3.752 128.984  0.00  0.00    +0.000 C 
ATOM     48  C   UNL     1      -3.720  -3.597 130.416  0.00  0.00    +0.000 C 
ENDBRANCH  46  48
ENDBRANCH  45  46
ENDBRANCH  42  45
ENDBRANCH  41  42
ENDBRANCH  40  41
ENDBRANCH  32  40
ENDBRANCH   1  35
TORSDOF 20
ENDMDL
MODEL 2
REMARK VINA RESULT:      -8.0      1.184      2.395
REMARK  Name = Bemotrizinol
REMARK  25 active torsions:
REMARK  status: ('A' for Active; 'I' for Inactive)
REMARK    1  A    between atoms: C_1  and  C_2
REMARK    2  A    between atoms: C_2  and  C_3
REMARK    3  A    between atoms: C_3  and  C_4
REMARK    4  A    between atoms: C_4  and  C_5
REMARK    5  A    between atoms: C_5  and  C_6
REMARK    6  A    between atoms: C_5  and  C_8
REMARK    7  A    between atoms: C_6  and  C_7
REMARK    8  A    between atoms: C_8  and  O_9
REMARK    9  A    between atoms: O_9  and  C_10
REMARK   10  A    between atoms: C_12  and  O_13
REMARK   11  A    between atoms: C_14  and  C_17
REMARK   12  A    between atoms: C_19  and  C_31
REMARK   13  A    between atoms: C_21  and  C_23
REMARK   14  A    between atoms: C_26  and  O_27
REMARK   15  A    between atoms: O_27  and  C_28
REMARK   16  A    between atoms: C_32  and  O_33
REMARK   17  A    between atoms: C_35  and  O_36
REMARK   18  A    between atoms: O_36  and  C_37
REMARK   19  A    between atoms: C_37  and  C_38
REMARK   20  A    between atoms: C_38  and  C_39
REMARK   21  A    between atoms: C_38  and  C_41
REMARK   22  A    between atoms: C_39  and  C_40
REMARK   23  A    between atoms: C_41  and  C_42
REMARK   24  A    between atoms: C_42  and  C_43
REMARK   25  A    between atoms: C_43  and  C_44
REMARK                            x       y       z     vdW  Elec       q    Type
REMARK                         _______ _______ _______ _____ _____    ______ ____
ROOT
ATOM      1  C   UNL     1      -6.798   0.918 125.066  0.00  0.00    +0.000 A 
ATOM      2  N   UNL     1      -6.047   1.538 125.974  0.00  0.00    +0.000 NA
ATOM      3  C   UNL     1      -5.497   2.674 125.583  0.00  0.00    +0.000 A 
ATOM      4  N   UNL     1      -5.622   3.208 124.368  0.00  0.00    +0.000 NA
ATOM      5  C   UNL     1      -6.403   2.507 123.543  0.00  0.00    +0.000 A 
ATOM      6  N   UNL     1      -7.047   1.380 123.839  0.00  0.00    +0.000 NA
ENDROOT
BRANCH   3   7
ATOM      7  C   UNL     1      -4.731   3.393 126.592  0.00  0.00    +0.000 A 
ATOM      8  C   UNL     1      -5.229   4.517 127.275  0.00  0.00    +0.000 A 
ATOM      9  C   UNL     1      -4.413   5.253 128.137  0.00  0.00    +0.000 A 
ATOM     10  C   UNL     1      -3.078   4.886 128.331  0.00  0.00    +0.000 A 
ATOM     11  C   UNL     1      -2.588   3.743 127.709  0.00  0.00    +0.000 A 
ATOM     12  C   UNL     1      -3.404   3.010 126.847  0.00  0.00    +0.000 A 
BRANCH   8  13
ATOM     13  O   UNL     1      -6.518   4.965 127.143  0.00  0.00    +0.000 OA
ATOM     14  H   UNL     1      -6.562   5.908 127.385  0.00  0.00    +0.000 HD
ENDBRANCH   8  13
BRANCH  10  15
ATOM     15  O   UNL     1      -2.329   5.731 129.097  0.00  0.00    +0.000 OA
BRANCH  15  16
ATOM     16  C   UNL     1      -2.747   5.938 130.449  0.00  0.00    +0.000 C 
BRANCH  16  17
ATOM     17  C   UNL     1      -2.402   4.700 131.298  0.00  0.00    +0.000 C 
BRANCH  17  18
ATOM     18  C   UNL     1      -1.475   5.050 132.486  0.00  0.00    +0.000 C 
ATOM     19  C   UNL     1      -0.734   6.366 132.348  0.00  0.00    +0.000 C 
ENDBRANCH  17  18
BRANCH  17  20
ATOM     20  C   UNL     1      -3.710   4.048 131.800  0.00  0.00    +0.000 C 
BRANCH  20  21
ATOM     21  C   UNL     1      -3.884   2.620 131.284  0.00  0.00    +0.000 C 
BRANCH  21  22
ATOM     22  C   UNL     1      -5.176   2.450 130.497  0.00  0.00    +0.000 C 
ATOM     23  C   UNL     1      -6.133   3.585 130.822  0.00  0.00    +0.000 C 
ENDBRANCH  21  22
ENDBRANCH  20  21
ENDBRANCH  17  20
ENDBRANCH  16  17
ENDBRANCH  15  16
ENDBRANCH  10  15
ENDBRANCH   3   7
BRANCH   5  24
ATOM     24  C   UNL     1      -6.645   3.091 122.222  0.00  0.00    +0.000 A 
ATOM     25  C   UNL     1      -7.959   3.251 121.758  0.00  0.00    +0.000 A 
ATOM     26  C   UNL     1      -8.221   3.869 120.532  0.00  0.00    +0.000 A 
ATOM     27  C   UNL     1      -7.171   4.326 119.738  0.00  0.00    +0.000 A 
ATOM     28  C   UNL     1      -5.857   4.142 120.172  0.00  0.00    +0.000 A 
ATOM     29  C   UNL     1      -5.595   3.535 121.407  0.00  0.00    +0.000 A 
BRANCH  27  30
ATOM     30  O   UNL     1      -7.304   4.964 118.535  0.00  0.00    +0.000 OA
ATOM     31  C   UNL     1      -6.166   5.685 118.075  0.00  0.00    +0.000 C 
ENDBRANCH  27  30
ENDBRANCH   5  24
BRANCH   1  35
ATOM     32  C   UNL     1      -8.335  -2.874 126.314  0.00  0.00    +0.000 A 
ATOM     33  C   UNL     1      -9.228  -1.854 125.986  0.00  0.00    +0.000 A 
ATOM     34  C   UNL     1      -8.738  -0.623 125.529  0.00  0.00    +0.000 A 
ATOM     35  C   UNL     1      -7.365  -0.350 125.504  0.00  0.00    +0.000 A 
ATOM     36  C   UNL     1      -6.501  -1.419 125.773  0.00  0.00    +0.000 A 
ATOM     37  C   UNL     1      -6.995  -2.707 125.992  0.00  0.00    +0.000 A 
BRANCH  34  38
ATOM     38  O   UNL     1      -9.608   0.330 125.074  0.00  0.00    +0.000 OA
ATOM     39  H   UNL     1     -10.227  -0.083 124.451  0.00  0.00    +0.000 HD
ENDBRANCH  34  38
BRANCH  32  40
ATOM     40  O   UNL     1      -8.819  -3.900 127.085  0.00  0.00    +0.000 OA
BRANCH  40  41
ATOM     41  C   UNL     1      -8.769  -3.780 128.528  0.00  0.00    +0.000 C 
BRANCH  41  42
ATOM     42  C   UNL     1      -7.516  -3.049 129.164  0.00  0.00    +0.000 C 
BRANCH  42  43
ATOM     43  C   UNL     1      -6.692  -3.984 130.077  0.00  0.00    +0.000 C 
ATOM     44  C   UNL     1      -5.187  -4.139 130.181  0.00  0.00    +0.000 C 
ENDBRANCH  42  43
BRANCH  42  45
ATOM     45  C   UNL     1      -8.012  -1.814 129.946  0.00  0.00    +0.000 C 
BRANCH  45  46
ATOM     46  C   UNL     1      -7.641  -0.548 129.203  0.00  0.00    +0.000 C 
BRANCH  46  48
ATOM     47  C   UNL     1      -8.471   1.651 128.532  0.00  0.00    +0.000 C 
ATOM     48  C   UNL     1      -8.204   0.745 129.730  0.00  0.00    +0.000 C 
ENDBRANCH  46  48
ENDBRANCH  45  46
ENDBRANCH  42  45
ENDBRANCH  41  42
ENDBRANCH  40  41
ENDBRANCH  32  40
ENDBRANCH   1  35
TORSDOF 20
ENDMDL
MODEL 3
REMARK VINA RESULT:      -7.9      5.934      7.710
REMARK  Name = Bemotrizinol
REMARK  25 active torsions:
REMARK  status: ('A' for Active; 'I' for Inactive)
REMARK    1  A    between atoms: C_1  and  C_2
REMARK    2  A    between atoms: C_2  and  C_3
REMARK    3  A    between atoms: C_3  and  C_4
REMARK    4  A    between atoms: C_4  and  C_5
REMARK    5  A    between atoms: C_5  and  C_6
REMARK    6  A    between atoms: C_5  and  C_8
REMARK    7  A    between atoms: C_6  and  C_7
REMARK    8  A    between atoms: C_8  and  O_9
REMARK    9  A    between atoms: O_9  and  C_10
REMARK   10  A    between atoms: C_12  and  O_13
REMARK   11  A    between atoms: C_14  and  C_17
REMARK   12  A    between atoms: C_19  and  C_31
REMARK   13  A    between atoms: C_21  and  C_23
REMARK   14  A    between atoms: C_26  and  O_27
REMARK   15  A    between atoms: O_27  and  C_28
REMARK   16  A    between atoms: C_32  and  O_33
REMARK   17  A    between atoms: C_35  and  O_36
REMARK   18  A    between atoms: O_36  and  C_37
REMARK   19  A    between atoms: C_37  and  C_38
REMARK   20  A    between atoms: C_38  and  C_39
REMARK   21  A    between atoms: C_38  and  C_41
REMARK   22  A    between atoms: C_39  and  C_40
REMARK   23  A    between atoms: C_41  and  C_42
REMARK   24  A    between atoms: C_42  and  C_43
REMARK   25  A    between atoms: C_43  and  C_44
REMARK                            x       y       z     vdW  Elec       q    Type
REMARK                         _______ _______ _______ _____ _____    ______ ____
ROOT
ATOM      1  C   UNL     1      -8.567   4.158 129.578  0.00  0.00    +0.000 A 
ATOM      2  N   UNL     1      -7.890   4.223 130.723  0.00  0.00    +0.000 NA
ATOM      3  C   UNL     1      -8.173   5.255 131.498  0.00  0.00    +0.000 A 
ATOM      4  N   UNL     1      -9.047   6.218 131.204  0.00  0.00    +0.000 NA
ATOM      5  C   UNL     1      -9.673   6.047 130.038  0.00  0.00    +0.000 A 
ATOM      6  N   UNL     1      -9.508   5.026 129.199  0.00  0.00    +0.000 NA
ENDROOT
BRANCH   3   7
ATOM      7  C   UNL     1      -7.487   5.295 132.783  0.00  0.00    +0.000 A 
ATOM      8  C   UNL     1      -8.128   5.017 134.002  0.00  0.00    +0.000 A 
ATOM      9  C   UNL     1      -7.467   5.196 135.220  0.00  0.00    +0.000 A 
ATOM     10  C   UNL     1      -6.150   5.664 135.244  0.00  0.00    +0.000 A 
ATOM     11  C   UNL     1      -5.482   5.887 134.045  0.00  0.00    +0.000 A 
ATOM     12  C   UNL     1      -6.146   5.709 132.831  0.00  0.00    +0.000 A 
BRANCH   8  13
ATOM     13  O   UNL     1      -9.422   4.567 134.085  0.00  0.00    +0.000 OA
ATOM     14  H   UNL     1      -9.427   3.647 134.408  0.00  0.00    +0.000 HD
ENDBRANCH   8  13
BRANCH  10  15
ATOM     15  O   UNL     1      -5.627   5.919 136.479  0.00  0.00    +0.000 OA
BRANCH  15  16
ATOM     16  C   UNL     1      -6.538   5.983 137.579  0.00  0.00    +0.000 C 
BRANCH  16  17
ATOM     17  C   UNL     1      -6.333   7.300 138.351  0.00  0.00    +0.000 C 
BRANCH  17  18
ATOM     18  C   UNL     1      -5.549   8.344 137.522  0.00  0.00    +0.000 C 
ATOM     19  C   UNL     1      -5.955   9.785 137.767  0.00  0.00    +0.000 C 
ENDBRANCH  17  18
BRANCH  17  20
ATOM     20  C   UNL     1      -7.710   7.861 138.772  0.00  0.00    +0.000 C 
BRANCH  20  21
ATOM     21  C   UNL     1      -8.821   7.474 137.796  0.00  0.00    +0.000 C 
BRANCH  21  22
ATOM     22  C   UNL     1      -9.480   8.693 137.166  0.00  0.00    +0.000 C 
ATOM     23  C   UNL     1     -10.037   9.599 138.251  0.00  0.00    +0.000 C 
ENDBRANCH  21  22
ENDBRANCH  20  21
ENDBRANCH  17  20
ENDBRANCH  16  17
ENDBRANCH  15  16
ENDBRANCH  10  15
ENDBRANCH   3   7
BRANCH   5  24
ATOM     24  C   UNL     1     -10.706   7.029 129.703  0.00  0.00    +0.000 A 
ATOM     25  C   UNL     1     -11.790   7.227 130.569  0.00  0.00    +0.000 A 
ATOM     26  C   UNL     1     -12.753   8.207 130.310  0.00  0.00    +0.000 A 
ATOM     27  C   UNL     1     -12.657   9.000 129.168  0.00  0.00    +0.000 A 
ATOM     28  C   UNL     1     -11.601   8.789 128.278  0.00  0.00    +0.000 A 
ATOM     29  C   UNL     1     -10.629   7.817 128.545  0.00  0.00    +0.000 A 
BRANCH  27  30
ATOM     30  O   UNL     1     -13.521  10.001 128.820  0.00  0.00    +0.000 OA
ATOM     31  C   UNL     1     -13.633  11.084 129.737  0.00  0.00    +0.000 C 
ENDBRANCH  27  30
ENDBRANCH   5  24
BRANCH   1  35
ATOM     32  C   UNL     1      -7.523   0.770 127.185  0.00  0.00    +0.000 A 
ATOM     33  C   UNL     1      -7.295   2.051 126.684  0.00  0.00    +0.000 A 
ATOM     34  C   UNL     1      -7.587   3.169 127.478  0.00  0.00    +0.000 A 
ATOM     35  C   UNL     1      -8.215   3.034 128.722  0.00  0.00    +0.000 A 
ATOM     36  C   UNL     1      -8.363   1.734 129.220  0.00  0.00    +0.000 A 
ATOM     37  C   UNL     1      -7.849   0.635 128.528  0.00  0.00    +0.000 A 
BRANCH  34  38
ATOM     38  O   UNL     1      -7.236   4.420 127.048  0.00  0.00    +0.000 OA
ATOM     39  H   UNL     1      -8.033   4.884 126.748  0.00  0.00    +0.000 HD
ENDBRANCH  34  38
BRANCH  32  40
ATOM     40  O   UNL     1      -7.574  -0.254 126.274  0.00  0.00    +0.000 OA
BRANCH  40  41
ATOM     41  C   UNL     1      -8.546  -1.312 126.458  0.00  0.00    +0.000 C 
BRANCH  41  42
ATOM     42  C   UNL     1      -8.015  -2.804 126.489  0.00  0.00    +0.000 C 
BRANCH  42  43
ATOM     43  C   UNL     1      -8.231  -3.532 125.144  0.00  0.00    +0.000 C 
ATOM     44  C   UNL     1      -9.276  -3.280 124.074  0.00  0.00    +0.000 C 
ENDBRANCH  42  43
BRANCH  42  45
ATOM     45  C   UNL     1      -8.720  -3.553 127.639  0.00  0.00    +0.000 C 
BRANCH  45  46
ATOM     46  C   UNL     1      -8.237  -3.025 128.974  0.00  0.00    +0.000 C 
BRANCH  46  48
ATOM     47  C   UNL     1      -6.362  -4.070 130.143  0.00  0.00    +0.000 C 
ATOM     48  C   UNL     1      -6.748  -2.950 129.182  0.00  0.00    +0.000 C 
ENDBRANCH  46  48
ENDBRANCH  45  46
ENDBRANCH  42  45
ENDBRANCH  41  42
ENDBRANCH  40  41
ENDBRANCH  32  40
ENDBRANCH   1  35
TORSDOF 20
ENDMDL
MODEL 4
REMARK VINA RESULT:      -7.7      5.157      7.276
REMARK  Name = Bemotrizinol
REMARK  25 active torsions:
REMARK  status: ('A' for Active; 'I' for Inactive)
REMARK    1  A    between atoms: C_1  and  C_2
REMARK    2  A    between atoms: C_2  and  C_3
REMARK    3  A    between atoms: C_3  and  C_4
REMARK    4  A    between atoms: C_4  and  C_5
REMARK    5  A    between atoms: C_5  and  C_6
REMARK    6  A    between atoms: C_5  and  C_8
REMARK    7  A    between atoms: C_6  and  C_7
REMARK    8  A    between atoms: C_8  and  O_9
REMARK    9  A    between atoms: O_9  and  C_10
REMARK   10  A    between atoms: C_12  and  O_13
REMARK   11  A    between atoms: C_14  and  C_17
REMARK   12  A    between atoms: C_19  and  C_31
REMARK   13  A    between atoms: C_21  and  C_23
REMARK   14  A    between atoms: C_26  and  O_27
REMARK   15  A    between atoms: O_27  and  C_28
REMARK   16  A    between atoms: C_32  and  O_33
REMARK   17  A    between atoms: C_35  and  O_36
REMARK   18  A    between atoms: O_36  and  C_37
REMARK   19  A    between atoms: C_37  and  C_38
REMARK   20  A    between atoms: C_38  and  C_39
REMARK   21  A    between atoms: C_38  and  C_41
REMARK   22  A    between atoms: C_39  and  C_40
REMARK   23  A    between atoms: C_41  and  C_42
REMARK   24  A    between atoms: C_42  and  C_43
REMARK   25  A    between atoms: C_43  and  C_44
REMARK                            x       y       z     vdW  Elec       q    Type
REMARK                         _______ _______ _______ _____ _____    ______ ____
ROOT
ATOM      1  C   UNL     1      -8.295   4.152 130.799  0.00  0.00    +0.000 A 
ATOM      2  N   UNL     1      -7.083   4.653 131.027  0.00  0.00    +0.000 NA
ATOM      3  C   UNL     1      -6.958   5.956 130.844  0.00  0.00    +0.000 A 
ATOM      4  N   UNL     1      -7.932   6.769 130.434  0.00  0.00    +0.000 NA
ATOM      5  C   UNL     1      -9.105   6.161 130.246  0.00  0.00    +0.000 A 
ATOM      6  N   UNL     1      -9.362   4.870 130.444  0.00  0.00    +0.000 NA
ENDROOT
BRANCH   3   7
ATOM      7  C   UNL     1      -5.653   6.523 131.157  0.00  0.00    +0.000 A 
ATOM      8  C   UNL     1      -5.002   6.312 132.385  0.00  0.00    +0.000 A 
ATOM      9  C   UNL     1      -3.815   6.982 132.693  0.00  0.00    +0.000 A 
ATOM     10  C   UNL     1      -3.255   7.881 131.782  0.00  0.00    +0.000 A 
ATOM     11  C   UNL     1      -3.855   8.055 130.539  0.00  0.00    +0.000 A 
ATOM     12  C   UNL     1      -5.042   7.388 130.235  0.00  0.00    +0.000 A 
BRANCH   8  13
ATOM     13  O   UNL     1      -5.476   5.461 133.351  0.00  0.00    +0.000 OA
ATOM     14  H   UNL     1      -6.358   5.756 133.642  0.00  0.00    +0.000 HD
ENDBRANCH   8  13
BRANCH  10  15
ATOM     15  O   UNL     1      -2.162   8.573 132.216  0.00  0.00    +0.000 OA
BRANCH  15  16
ATOM     16  C   UNL     1      -2.134   8.965 133.591  0.00  0.00    +0.000 C 
BRANCH  16  17
ATOM     17  C   UNL     1      -1.386  10.303 133.738  0.00  0.00    +0.000 C 
BRANCH  17  18
ATOM     18  C   UNL     1       0.127  10.158 133.450  0.00  0.00    +0.000 C 
ATOM     19  C   UNL     1       0.901  11.463 133.446  0.00  0.00    +0.000 C 
ENDBRANCH  17  18
BRANCH  17  20
ATOM     20  C   UNL     1      -2.023  11.348 132.794  0.00  0.00    +0.000 C 
BRANCH  20  21
ATOM     21  C   UNL     1      -2.718  12.475 133.557  0.00  0.00    +0.000 C 
BRANCH  21  22
ATOM     22  C   UNL     1      -2.038  13.819 133.337  0.00  0.00    +0.000 C 
ATOM     23  C   UNL     1      -3.084  14.890 133.073  0.00  0.00    +0.000 C 
ENDBRANCH  21  22
ENDBRANCH  20  21
ENDBRANCH  17  20
ENDBRANCH  16  17
ENDBRANCH  15  16
ENDBRANCH  10  15
ENDBRANCH   3   7
BRANCH   5  24
ATOM     24  C   UNL     1     -10.232   7.021 129.878  0.00  0.00    +0.000 A 
ATOM     25  C   UNL     1     -11.381   7.049 130.680  0.00  0.00    +0.000 A 
ATOM     26  C   UNL     1     -12.443   7.912 130.392  0.00  0.00    +0.000 A 
ATOM     27  C   UNL     1     -12.381   8.754 129.283  0.00  0.00    +0.000 A 
ATOM     28  C   UNL     1     -11.257   8.711 128.455  0.00  0.00    +0.000 A 
ATOM     29  C   UNL     1     -10.187   7.856 128.753  0.00  0.00    +0.000 A 
BRANCH  27  30
ATOM     30  O   UNL     1     -13.342   9.654 128.914  0.00  0.00    +0.000 OA
ATOM     31  C   UNL     1     -13.461  10.819 129.723  0.00  0.00    +0.000 C 
ENDBRANCH  27  30
ENDBRANCH   5  24
BRANCH   1  35
ATOM     32  C   UNL     1      -8.563  -0.102 131.163  0.00  0.00    +0.000 A 
ATOM     33  C   UNL     1      -9.321   0.701 132.015  0.00  0.00    +0.000 A 
ATOM     34  C   UNL     1      -9.279   2.095 131.873  0.00  0.00    +0.000 A 
ATOM     35  C   UNL     1      -8.402   2.709 130.971  0.00  0.00    +0.000 A 
ATOM     36  C   UNL     1      -7.711   1.871 130.087  0.00  0.00    +0.000 A 
ATOM     37  C   UNL     1      -7.941   0.494 130.074  0.00  0.00    +0.000 A 
BRANCH  34  38
ATOM     38  O   UNL     1     -10.124   2.880 132.610  0.00  0.00    +0.000 OA
ATOM     39  H   UNL     1      -9.873   2.820 133.545  0.00  0.00    +0.000 HD
ENDBRANCH  34  38
BRANCH  32  40
ATOM     40  O   UNL     1      -8.347  -1.397 131.559  0.00  0.00    +0.000 OA
BRANCH  40  41
ATOM     41  C   UNL     1      -7.170  -2.093 131.080  0.00  0.00    +0.000 C 
BRANCH  41  42
ATOM     42  C   UNL     1      -7.389  -3.363 130.160  0.00  0.00    +0.000 C 
BRANCH  42  43
ATOM     43  C   UNL     1      -6.174  -4.317 130.178  0.00  0.00    +0.000 C 
ATOM     44  C   UNL     1      -5.313  -4.750 131.348  0.00  0.00    +0.000 C 
ENDBRANCH  42  43
BRANCH  42  45
ATOM     45  C   UNL     1      -7.691  -2.885 128.724  0.00  0.00    +0.000 C 
BRANCH  45  46
ATOM     46  C   UNL     1      -8.714  -3.796 128.079  0.00  0.00    +0.000 C 
BRANCH  46  48
ATOM     47  C   UNL     1      -8.557  -2.101 126.324  0.00  0.00    +0.000 C 
ATOM     48  C   UNL     1      -9.119  -3.478 126.664  0.00  0.00    +0.000 C 
ENDBRANCH  46  48
ENDBRANCH  45  46
ENDBRANCH  42  45
ENDBRANCH  41  42
ENDBRANCH  40  41
ENDBRANCH  32  40
ENDBRANCH   1  35
TORSDOF 20
ENDMDL
MODEL 5
REMARK VINA RESULT:      -7.7      6.047      7.980
REMARK  Name = Bemotrizinol
REMARK  25 active torsions:
REMARK  status: ('A' for Active; 'I' for Inactive)
REMARK    1  A    between atoms: C_1  and  C_2
REMARK    2  A    between atoms: C_2  and  C_3
REMARK    3  A    between atoms: C_3  and  C_4
REMARK    4  A    between atoms: C_4  and  C_5
REMARK    5  A    between atoms: C_5  and  C_6
REMARK    6  A    between atoms: C_5  and  C_8
REMARK    7  A    between atoms: C_6  and  C_7
REMARK    8  A    between atoms: C_8  and  O_9
REMARK    9  A    between atoms: O_9  and  C_10
REMARK   10  A    between atoms: C_12  and  O_13
REMARK   11  A    between atoms: C_14  and  C_17
REMARK   12  A    between atoms: C_19  and  C_31
REMARK   13  A    between atoms: C_21  and  C_23
REMARK   14  A    between atoms: C_26  and  O_27
REMARK   15  A    between atoms: O_27  and  C_28
REMARK   16  A    between atoms: C_32  and  O_33
REMARK   17  A    between atoms: C_35  and  O_36
REMARK   18  A    between atoms: O_36  and  C_37
REMARK   19  A    between atoms: C_37  and  C_38
REMARK   20  A    between atoms: C_38  and  C_39
REMARK   21  A    between atoms: C_38  and  C_41
REMARK   22  A    between atoms: C_39  and  C_40
REMARK   23  A    between atoms: C_41  and  C_42
REMARK   24  A    between atoms: C_42  and  C_43
REMARK   25  A    between atoms: C_43  and  C_44
REMARK                            x       y       z     vdW  Elec       q    Type
REMARK                         _______ _______ _______ _____ _____    ______ ____
ROOT
ATOM      1  C   UNL     1      -8.574   3.954 129.767  0.00  0.00    +0.000 A 
ATOM      2  N   UNL     1      -7.897   4.054 130.909  0.00  0.00    +0.000 NA
ATOM      3  C   UNL     1      -8.160   5.123 131.639  0.00  0.00    +0.000 A 
ATOM      4  N   UNL     1      -9.015   6.090 131.303  0.00  0.00    +0.000 NA
ATOM      5  C   UNL     1      -9.644   5.881 130.144  0.00  0.00    +0.000 A 
ATOM      6  N   UNL     1      -9.497   4.823 129.350  0.00  0.00    +0.000 NA
ENDROOT
BRANCH   3   7
ATOM      7  C   UNL     1      -7.475   5.205 132.923  0.00  0.00    +0.000 A 
ATOM      8  C   UNL     1      -8.096   4.889 134.144  0.00  0.00    +0.000 A 
ATOM      9  C   UNL     1      -7.443   5.109 135.359  0.00  0.00    +0.000 A 
ATOM     10  C   UNL     1      -6.156   5.655 135.381  0.00  0.00    +0.000 A 
ATOM     11  C   UNL     1      -5.506   5.917 134.180  0.00  0.00    +0.000 A 
ATOM     12  C   UNL     1      -6.161   5.699 132.967  0.00  0.00    +0.000 A 
BRANCH   8  13
ATOM     13  O   UNL     1      -9.359   4.362 134.230  0.00  0.00    +0.000 OA
ATOM     14  H   UNL     1      -9.539   3.817 133.443  0.00  0.00    +0.000 HD
ENDBRANCH   8  13
BRANCH  10  15
ATOM     15  O   UNL     1      -5.647   5.940 136.614  0.00  0.00    +0.000 OA
BRANCH  15  16
ATOM     16  C   UNL     1      -6.569   6.032 137.702  0.00  0.00    +0.000 C 
BRANCH  16  17
ATOM     17  C   UNL     1      -6.393   7.381 138.425  0.00  0.00    +0.000 C 
BRANCH  17  18
ATOM     18  C   UNL     1      -5.557   8.381 137.593  0.00  0.00    +0.000 C 
ATOM     19  C   UNL     1      -5.905   9.841 137.816  0.00  0.00    +0.000 C 
ENDBRANCH  17  18
BRANCH  17  20
ATOM     20  C   UNL     1      -7.785   7.970 138.747  0.00  0.00    +0.000 C 
BRANCH  20  21
ATOM     21  C   UNL     1      -8.791   7.739 137.619  0.00  0.00    +0.000 C 
BRANCH  21  22
ATOM     22  C   UNL     1      -9.909   8.772 137.630  0.00  0.00    +0.000 C 
ATOM     23  C   UNL     1      -9.656   9.797 138.724  0.00  0.00    +0.000 C 
ENDBRANCH  21  22
ENDBRANCH  20  21
ENDBRANCH  17  20
ENDBRANCH  16  17
ENDBRANCH  15  16
ENDBRANCH  10  15
ENDBRANCH   3   7
BRANCH   5  24
ATOM     24  C   UNL     1     -10.657   6.868 129.767  0.00  0.00    +0.000 A 
ATOM     25  C   UNL     1     -11.791   7.050 130.571  0.00  0.00    +0.000 A 
ATOM     26  C   UNL     1     -12.739   8.033 130.272  0.00  0.00    +0.000 A 
ATOM     27  C   UNL     1     -12.578   8.845 129.152  0.00  0.00    +0.000 A 
ATOM     28  C   UNL     1     -11.471   8.651 128.322  0.00  0.00    +0.000 A 
ATOM     29  C   UNL     1     -10.514   7.676 128.629  0.00  0.00    +0.000 A 
BRANCH  27  30
ATOM     30  O   UNL     1     -13.422   9.852 128.771  0.00  0.00    +0.000 OA
ATOM     31  C   UNL     1     -13.554  10.941 129.677  0.00  0.00    +0.000 C 
ENDBRANCH  27  30
ENDBRANCH   5  24
BRANCH   1  35
ATOM     32  C   UNL     1      -7.642   0.605 127.275  0.00  0.00    +0.000 A 
ATOM     33  C   UNL     1      -7.905   0.391 128.628  0.00  0.00    +0.000 A 
ATOM     34  C   UNL     1      -8.260   1.474 129.445  0.00  0.00    +0.000 A 
ATOM     35  C   UNL     1      -8.242   2.788 128.960  0.00  0.00    +0.000 A 
ATOM     36  C   UNL     1      -8.042   2.954 127.584  0.00  0.00    +0.000 A 
ATOM     37  C   UNL     1      -7.929   1.851 126.735  0.00  0.00    +0.000 A 
BRANCH  34  38
ATOM     38  O   UNL     1      -8.655   1.253 130.736  0.00  0.00    +0.000 OA
ATOM     39  H   UNL     1      -8.120   1.806 131.327  0.00  0.00    +0.000 HD
ENDBRANCH  34  38
BRANCH  32  40
ATOM     40  O   UNL     1      -6.958  -0.383 126.612  0.00  0.00    +0.000 OA
BRANCH  40  41
ATOM     41  C   UNL     1      -6.505  -0.138 125.259  0.00  0.00    +0.000 C 
BRANCH  41  42
ATOM     42  C   UNL     1      -7.273  -0.866 124.081  0.00  0.00    +0.000 C 
BRANCH  42  43
ATOM     43  C   UNL     1      -8.382  -1.810 124.597  0.00  0.00    +0.000 C 
ATOM     44  C   UNL     1      -9.099  -2.932 123.873  0.00  0.00    +0.000 C 
ENDBRANCH  42  43
BRANCH  42  45
ATOM     45  C   UNL     1      -6.245  -1.641 123.229  0.00  0.00    +0.000 C 
BRANCH  45  46
ATOM     46  C   UNL     1      -5.334  -2.452 124.127  0.00  0.00    +0.000 C 
BRANCH  46  48
ATOM     47  C   UNL     1      -4.098  -4.483 123.559  0.00  0.00    +0.000 C 
ATOM     48  C   UNL     1      -5.444  -3.951 124.040  0.00  0.00    +0.000 C 
ENDBRANCH  46  48
ENDBRANCH  45  46
ENDBRANCH  42  45
ENDBRANCH  41  42
ENDBRANCH  40  41
ENDBRANCH  32  40
ENDBRANCH   1  35
TORSDOF 20
ENDMDL
MODEL 6
REMARK VINA RESULT:      -7.7      6.017      7.910
REMARK  Name = Bemotrizinol
REMARK  25 active torsions:
REMARK  status: ('A' for Active; 'I' for Inactive)
REMARK    1  A    between atoms: C_1  and  C_2
REMARK    2  A    between atoms: C_2  and  C_3
REMARK    3  A    between atoms: C_3  and  C_4
REMARK    4  A    between atoms: C_4  and  C_5
REMARK    5  A    between atoms: C_5  and  C_6
REMARK    6  A    between atoms: C_5  and  C_8
REMARK    7  A    between atoms: C_6  and  C_7
REMARK    8  A    between atoms: C_8  and  O_9
REMARK    9  A    between atoms: O_9  and  C_10
REMARK   10  A    between atoms: C_12  and  O_13
REMARK   11  A    between atoms: C_14  and  C_17
REMARK   12  A    between atoms: C_19  and  C_31
REMARK   13  A    between atoms: C_21  and  C_23
REMARK   14  A    between atoms: C_26  and  O_27
REMARK   15  A    between atoms: O_27  and  C_28
REMARK   16  A    between atoms: C_32  and  O_33
REMARK   17  A    between atoms: C_35  and  O_36
REMARK   18  A    between atoms: O_36  and  C_37
REMARK   19  A    between atoms: C_37  and  C_38
REMARK   20  A    between atoms: C_38  and  C_39
REMARK   21  A    between atoms: C_38  and  C_41
REMARK   22  A    between atoms: C_39  and  C_40
REMARK   23  A    between atoms: C_41  and  C_42
REMARK   24  A    between atoms: C_42  and  C_43
REMARK   25  A    between atoms: C_43  and  C_44
REMARK                            x       y       z     vdW  Elec       q    Type
REMARK                         _______ _______ _______ _____ _____    ______ ____
ROOT
ATOM      1  C   UNL     1      -8.597   4.348 129.231  0.00  0.00    +0.000 A 
ATOM      2  N   UNL     1      -7.965   4.350 130.403  0.00  0.00    +0.000 NA
ATOM      3  C   UNL     1      -8.286   5.334 131.225  0.00  0.00    +0.000 A 
ATOM      4  N   UNL     1      -9.157   6.307 130.953  0.00  0.00    +0.000 NA
ATOM      5  C   UNL     1      -9.736   6.199 129.756  0.00  0.00    +0.000 A 
ATOM      6  N   UNL     1      -9.530   5.230 128.867  0.00  0.00    +0.000 NA
ENDROOT
BRANCH   3   7
ATOM      7  C   UNL     1      -7.651   5.304 132.536  0.00  0.00    +0.000 A 
ATOM      8  C   UNL     1      -8.353   5.026 133.721  0.00  0.00    +0.000 A 
ATOM      9  C   UNL     1      -7.732   5.139 134.968  0.00  0.00    +0.000 A 
ATOM     10  C   UNL     1      -6.395   5.537 135.056  0.00  0.00    +0.000 A 
ATOM     11  C   UNL     1      -5.670   5.758 133.890  0.00  0.00    +0.000 A 
ATOM     12  C   UNL     1      -6.293   5.647 132.647  0.00  0.00    +0.000 A 
BRANCH   8  13
ATOM     13  O   UNL     1      -9.670   4.641 133.742  0.00  0.00    +0.000 OA
ATOM     14  H   UNL     1     -10.221   5.381 134.056  0.00  0.00    +0.000 HD
ENDBRANCH   8  13
BRANCH  10  15
ATOM     15  O   UNL     1      -5.909   5.731 136.317  0.00  0.00    +0.000 OA
BRANCH  15  16
ATOM     16  C   UNL     1      -6.850   6.068 137.339  0.00  0.00    +0.000 C 
BRANCH  16  17
ATOM     17  C   UNL     1      -6.595   7.505 137.830  0.00  0.00    +0.000 C 
BRANCH  17  18
ATOM     18  C   UNL     1      -5.239   8.058 137.334  0.00  0.00    +0.000 C 
ATOM     19  C   UNL     1      -5.099   9.566 137.416  0.00  0.00    +0.000 C 
ENDBRANCH  17  18
BRANCH  17  20
ATOM     20  C   UNL     1      -7.756   8.413 137.366  0.00  0.00    +0.000 C 
BRANCH  20  21
ATOM     21  C   UNL     1      -9.115   7.927 137.871  0.00  0.00    +0.000 C 
BRANCH  21  22
ATOM     22  C   UNL     1     -10.136   9.053 137.939  0.00  0.00    +0.000 C 
ATOM     23  C   UNL     1      -9.757  10.029 139.041  0.00  0.00    +0.000 C 
ENDBRANCH  21  22
ENDBRANCH  20  21
ENDBRANCH  17  20
ENDBRANCH  16  17
ENDBRANCH  15  16
ENDBRANCH  10  15
ENDBRANCH   3   7
BRANCH   5  24
ATOM     24  C   UNL     1     -10.764   7.193 129.438  0.00  0.00    +0.000 A 
ATOM     25  C   UNL     1     -10.801   7.780 128.165  0.00  0.00    +0.000 A 
ATOM     26  C   UNL     1     -11.812   8.678 127.813  0.00  0.00    +0.000 A 
ATOM     27  C   UNL     1     -12.800   9.019 128.734  0.00  0.00    +0.000 A 
ATOM     28  C   UNL     1     -12.755   8.469 130.017  0.00  0.00    +0.000 A 
ATOM     29  C   UNL     1     -11.750   7.558 130.366  0.00  0.00    +0.000 A 
BRANCH  27  30
ATOM     30  O   UNL     1     -13.849   9.865 128.499  0.00  0.00    +0.000 OA
ATOM     31  C   UNL     1     -13.887  11.055 129.279  0.00  0.00    +0.000 C 
ENDBRANCH  27  30
ENDBRANCH   5  24
BRANCH   1  35
ATOM     32  C   UNL     1      -7.432   1.111 126.689  0.00  0.00    +0.000 A 
ATOM     33  C   UNL     1      -7.186   2.421 126.276  0.00  0.00    +0.000 A 
ATOM     34  C   UNL     1      -7.519   3.488 127.121  0.00  0.00    +0.000 A 
ATOM     35  C   UNL     1      -8.202   3.278 128.326  0.00  0.00    +0.000 A 
ATOM     36  C   UNL     1      -8.368   1.950 128.737  0.00  0.00    +0.000 A 
ATOM     37  C   UNL     1      -7.818   0.895 128.004  0.00  0.00    +0.000 A 
BRANCH  34  38
ATOM     38  O   UNL     1      -7.153   4.763 126.785  0.00  0.00    +0.000 OA
ATOM     39  H   UNL     1      -7.419   5.365 127.498  0.00  0.00    +0.000 HD
ENDBRANCH  34  38
BRANCH  32  40
ATOM     40  O   UNL     1      -7.439   0.144 125.716  0.00  0.00    +0.000 OA
BRANCH  40  41
ATOM     41  C   UNL     1      -6.177  -0.358 125.213  0.00  0.00    +0.000 C 
BRANCH  41  42
ATOM     42  C   UNL     1      -5.881  -1.905 125.375  0.00  0.00    +0.000 C 
BRANCH  42  43
ATOM     43  C   UNL     1      -5.648  -2.604 124.018  0.00  0.00    +0.000 C 
ATOM     44  C   UNL     1      -4.526  -3.534 123.599  0.00  0.00    +0.000 C 
ENDBRANCH  42  43
BRANCH  42  45
ATOM     45  C   UNL     1      -7.060  -2.554 126.133  0.00  0.00    +0.000 C 
BRANCH  45  46
ATOM     46  C   UNL     1      -7.829  -3.471 125.205  0.00  0.00    +0.000 C 
BRANCH  46  48
ATOM     47  C   UNL     1      -9.396  -3.069 123.372  0.00  0.00    +0.000 C 
ATOM     48  C   UNL     1      -9.251  -3.091 124.891  0.00  0.00    +0.000 C 
ENDBRANCH  46  48
ENDBRANCH  45  46
ENDBRANCH  42  45
ENDBRANCH  41  42
ENDBRANCH  40  41
ENDBRANCH  32  40
ENDBRANCH   1  35
TORSDOF 20
ENDMDL
MODEL 7
REMARK VINA RESULT:      -7.7      0.804      7.178
REMARK  Name = Bemotrizinol
REMARK  25 active torsions:
REMARK  status: ('A' for Active; 'I' for Inactive)
REMARK    1  A    between atoms: C_1  and  C_2
REMARK    2  A    between atoms: C_2  and  C_3
REMARK    3  A    between atoms: C_3  and  C_4
REMARK    4  A    between atoms: C_4  and  C_5
REMARK    5  A    between atoms: C_5  and  C_6
REMARK    6  A    between atoms: C_5  and  C_8
REMARK    7  A    between atoms: C_6  and  C_7
REMARK    8  A    between atoms: C_8  and  O_9
REMARK    9  A    between atoms: O_9  and  C_10
REMARK   10  A    between atoms: C_12  and  O_13
REMARK   11  A    between atoms: C_14  and  C_17
REMARK   12  A    between atoms: C_19  and  C_31
REMARK   13  A    between atoms: C_21  and  C_23
REMARK   14  A    between atoms: C_26  and  O_27
REMARK   15  A    between atoms: O_27  and  C_28
REMARK   16  A    between atoms: C_32  and  O_33
REMARK   17  A    between atoms: C_35  and  O_36
REMARK   18  A    between atoms: O_36  and  C_37
REMARK   19  A    between atoms: C_37  and  C_38
REMARK   20  A    between atoms: C_38  and  C_39
REMARK   21  A    between atoms: C_38  and  C_41
REMARK   22  A    between atoms: C_39  and  C_40
REMARK   23  A    between atoms: C_41  and  C_42
REMARK   24  A    between atoms: C_42  and  C_43
REMARK   25  A    between atoms: C_43  and  C_44
REMARK                            x       y       z     vdW  Elec       q    Type
REMARK                         _______ _______ _______ _____ _____    ______ ____
ROOT
ATOM      1  C   UNL     1      -5.121   3.226 125.826  0.00  0.00    +0.000 A 
ATOM      2  N   UNL     1      -5.475   2.045 126.330  0.00  0.00    +0.000 NA
ATOM      3  C   UNL     1      -6.295   1.327 125.583  0.00  0.00    +0.000 A 
ATOM      4  N   UNL     1      -6.793   1.707 124.407  0.00  0.00    +0.000 NA
ATOM      5  C   UNL     1      -6.364   2.902 123.996  0.00  0.00    +0.000 A 
ATOM      6  N   UNL     1      -5.504   3.692 124.636  0.00  0.00    +0.000 NA
ENDROOT
BRANCH   3   7
ATOM      7  C   UNL     1      -6.633   0.005 126.096  0.00  0.00    +0.000 A 
ATOM      8  C   UNL     1      -7.956  -0.425 126.291  0.00  0.00    +0.000 A 
ATOM      9  C   UNL     1      -8.231  -1.649 126.907  0.00  0.00    +0.000 A 
ATOM     10  C   UNL     1      -7.187  -2.466 127.348  0.00  0.00    +0.000 A 
ATOM     11  C   UNL     1      -5.871  -2.083 127.109  0.00  0.00    +0.000 A 
ATOM     12  C   UNL     1      -5.600  -0.859 126.495  0.00  0.00    +0.000 A 
BRANCH   8  13
ATOM     13  O   UNL     1      -9.050   0.309 125.906  0.00  0.00    +0.000 OA
ATOM     14  H   UNL     1      -9.092   1.129 126.430  0.00  0.00    +0.000 HD
ENDBRANCH   8  13
BRANCH  10  15
ATOM     15  O   UNL     1      -7.552  -3.584 128.041  0.00  0.00    +0.000 OA
BRANCH  15  16
ATOM     16  C   UNL     1      -8.261  -3.396 129.268  0.00  0.00    +0.000 C 
BRANCH  16  17
ATOM     17  C   UNL     1      -7.267  -3.347 130.444  0.00  0.00    +0.000 C 
BRANCH  17  18
ATOM     18  C   UNL     1      -6.008  -4.205 130.177  0.00  0.00    +0.000 C 
ATOM     19  C   UNL     1      -5.457  -4.920 131.396  0.00  0.00    +0.000 C 
ENDBRANCH  17  18
BRANCH  17  20
ATOM     20  C   UNL     1      -6.877  -1.878 130.718  0.00  0.00    +0.000 C 
BRANCH  20  21
ATOM     21  C   UNL     1      -8.051  -0.917 130.532  0.00  0.00    +0.000 C 
BRANCH  21  22
ATOM     22  C   UNL     1      -7.628   0.538 130.669  0.00  0.00    +0.000 C 
ATOM     23  C   UNL     1      -8.805   1.378 131.136  0.00  0.00    +0.000 C 
ENDBRANCH  21  22
ENDBRANCH  20  21
ENDBRANCH  17  20
ENDBRANCH  16  17
ENDBRANCH  15  16
ENDBRANCH  10  15
ENDBRANCH   3   7
BRANCH   5  24
ATOM     24  C   UNL     1      -6.811   3.334 122.670  0.00  0.00    +0.000 A 
ATOM     25  C   UNL     1      -5.873   3.759 121.718  0.00  0.00    +0.000 A 
ATOM     26  C   UNL     1      -6.265   4.110 120.423  0.00  0.00    +0.000 A 
ATOM     27  C   UNL     1      -7.610   4.057 120.059  0.00  0.00    +0.000 A 
ATOM     28  C   UNL     1      -8.559   3.670 121.008  0.00  0.00    +0.000 A 
ATOM     29  C   UNL     1      -8.164   3.305 122.301  0.00  0.00    +0.000 A 
BRANCH  27  30
ATOM     30  O   UNL     1      -8.110   4.352 118.821  0.00  0.00    +0.000 OA
ATOM     31  C   UNL     1      -9.525   4.293 118.682  0.00  0.00    +0.000 C 
ENDBRANCH  27  30
ENDBRANCH   5  24
BRANCH   1  35
ATOM     32  C   UNL     1      -2.626   5.674 128.292  0.00  0.00    +0.000 A 
ATOM     33  C   UNL     1      -2.164   4.420 127.893  0.00  0.00    +0.000 A 
ATOM     34  C   UNL     1      -2.952   3.629 127.045  0.00  0.00    +0.000 A 
ATOM     35  C   UNL     1      -4.247   4.017 126.681  0.00  0.00    +0.000 A 
ATOM     36  C   UNL     1      -4.647   5.310 127.042  0.00  0.00    +0.000 A 
ATOM     37  C   UNL     1      -3.764   6.184 127.681  0.00  0.00    +0.000 A 
BRANCH  34  38
ATOM     38  O   UNL     1      -2.446   2.462 126.538  0.00  0.00    +0.000 OA
ATOM     39  H   UNL     1      -2.977   1.720 126.869  0.00  0.00    +0.000 HD
ENDBRANCH  34  38
BRANCH  32  40
ATOM     40  O   UNL     1      -2.018   6.242 129.382  0.00  0.00    +0.000 OA
BRANCH  40  41
ATOM     41  C   UNL     1      -2.840   6.810 130.431  0.00  0.00    +0.000 C 
BRANCH  41  42
ATOM     42  C   UNL     1      -2.814   6.107 131.850  0.00  0.00    +0.000 C 
BRANCH  42  43
ATOM     43  C   UNL     1      -1.848   6.805 132.833  0.00  0.00    +0.000 C 
ATOM     44  C   UNL     1      -0.400   7.209 132.629  0.00  0.00    +0.000 C 
ENDBRANCH  42  43
BRANCH  42  45
ATOM     45  C   UNL     1      -2.427   4.625 131.658  0.00  0.00    +0.000 C 
BRANCH  45  46
ATOM     46  C   UNL     1      -3.644   3.744 131.851  0.00  0.00    +0.000 C 
BRANCH  46  48
ATOM     47  C   UNL     1      -5.387   3.590 130.143  0.00  0.00    +0.000 C 
ATOM     48  C   UNL     1      -4.105   2.945 130.661  0.00  0.00    +0.000 C 
ENDBRANCH  46  48
ENDBRANCH  45  46
ENDBRANCH  42  45
ENDBRANCH  41  42
ENDBRANCH  40  41
ENDBRANCH  32  40
ENDBRANCH   1  35
TORSDOF 20
ENDMDL
MODEL 8
REMARK VINA RESULT:      -7.5      1.413      2.852
REMARK  Name = Bemotrizinol
REMARK  25 active torsions:
REMARK  status: ('A' for Active; 'I' for Inactive)
REMARK    1  A    between atoms: C_1  and  C_2
REMARK    2  A    between atoms: C_2  and  C_3
REMARK    3  A    between atoms: C_3  and  C_4
REMARK    4  A    between atoms: C_4  and  C_5
REMARK    5  A    between atoms: C_5  and  C_6
REMARK    6  A    between atoms: C_5  and  C_8
REMARK    7  A    between atoms: C_6  and  C_7
REMARK    8  A    between atoms: C_8  and  O_9
REMARK    9  A    between atoms: O_9  and  C_10
REMARK   10  A    between atoms: C_12  and  O_13
REMARK   11  A    between atoms: C_14  and  C_17
REMARK   12  A    between atoms: C_19  and  C_31
REMARK   13  A    between atoms: C_21  and  C_23
REMARK   14  A    between atoms: C_26  and  O_27
REMARK   15  A    between atoms: O_27  and  C_28
REMARK   16  A    between atoms: C_32  and  O_33
REMARK   17  A    between atoms: C_35  and  O_36
REMARK   18  A    between atoms: O_36  and  C_37
REMARK   19  A    between atoms: C_37  and  C_38
REMARK   20  A    between atoms: C_38  and  C_39
REMARK   21  A    between atoms: C_38  and  C_41
REMARK   22  A    between atoms: C_39  and  C_40
REMARK   23  A    between atoms: C_41  and  C_42
REMARK   24  A    between atoms: C_42  and  C_43
REMARK   25  A    between atoms: C_43  and  C_44
REMARK                            x       y       z     vdW  Elec       q    Type
REMARK                         _______ _______ _______ _____ _____    ______ ____
ROOT
ATOM      1  C   UNL     1      -6.821   0.937 125.328  0.00  0.00    +0.000 A 
ATOM      2  N   UNL     1      -6.010   1.588 126.159  0.00  0.00    +0.000 NA
ATOM      3  C   UNL     1      -5.548   2.746 125.719  0.00  0.00    +0.000 A 
ATOM      4  N   UNL     1      -5.815   3.274 124.524  0.00  0.00    +0.000 NA
ATOM      5  C   UNL     1      -6.644   2.540 123.779  0.00  0.00    +0.000 A 
ATOM      6  N   UNL     1      -7.209   1.388 124.133  0.00  0.00    +0.000 NA
ENDROOT
BRANCH   3   7
ATOM      7  C   UNL     1      -4.716   3.497 126.650  0.00  0.00    +0.000 A 
ATOM      8  C   UNL     1      -5.246   4.363 127.623  0.00  0.00    +0.000 A 
ATOM      9  C   UNL     1      -4.408   5.163 128.405  0.00  0.00    +0.000 A 
ATOM     10  C   UNL     1      -3.023   5.119 128.227  0.00  0.00    +0.000 A 
ATOM     11  C   UNL     1      -2.480   4.224 127.311  0.00  0.00    +0.000 A 
ATOM     12  C   UNL     1      -3.319   3.428 126.529  0.00  0.00    +0.000 A 
BRANCH   8  13
ATOM     13  O   UNL     1      -6.590   4.489 127.866  0.00  0.00    +0.000 OA
ATOM     14  H   UNL     1      -7.081   3.844 127.324  0.00  0.00    +0.000 HD
ENDBRANCH   8  13
BRANCH  10  15
ATOM     15  O   UNL     1      -2.296   6.017 128.953  0.00  0.00    +0.000 OA
BRANCH  15  16
ATOM     16  C   UNL     1      -3.017   7.034 129.653  0.00  0.00    +0.000 C 
BRANCH  16  17
ATOM     17  C   UNL     1      -2.771   6.901 131.167  0.00  0.00    +0.000 C 
BRANCH  17  18
ATOM     18  C   UNL     1      -1.418   6.221 131.479  0.00  0.00    +0.000 C 
ATOM     19  C   UNL     1      -1.523   4.919 132.252  0.00  0.00    +0.000 C 
ENDBRANCH  17  18
BRANCH  17  20
ATOM     20  C   UNL     1      -2.841   8.300 131.819  0.00  0.00    +0.000 C 
BRANCH  20  21
ATOM     21  C   UNL     1      -2.514   8.266 133.311  0.00  0.00    +0.000 C 
BRANCH  21  22
ATOM     22  C   UNL     1      -2.105   9.634 133.839  0.00  0.00    +0.000 C 
ATOM     23  C   UNL     1      -2.208  10.668 132.730  0.00  0.00    +0.000 C 
ENDBRANCH  21  22
ENDBRANCH  20  21
ENDBRANCH  17  20
ENDBRANCH  16  17
ENDBRANCH  15  16
ENDBRANCH  10  15
ENDBRANCH   3   7
BRANCH   5  24
ATOM     24  C   UNL     1      -7.040   3.112 122.490  0.00  0.00    +0.000 A 
ATOM     25  C   UNL     1      -6.059   3.538 121.583  0.00  0.00    +0.000 A 
ATOM     26  C   UNL     1      -6.405   4.023 120.319  0.00  0.00    +0.000 A 
ATOM     27  C   UNL     1      -7.744   4.104 119.942  0.00  0.00    +0.000 A 
ATOM     28  C   UNL     1      -8.733   3.717 120.849  0.00  0.00    +0.000 A 
ATOM     29  C   UNL     1      -8.385   3.218 122.110  0.00  0.00    +0.000 A 
BRANCH  27  30
ATOM     30  O   UNL     1      -8.204   4.538 118.729  0.00  0.00    +0.000 OA
ATOM     31  C   UNL     1      -9.605   4.422 118.507  0.00  0.00    +0.000 C 
ENDBRANCH  27  30
ENDBRANCH   5  24
BRANCH   1  35
ATOM     32  C   UNL     1      -8.064  -2.910 126.723  0.00  0.00    +0.000 A 
ATOM     33  C   UNL     1      -9.033  -1.969 126.376  0.00  0.00    +0.000 A 
ATOM     34  C   UNL     1      -8.638  -0.722 125.871  0.00  0.00    +0.000 A 
ATOM     35  C   UNL     1      -7.289  -0.353 125.817  0.00  0.00    +0.000 A 
ATOM     36  C   UNL     1      -6.346  -1.347 126.107  0.00  0.00    +0.000 A 
ATOM     37  C   UNL     1      -6.743  -2.659 126.376  0.00  0.00    +0.000 A 
BRANCH  34  38
ATOM     38  O   UNL     1      -9.581   0.150 125.398  0.00  0.00    +0.000 OA
ATOM     39  H   UNL     1      -9.209   0.635 124.644  0.00  0.00    +0.000 HD
ENDBRANCH  34  38
BRANCH  32  40
ATOM     40  O   UNL     1      -8.462  -3.942 127.536  0.00  0.00    +0.000 OA
BRANCH  40  41
ATOM     41  C   UNL     1      -8.371  -3.783 128.972  0.00  0.00    +0.000 C 
BRANCH  41  42
ATOM     42  C   UNL     1      -7.370  -2.689 129.530  0.00  0.00    +0.000 C 
BRANCH  42  43
ATOM     43  C   UNL     1      -6.183  -3.315 130.295  0.00  0.00    +0.000 C 
ATOM     44  C   UNL     1      -5.860  -4.778 130.532  0.00  0.00    +0.000 C 
ENDBRANCH  42  43
BRANCH  42  45
ATOM     45  C   UNL     1      -8.158  -1.719 130.437  0.00  0.00    +0.000 C 
BRANCH  45  46
ATOM     46  C   UNL     1      -7.387  -0.428 130.606  0.00  0.00    +0.000 C 
BRANCH  46  48
ATOM     47  C   UNL     1      -8.172   1.310 129.075  0.00  0.00    +0.000 C 
ATOM     48  C   UNL     1      -7.036   0.329 129.353  0.00  0.00    +0.000 C 
ENDBRANCH  46  48
ENDBRANCH  45  46
ENDBRANCH  42  45
ENDBRANCH  41  42
ENDBRANCH  40  41
ENDBRANCH  32  40
ENDBRANCH   1  35
TORSDOF 20
ENDMDL
MODEL 9
REMARK VINA RESULT:      -7.3      5.395      7.112
REMARK  Name = Bemotrizinol
REMARK  25 active torsions:
REMARK  status: ('A' for Active; 'I' for Inactive)
REMARK    1  A    between atoms: C_1  and  C_2
REMARK    2  A    between atoms: C_2  and  C_3
REMARK    3  A    between atoms: C_3  and  C_4
REMARK    4  A    between atoms: C_4  and  C_5
REMARK    5  A    between atoms: C_5  and  C_6
REMARK    6  A    between atoms: C_5  and  C_8
REMARK    7  A    between atoms: C_6  and  C_7
REMARK    8  A    between atoms: C_8  and  O_9
REMARK    9  A    between atoms: O_9  and  C_10
REMARK   10  A    between atoms: C_12  and  O_13
REMARK   11  A    between atoms: C_14  and  C_17
REMARK   12  A    between atoms: C_19  and  C_31
REMARK   13  A    between atoms: C_21  and  C_23
REMARK   14  A    between atoms: C_26  and  O_27
REMARK   15  A    between atoms: O_27  and  C_28
REMARK   16  A    between atoms: C_32  and  O_33
REMARK   17  A    between atoms: C_35  and  O_36
REMARK   18  A    between atoms: O_36  and  C_37
REMARK   19  A    between atoms: C_37  and  C_38
REMARK   20  A    between atoms: C_38  and  C_39
REMARK   21  A    between atoms: C_38  and  C_41
REMARK   22  A    between atoms: C_39  and  C_40
REMARK   23  A    between atoms: C_41  and  C_42
REMARK   24  A    between atoms: C_42  and  C_43
REMARK   25  A    between atoms: C_43  and  C_44
REMARK                            x       y       z     vdW  Elec       q    Type
REMARK                         _______ _______ _______ _____ _____    ______ ____
ROOT
ATOM      1  C   UNL     1      -8.150   4.102 130.869  0.00  0.00    +0.000 A 
ATOM      2  N   UNL     1      -6.989   4.620 131.266  0.00  0.00    +0.000 NA
ATOM      3  C   UNL     1      -6.906   5.938 131.224  0.00  0.00    +0.000 A 
ATOM      4  N   UNL     1      -7.871   6.754 130.800  0.00  0.00    +0.000 NA
ATOM      5  C   UNL     1      -8.992   6.128 130.435  0.00  0.00    +0.000 A 
ATOM      6  N   UNL     1      -9.209   4.815 130.480  0.00  0.00    +0.000 NA
ENDROOT
BRANCH   3   7
ATOM      7  C   UNL     1      -5.664   6.516 131.722  0.00  0.00    +0.000 A 
ATOM      8  C   UNL     1      -4.813   7.302 130.927  0.00  0.00    +0.000 A 
ATOM      9  C   UNL     1      -3.570   7.724 131.405  0.00  0.00    +0.000 A 
ATOM     10  C   UNL     1      -3.148   7.364 132.688  0.00  0.00    +0.000 A 
ATOM     11  C   UNL     1      -4.004   6.637 133.509  0.00  0.00    +0.000 A 
ATOM     12  C   UNL     1      -5.244   6.214 133.028  0.00  0.00    +0.000 A 
BRANCH   8  13
ATOM     13  O   UNL     1      -5.128   7.697 129.652  0.00  0.00    +0.000 OA
ATOM     14  H   UNL     1      -4.879   6.996 129.022  0.00  0.00    +0.000 HD
ENDBRANCH   8  13
BRANCH  10  15
ATOM     15  O   UNL     1      -1.875   7.723 133.024  0.00  0.00    +0.000 OA
BRANCH  15  16
ATOM     16  C   UNL     1      -1.715   8.642 134.107  0.00  0.00    +0.000 C 
BRANCH  16  17
ATOM     17  C   UNL     1      -2.272  10.022 133.709  0.00  0.00    +0.000 C 
BRANCH  17  18
ATOM     18  C   UNL     1      -2.703  10.853 134.939  0.00  0.00    +0.000 C 
ATOM     19  C   UNL     1      -2.410  10.204 136.279  0.00  0.00    +0.000 C 
ENDBRANCH  17  18
BRANCH  17  20
ATOM     20  C   UNL     1      -1.207  10.781 132.885  0.00  0.00    +0.000 C 
BRANCH  20  21
ATOM     21  C   UNL     1       0.209  10.560 133.417  0.00  0.00    +0.000 C 
BRANCH  21  22
ATOM     22  C   UNL     1       1.092  11.783 133.217  0.00  0.00    +0.000 C 
ATOM     23  C   UNL     1       0.817  12.403 131.856  0.00  0.00    +0.000 C 
ENDBRANCH  21  22
ENDBRANCH  20  21
ENDBRANCH  17  20
ENDBRANCH  16  17
ENDBRANCH  15  16
ENDBRANCH  10  15
ENDBRANCH   3   7
BRANCH   5  24
ATOM     24  C   UNL     1     -10.115   6.980 130.041  0.00  0.00    +0.000 A 
ATOM     25  C   UNL     1     -11.304   6.960 130.784  0.00  0.00    +0.000 A 
ATOM     26  C   UNL     1     -12.366   7.813 130.473  0.00  0.00    +0.000 A 
ATOM     27  C   UNL     1     -12.265   8.696 129.399  0.00  0.00    +0.000 A 
ATOM     28  C   UNL     1     -11.100   8.702 128.629  0.00  0.00    +0.000 A 
ATOM     29  C   UNL     1     -10.030   7.857 128.950  0.00  0.00    +0.000 A 
BRANCH  27  30
ATOM     30  O   UNL     1     -13.224   9.592 129.013  0.00  0.00    +0.000 OA
ATOM     31  C   UNL     1     -13.402  10.726 129.854  0.00  0.00    +0.000 C 
ENDBRANCH  27  30
ENDBRANCH   5  24
BRANCH   1  35
ATOM     32  C   UNL     1      -8.271  -0.172 130.782  0.00  0.00    +0.000 A 
ATOM     33  C   UNL     1      -9.071   0.510 131.699  0.00  0.00    +0.000 A 
ATOM     34  C   UNL     1      -9.077   1.912 131.704  0.00  0.00    +0.000 A 
ATOM     35  C   UNL     1      -8.208   2.647 130.887  0.00  0.00    +0.000 A 
ATOM     36  C   UNL     1      -7.474   1.930 129.935  0.00  0.00    +0.000 A 
ATOM     37  C   UNL     1      -7.654   0.555 129.773  0.00  0.00    +0.000 A 
BRANCH  34  38
ATOM     38  O   UNL     1      -9.961   2.587 132.501  0.00  0.00    +0.000 OA
ATOM     39  H   UNL     1     -10.425   1.947 133.065  0.00  0.00    +0.000 HD
ENDBRANCH  34  38
BRANCH  32  40
ATOM     40  O   UNL     1      -8.015  -1.494 131.045  0.00  0.00    +0.000 OA
BRANCH  40  41
ATOM     41  C   UNL     1      -6.654  -1.980 130.952  0.00  0.00    +0.000 C 
BRANCH  41  42
ATOM     42  C   UNL     1      -6.295  -2.943 129.748  0.00  0.00    +0.000 C 
BRANCH  42  43
ATOM     43  C   UNL     1      -7.380  -2.937 128.648  0.00  0.00    +0.000 C 
ATOM     44  C   UNL     1      -8.657  -3.750 128.557  0.00  0.00    +0.000 C 
ENDBRANCH  42  43
BRANCH  42  45
ATOM     45  C   UNL     1      -6.083  -4.368 130.303  0.00  0.00    +0.000 C 
BRANCH  45  46
ATOM     46  C   UNL     1      -5.146  -4.325 131.492  0.00  0.00    +0.000 C 
BRANCH  46  48
ATOM     47  C   UNL     1      -4.304  -5.607 133.396  0.00  0.00    +0.000 C 
ATOM     48  C   UNL     1      -5.569  -5.080 132.724  0.00  0.00    +0.000 C 
ENDBRANCH  46  48
ENDBRANCH  45  46
ENDBRANCH  42  45
ENDBRANCH  41  42
ENDBRANCH  40  41
ENDBRANCH  32  40
ENDBRANCH   1  35
TORSDOF 20
ENDMDL
