MODEL 1
REMARK VINA RESULT:      -8.0      0.000      0.000
REMARK  Name = Benazepril
REMARK  12 active torsions:
REMARK  status: ('A' for Active; 'I' for Inactive)
REMARK    1  A    between atoms: C_2  and  N_18
REMARK    2  A    between atoms: N_11  and  C_12
REMARK    3  A    between atoms: C_12  and  C_13
REMARK    4  A    between atoms: C_13  and  O_14
REMARK    5  A    between atoms: N_18  and  C_19
REMARK    6  A    between atoms: C_19  and  C_20
REMARK    7  A    between atoms: C_19  and  C_28
REMARK    8  A    between atoms: C_20  and  C_21
REMARK    9  A    between atoms: C_21  and  C_22
REMARK   10  A    between atoms: C_28  and  O_30
REMARK   11  A    between atoms: O_30  and  C_31
REMARK   12  A    between atoms: C_31  and  C_32
REMARK                            x       y       z     vdW  Elec       q    Type
REMARK                         _______ _______ _______ _____ _____    ______ ____
ROOT
ATOM      1  C   UNL     1      -7.568   0.245 125.014  0.00  0.00    +0.000 C 
ATOM      2  C   UNL     1      -6.138   0.270 125.578  0.00  0.00    +0.000 C 
ATOM      3  C   UNL     1      -5.607  -1.139 125.756  0.00  0.00    +0.000 C 
ATOM      4  C   UNL     1      -6.099  -1.772 127.025  0.00  0.00    +0.000 A 
ATOM      5  C   UNL     1      -5.200  -1.855 128.112  0.00  0.00    +0.000 A 
ATOM      6  C   UNL     1      -5.573  -2.459 129.301  0.00  0.00    +0.000 A 
ATOM      7  C   UNL     1      -6.854  -2.995 129.404  0.00  0.00    +0.000 A 
ATOM      8  C   UNL     1      -7.774  -2.902 128.323  0.00  0.00    +0.000 A 
ATOM      9  C   UNL     1      -7.412  -2.270 127.112  0.00  0.00    +0.000 A 
ATOM     10  N   UNL     1      -8.334  -1.972 126.031  0.00  0.00    +0.000 N 
ATOM     11  C   UNL     1      -8.636  -0.671 125.708  0.00  0.00    +0.000 C 
ATOM     12  O   UNL     1      -9.829  -0.336 125.777  0.00  0.00    +0.000 OA
ENDROOT
BRANCH   1  13
ATOM     13  N   UNL     1      -8.038   1.637 124.757  0.00  0.00    +0.000 NA
ATOM     14  H   UNL     1      -8.308   1.742 123.776  0.00  0.00    +0.000 HD
BRANCH  13  15
ATOM     15  C   UNL     1      -7.192   2.800 125.142  0.00  0.00    +0.000 C 
BRANCH  15  16
ATOM     16  C   UNL     1      -7.814   3.537 126.359  0.00  0.00    +0.000 C 
ATOM     17  O   UNL     1      -8.575   4.514 126.290  0.00  0.00    +0.000 OA
BRANCH  16  18
ATOM     18  O   UNL     1      -7.405   2.963 127.531  0.00  0.00    +0.000 OA
BRANCH  18  19
ATOM     19  C   UNL     1      -8.413   2.218 128.227  0.00  0.00    +0.000 C 
ATOM     20  C   UNL     1      -7.796   0.972 128.841  0.00  0.00    +0.000 C 
ENDBRANCH  18  19
ENDBRANCH  16  18
ENDBRANCH  15  16
BRANCH  15  21
ATOM     21  C   UNL     1      -6.995   3.849 124.029  0.00  0.00    +0.000 C 
BRANCH  21  22
ATOM     22  C   UNL     1      -5.766   3.711 123.157  0.00  0.00    +0.000 C 
BRANCH  22  23
ATOM     23  C   UNL     1      -5.852   3.971 121.701  0.00  0.00    +0.000 A 
ATOM     24  C   UNL     1      -4.922   4.781 121.059  0.00  0.00    +0.000 A 
ATOM     25  C   UNL     1      -5.228   5.304 119.816  0.00  0.00    +0.000 A 
ATOM     26  C   UNL     1      -6.432   4.969 119.195  0.00  0.00    +0.000 A 
ATOM     27  C   UNL     1      -7.325   4.095 119.803  0.00  0.00    +0.000 A 
ATOM     28  C   UNL     1      -7.054   3.634 121.077  0.00  0.00    +0.000 A 
ENDBRANCH  22  23
ENDBRANCH  21  22
ENDBRANCH  15  21
ENDBRANCH  13  15
ENDBRANCH   1  13
BRANCH  10  29
ATOM     29  C   UNL     1      -9.209  -2.977 125.421  0.00  0.00    +0.000 C 
BRANCH  29  30
ATOM     30  C   UNL     1      -9.279  -3.257 123.869  0.00  0.00    +0.000 C 
ATOM     31  O   UNL     1      -8.274  -3.139 123.167  0.00  0.00    +0.000 OA
BRANCH  30  32
ATOM     32  O   UNL     1     -10.427  -3.615 123.261  0.00  0.00    +0.000 OA
ATOM     33  H   UNL     1     -11.180  -3.863 123.848  0.00  0.00    +0.000 HD
ENDBRANCH  30  32
ENDBRANCH  29  30
ENDBRANCH  10  29
TORSDOF 11
ENDMDL
MODEL 2
REMARK VINA RESULT:      -7.6      2.432      4.189
REMARK  Name = Benazepril
REMARK  12 active torsions:
REMARK  status: ('A' for Active; 'I' for Inactive)
REMARK    1  A    between atoms: C_2  and  N_18
REMARK    2  A    between atoms: N_11  and  C_12
REMARK    3  A    between atoms: C_12  and  C_13
REMARK    4  A    between atoms: C_13  and  O_14
REMARK    5  A    between atoms: N_18  and  C_19
REMARK    6  A    between atoms: C_19  and  C_20
REMARK    7  A    between atoms: C_19  and  C_28
REMARK    8  A    between atoms: C_20  and  C_21
REMARK    9  A    between atoms: C_21  and  C_22
REMARK   10  A    between atoms: C_28  and  O_30
REMARK   11  A    between atoms: O_30  and  C_31
REMARK   12  A    between atoms: C_31  and  C_32
REMARK                            x       y       z     vdW  Elec       q    Type
REMARK                         _______ _______ _______ _____ _____    ______ ____
ROOT
ATOM      1  C   UNL     1      -7.882   1.007 125.838  0.00  0.00    +0.000 C 
ATOM      2  C   UNL     1      -6.693   0.865 126.803  0.00  0.00    +0.000 C 
ATOM      3  C   UNL     1      -6.041  -0.496 126.651  0.00  0.00    +0.000 C 
ATOM      4  C   UNL     1      -6.781  -1.565 127.399  0.00  0.00    +0.000 A 
ATOM      5  C   UNL     1      -6.231  -2.017 128.620  0.00  0.00    +0.000 A 
ATOM      6  C   UNL     1      -6.841  -3.026 129.347  0.00  0.00    +0.000 A 
ATOM      7  C   UNL     1      -8.006  -3.599 128.845  0.00  0.00    +0.000 A 
ATOM      8  C   UNL     1      -8.580  -3.140 127.626  0.00  0.00    +0.000 A 
ATOM      9  C   UNL     1      -7.978  -2.097 126.887  0.00  0.00    +0.000 A 
ATOM     10  N   UNL     1      -8.583  -1.449 125.737  0.00  0.00    +0.000 N 
ATOM     11  C   UNL     1      -8.962  -0.129 125.797  0.00  0.00    +0.000 C 
ATOM     12  O   UNL     1     -10.159   0.123 125.591  0.00  0.00    +0.000 OA
ENDROOT
BRANCH   1  13
ATOM     13  N   UNL     1      -8.452   2.382 125.933  0.00  0.00    +0.000 NA
ATOM     14  H   UNL     1      -9.455   2.335 126.126  0.00  0.00    +0.000 HD
BRANCH  13  15
ATOM     15  C   UNL     1      -8.227   3.368 124.840  0.00  0.00    +0.000 C 
BRANCH  15  16
ATOM     16  C   UNL     1      -8.417   2.688 123.457  0.00  0.00    +0.000 C 
ATOM     17  O   UNL     1      -9.475   2.186 123.047  0.00  0.00    +0.000 OA
BRANCH  16  18
ATOM     18  O   UNL     1      -7.251   2.711 122.744  0.00  0.00    +0.000 OA
BRANCH  18  19
ATOM     19  C   UNL     1      -7.316   3.412 121.494  0.00  0.00    +0.000 C 
ATOM     20  C   UNL     1      -5.910   3.723 121.007  0.00  0.00    +0.000 C 
ENDBRANCH  18  19
ENDBRANCH  16  18
ENDBRANCH  15  16
BRANCH  15  21
ATOM     21  C   UNL     1      -6.829   4.019 124.837  0.00  0.00    +0.000 C 
BRANCH  21  22
ATOM     22  C   UNL     1      -6.274   4.473 126.170  0.00  0.00    +0.000 C 
BRANCH  22  23
ATOM     23  C   UNL     1      -4.822   4.372 126.445  0.00  0.00    +0.000 A 
ATOM     24  C   UNL     1      -4.082   3.277 126.014  0.00  0.00    +0.000 A 
ATOM     25  C   UNL     1      -2.850   3.026 126.592  0.00  0.00    +0.000 A 
ATOM     26  C   UNL     1      -2.339   3.898 127.552  0.00  0.00    +0.000 A 
ATOM     27  C   UNL     1      -3.045   5.037 127.923  0.00  0.00    +0.000 A 
ATOM     28  C   UNL     1      -4.307   5.247 127.403  0.00  0.00    +0.000 A 
ENDBRANCH  22  23
ENDBRANCH  21  22
ENDBRANCH  15  21
ENDBRANCH  13  15
ENDBRANCH   1  13
BRANCH  10  29
ATOM     29  C   UNL     1      -9.092  -2.183 124.575  0.00  0.00    +0.000 C 
BRANCH  29  30
ATOM     30  C   UNL     1      -9.041  -1.634 123.096  0.00  0.00    +0.000 C 
ATOM     31  O   UNL     1      -8.124  -1.958 122.341  0.00  0.00    +0.000 OA
BRANCH  30  32
ATOM     32  O   UNL     1      -9.977  -0.792 122.616  0.00  0.00    +0.000 OA
ATOM     33  H   UNL     1     -10.493  -1.103 121.834  0.00  0.00    +0.000 HD
ENDBRANCH  30  32
ENDBRANCH  29  30
ENDBRANCH  10  29
TORSDOF 11
ENDMDL
MODEL 3
REMARK VINA RESULT:      -7.6      2.106      2.671
REMARK  Name = Benazepril
REMARK  12 active torsions:
REMARK  status: ('A' for Active; 'I' for Inactive)
REMARK    1  A    between atoms: C_2  and  N_18
REMARK    2  A    between atoms: N_11  and  C_12
REMARK    3  A    between atoms: C_12  and  C_13
REMARK    4  A    between atoms: C_13  and  O_14
REMARK    5  A    between atoms: N_18  and  C_19
REMARK    6  A    between atoms: C_19  and  C_20
REMARK    7  A    between atoms: C_19  and  C_28
REMARK    8  A    between atoms: C_20  and  C_21
REMARK    9  A    between atoms: C_21  and  C_22
REMARK   10  A    between atoms: C_28  and  O_30
REMARK   11  A    between atoms: O_30  and  C_31
REMARK   12  A    between atoms: C_31  and  C_32
REMARK                            x       y       z     vdW  Elec       q    Type
REMARK                         _______ _______ _______ _____ _____    ______ ____
ROOT
ATOM      1  C   UNL     1      -6.400   0.588 125.931  0.00  0.00    +0.000 C 
ATOM      2  C   UNL     1      -5.967   0.356 127.388  0.00  0.00    +0.000 C 
ATOM      3  C   UNL     1      -5.554  -1.087 127.601  0.00  0.00    +0.000 C 
ATOM      4  C   UNL     1      -6.735  -1.989 127.805  0.00  0.00    +0.000 A 
ATOM      5  C   UNL     1      -7.015  -2.421 129.121  0.00  0.00    +0.000 A 
ATOM      6  C   UNL     1      -8.067  -3.284 129.380  0.00  0.00    +0.000 A 
ATOM      7  C   UNL     1      -8.842  -3.729 128.313  0.00  0.00    +0.000 A 
ATOM      8  C   UNL     1      -8.582  -3.287 126.985  0.00  0.00    +0.000 A 
ATOM      9  C   UNL     1      -7.524  -2.391 126.712  0.00  0.00    +0.000 A 
ATOM     10  N   UNL     1      -7.298  -1.752 125.429  0.00  0.00    +0.000 N 
ATOM     11  C   UNL     1      -7.442  -0.393 125.288  0.00  0.00    +0.000 C 
ATOM     12  O   UNL     1      -8.279   0.003 124.462  0.00  0.00    +0.000 OA
ENDROOT
BRANCH   1  13
ATOM     13  N   UNL     1      -6.713   2.031 125.717  0.00  0.00    +0.000 NA
ATOM     14  H   UNL     1      -7.673   2.136 125.378  0.00  0.00    +0.000 HD
BRANCH  13  15
ATOM     15  C   UNL     1      -5.821   2.878 124.879  0.00  0.00    +0.000 C 
BRANCH  15  16
ATOM     16  C   UNL     1      -5.116   3.947 125.756  0.00  0.00    +0.000 C 
ATOM     17  O   UNL     1      -5.621   5.022 126.116  0.00  0.00    +0.000 OA
BRANCH  16  18
ATOM     18  O   UNL     1      -3.849   3.547 126.081  0.00  0.00    +0.000 OA
BRANCH  18  19
ATOM     19  C   UNL     1      -3.192   4.352 127.069  0.00  0.00    +0.000 C 
ATOM     20  C   UNL     1      -3.271   3.665 128.424  0.00  0.00    +0.000 C 
ENDBRANCH  18  19
ENDBRANCH  16  18
ENDBRANCH  15  16
BRANCH  15  21
ATOM     21  C   UNL     1      -6.532   3.627 123.734  0.00  0.00    +0.000 C 
BRANCH  21  22
ATOM     22  C   UNL     1      -6.345   3.089 122.332  0.00  0.00    +0.000 C 
BRANCH  22  23
ATOM     23  C   UNL     1      -6.474   3.990 121.164  0.00  0.00    +0.000 A 
ATOM     24  C   UNL     1      -7.563   3.901 120.303  0.00  0.00    +0.000 A 
ATOM     25  C   UNL     1      -7.476   4.473 119.047  0.00  0.00    +0.000 A 
ATOM     26  C   UNL     1      -6.332   5.180 118.678  0.00  0.00    +0.000 A 
ATOM     27  C   UNL     1      -5.277   5.336 119.570  0.00  0.00    +0.000 A 
ATOM     28  C   UNL     1      -5.331   4.701 120.795  0.00  0.00    +0.000 A 
ENDBRANCH  22  23
ENDBRANCH  21  22
ENDBRANCH  15  21
ENDBRANCH  13  15
ENDBRANCH   1  13
BRANCH  10  29
ATOM     29  C   UNL     1      -7.197  -2.493 124.168  0.00  0.00    +0.000 C 
BRANCH  29  30
ATOM     30  C   UNL     1      -5.941  -2.439 123.213  0.00  0.00    +0.000 C 
ATOM     31  O   UNL     1      -6.020  -1.903 122.108  0.00  0.00    +0.000 OA
BRANCH  30  32
ATOM     32  O   UNL     1      -4.757  -2.981 123.561  0.00  0.00    +0.000 OA
ATOM     33  H   UNL     1      -4.076  -3.048 122.852  0.00  0.00    +0.000 HD
ENDBRANCH  30  32
ENDBRANCH  29  30
ENDBRANCH  10  29
TORSDOF 11
ENDMDL
MODEL 4
REMARK VINA RESULT:      -7.4      1.897      8.116
REMARK  Name = Benazepril
REMARK  12 active torsions:
REMARK  status: ('A' for Active; 'I' for Inactive)
REMARK    1  A    between atoms: C_2  and  N_18
REMARK    2  A    between atoms: N_11  and  C_12
REMARK    3  A    between atoms: C_12  and  C_13
REMARK    4  A    between atoms: C_13  and  O_14
REMARK    5  A    between atoms: N_18  and  C_19
REMARK    6  A    between atoms: C_19  and  C_20
REMARK    7  A    between atoms: C_19  and  C_28
REMARK    8  A    between atoms: C_20  and  C_21
REMARK    9  A    between atoms: C_21  and  C_22
REMARK   10  A    between atoms: C_28  and  O_30
REMARK   11  A    between atoms: O_30  and  C_31
REMARK   12  A    between atoms: C_31  and  C_32
REMARK                            x       y       z     vdW  Elec       q    Type
REMARK                         _______ _______ _______ _____ _____    ______ ____
ROOT
ATOM      1  C   UNL     1      -6.831   0.935 125.015  0.00  0.00    +0.000 C 
ATOM      2  C   UNL     1      -5.840   2.042 125.413  0.00  0.00    +0.000 C 
ATOM      3  C   UNL     1      -6.330   3.395 124.937  0.00  0.00    +0.000 C 
ATOM      4  C   UNL     1      -6.018   3.632 123.488  0.00  0.00    +0.000 A 
ATOM      5  C   UNL     1      -4.942   4.494 123.177  0.00  0.00    +0.000 A 
ATOM      6  C   UNL     1      -4.620   4.787 121.862  0.00  0.00    +0.000 A 
ATOM      7  C   UNL     1      -5.386   4.223 120.846  0.00  0.00    +0.000 A 
ATOM      8  C   UNL     1      -6.461   3.339 121.146  0.00  0.00    +0.000 A 
ATOM      9  C   UNL     1      -6.785   3.016 122.482  0.00  0.00    +0.000 A 
ATOM     10  N   UNL     1      -7.739   1.995 122.873  0.00  0.00    +0.000 N 
ATOM     11  C   UNL     1      -7.322   0.860 123.527  0.00  0.00    +0.000 C 
ATOM     12  O   UNL     1      -7.561  -0.226 122.979  0.00  0.00    +0.000 OA
ENDROOT
BRANCH   1  13
ATOM     13  N   UNL     1      -6.382  -0.374 125.572  0.00  0.00    +0.000 NA
ATOM     14  H   UNL     1      -5.955  -0.942 124.836  0.00  0.00    +0.000 HD
BRANCH  13  15
ATOM     15  C   UNL     1      -7.328  -1.229 126.340  0.00  0.00    +0.000 C 
BRANCH  15  16
ATOM     16  C   UNL     1      -8.781  -0.712 126.167  0.00  0.00    +0.000 C 
ATOM     17  O   UNL     1      -9.209   0.372 126.592  0.00  0.00    +0.000 OA
BRANCH  16  18
ATOM     18  O   UNL     1      -9.538  -1.620 125.479  0.00  0.00    +0.000 OA
BRANCH  18  19
ATOM     19  C   UNL     1      -8.825  -2.769 125.003  0.00  0.00    +0.000 C 
ATOM     20  C   UNL     1      -9.439  -3.249 123.698  0.00  0.00    +0.000 C 
ENDBRANCH  18  19
ENDBRANCH  16  18
ENDBRANCH  15  16
BRANCH  15  21
ATOM     21  C   UNL     1      -7.048  -1.299 127.855  0.00  0.00    +0.000 C 
BRANCH  21  22
ATOM     22  C   UNL     1      -7.487  -2.551 128.583  0.00  0.00    +0.000 C 
BRANCH  22  23
ATOM     23  C   UNL     1      -6.850  -2.930 129.865  0.00  0.00    +0.000 A 
ATOM     24  C   UNL     1      -5.877  -3.922 129.919  0.00  0.00    +0.000 A 
ATOM     25  C   UNL     1      -5.579  -4.508 131.136  0.00  0.00    +0.000 A 
ATOM     26  C   UNL     1      -6.208  -4.061 132.299  0.00  0.00    +0.000 A 
ATOM     27  C   UNL     1      -7.121  -3.014 132.254  0.00  0.00    +0.000 A 
ATOM     28  C   UNL     1      -7.475  -2.481 131.030  0.00  0.00    +0.000 A 
ENDBRANCH  22  23
ENDBRANCH  21  22
ENDBRANCH  15  21
ENDBRANCH  13  15
ENDBRANCH   1  13
BRANCH  10  29
ATOM     29  C   UNL     1      -9.114   1.942 122.368  0.00  0.00    +0.000 C 
BRANCH  29  30
ATOM     30  C   UNL     1     -10.320   1.305 123.162  0.00  0.00    +0.000 C 
ATOM     31  O   UNL     1     -10.977   0.387 122.670  0.00  0.00    +0.000 OA
BRANCH  30  32
ATOM     32  O   UNL     1     -10.681   1.746 124.383  0.00  0.00    +0.000 OA
ATOM     33  H   UNL     1      -9.954   1.887 125.035  0.00  0.00    +0.000 HD
ENDBRANCH  30  32
ENDBRANCH  29  30
ENDBRANCH  10  29
TORSDOF 11
ENDMDL
MODEL 5
REMARK VINA RESULT:      -7.4      3.213      6.676
REMARK  Name = Benazepril
REMARK  12 active torsions:
REMARK  status: ('A' for Active; 'I' for Inactive)
REMARK    1  A    between atoms: C_2  and  N_18
REMARK    2  A    between atoms: N_11  and  C_12
REMARK    3  A    between atoms: C_12  and  C_13
REMARK    4  A    between atoms: C_13  and  O_14
REMARK    5  A    between atoms: N_18  and  C_19
REMARK    6  A    between atoms: C_19  and  C_20
REMARK    7  A    between atoms: C_19  and  C_28
REMARK    8  A    between atoms: C_20  and  C_21
REMARK    9  A    between atoms: C_21  and  C_22
REMARK   10  A    between atoms: C_28  and  O_30
REMARK   11  A    between atoms: O_30  and  C_31
REMARK   12  A    between atoms: C_31  and  C_32
REMARK                            x       y       z     vdW  Elec       q    Type
REMARK                         _______ _______ _______ _____ _____    ______ ____
ROOT
ATOM      1  C   UNL     1      -7.462   3.252 124.864  0.00  0.00    +0.000 C 
ATOM      2  C   UNL     1      -6.192   2.443 124.555  0.00  0.00    +0.000 C 
ATOM      3  C   UNL     1      -5.584   1.893 125.831  0.00  0.00    +0.000 C 
ATOM      4  C   UNL     1      -4.759   2.919 126.552  0.00  0.00    +0.000 A 
ATOM      5  C   UNL     1      -3.353   2.820 126.456  0.00  0.00    +0.000 A 
ATOM      6  C   UNL     1      -2.528   3.710 127.124  0.00  0.00    +0.000 A 
ATOM      7  C   UNL     1      -3.112   4.703 127.905  0.00  0.00    +0.000 A 
ATOM      8  C   UNL     1      -4.527   4.825 127.995  0.00  0.00    +0.000 A 
ATOM      9  C   UNL     1      -5.379   3.936 127.301  0.00  0.00    +0.000 A 
ATOM     10  N   UNL     1      -6.818   4.092 127.191  0.00  0.00    +0.000 N 
ATOM     11  C   UNL     1      -7.402   4.357 125.976  0.00  0.00    +0.000 C 
ATOM     12  O   UNL     1      -8.062   5.403 125.884  0.00  0.00    +0.000 OA
ENDROOT
BRANCH   1  13
ATOM     13  N   UNL     1      -8.098   3.705 123.593  0.00  0.00    +0.000 NA
ATOM     14  H   UNL     1      -9.054   4.022 123.771  0.00  0.00    +0.000 HD
BRANCH  13  15
ATOM     15  C   UNL     1      -8.110   2.815 122.399  0.00  0.00    +0.000 C 
BRANCH  15  16
ATOM     16  C   UNL     1      -8.255   3.658 121.103  0.00  0.00    +0.000 C 
ATOM     17  O   UNL     1      -9.324   3.889 120.517  0.00  0.00    +0.000 OA
BRANCH  16  18
ATOM     18  O   UNL     1      -7.036   4.115 120.685  0.00  0.00    +0.000 OA
BRANCH  18  19
ATOM     19  C   UNL     1      -5.914   3.332 121.115  0.00  0.00    +0.000 C 
ATOM     20  C   UNL     1      -4.801   4.250 121.594  0.00  0.00    +0.000 C 
ENDBRANCH  18  19
ENDBRANCH  16  18
ENDBRANCH  15  16
BRANCH  15  21
ATOM     21  C   UNL     1      -9.242   1.767 122.388  0.00  0.00    +0.000 C 
BRANCH  21  22
ATOM     22  C   UNL     1      -9.570   1.089 123.700  0.00  0.00    +0.000 C 
BRANCH  22  23
ATOM     23  C   UNL     1      -9.132  -0.304 123.949  0.00  0.00    +0.000 A 
ATOM     24  C   UNL     1      -9.204  -1.270 122.951  0.00  0.00    +0.000 A 
ATOM     25  C   UNL     1      -9.151  -2.607 123.303  0.00  0.00    +0.000 A 
ATOM     26  C   UNL     1      -8.968  -2.971 124.637  0.00  0.00    +0.000 A 
ATOM     27  C   UNL     1      -8.816  -2.002 125.623  0.00  0.00    +0.000 A 
ATOM     28  C   UNL     1      -8.945  -0.670 125.283  0.00  0.00    +0.000 A 
ENDBRANCH  22  23
ENDBRANCH  21  22
ENDBRANCH  15  21
ENDBRANCH  13  15
ENDBRANCH   1  13
BRANCH  10  29
ATOM     29  C   UNL     1      -7.698   4.272 128.349  0.00  0.00    +0.000 C 
BRANCH  29  30
ATOM     30  C   UNL     1      -8.602   3.127 128.952  0.00  0.00    +0.000 C 
ATOM     31  O   UNL     1      -8.266   1.947 128.853  0.00  0.00    +0.000 OA
BRANCH  30  32
ATOM     32  O   UNL     1      -9.766   3.394 129.578  0.00  0.00    +0.000 OA
ATOM     33  H   UNL     1     -10.011   2.803 130.329  0.00  0.00    +0.000 HD
ENDBRANCH  30  32
ENDBRANCH  29  30
ENDBRANCH  10  29
TORSDOF 11
ENDMDL
MODEL 6
REMARK VINA RESULT:      -7.3      7.570      9.522
REMARK  Name = Benazepril
REMARK  12 active torsions:
REMARK  status: ('A' for Active; 'I' for Inactive)
REMARK    1  A    between atoms: C_2  and  N_18
REMARK    2  A    between atoms: N_11  and  C_12
REMARK    3  A    between atoms: C_12  and  C_13
REMARK    4  A    between atoms: C_13  and  O_14
REMARK    5  A    between atoms: N_18  and  C_19
REMARK    6  A    between atoms: C_19  and  C_20
REMARK    7  A    between atoms: C_19  and  C_28
REMARK    8  A    between atoms: C_20  and  C_21
REMARK    9  A    between atoms: C_21  and  C_22
REMARK   10  A    between atoms: C_28  and  O_30
REMARK   11  A    between atoms: O_30  and  C_31
REMARK   12  A    between atoms: C_31  and  C_32
REMARK                            x       y       z     vdW  Elec       q    Type
REMARK                         _______ _______ _______ _____ _____    ______ ____
ROOT
ATOM      1  C   UNL     1      -6.087   5.774 130.427  0.00  0.00    +0.000 C 
ATOM      2  C   UNL     1      -5.842   7.214 130.908  0.00  0.00    +0.000 C 
ATOM      3  C   UNL     1      -4.518   7.735 130.384  0.00  0.00    +0.000 C 
ATOM      4  C   UNL     1      -3.357   7.259 131.206  0.00  0.00    +0.000 A 
ATOM      5  C   UNL     1      -2.766   8.175 132.105  0.00  0.00    +0.000 A 
ATOM      6  C   UNL     1      -1.669   7.817 132.871  0.00  0.00    +0.000 A 
ATOM      7  C   UNL     1      -1.148   6.534 132.729  0.00  0.00    +0.000 A 
ATOM      8  C   UNL     1      -1.744   5.596 131.840  0.00  0.00    +0.000 A 
ATOM      9  C   UNL     1      -2.877   5.944 131.070  0.00  0.00    +0.000 A 
ATOM     10  N   UNL     1      -3.653   5.007 130.279  0.00  0.00    +0.000 N 
ATOM     11  C   UNL     1      -4.951   4.710 130.620  0.00  0.00    +0.000 C 
ATOM     12  O   UNL     1      -5.212   3.522 130.862  0.00  0.00    +0.000 OA
ENDROOT
BRANCH   1  13
ATOM     13  N   UNL     1      -7.433   5.312 130.872  0.00  0.00    +0.000 NA
ATOM     14  H   UNL     1      -8.003   5.055 130.063  0.00  0.00    +0.000 HD
BRANCH  13  15
ATOM     15  C   UNL     1      -8.257   6.157 131.780  0.00  0.00    +0.000 C 
BRANCH  15  16
ATOM     16  C   UNL     1      -8.509   5.415 133.121  0.00  0.00    +0.000 C 
ATOM     17  O   UNL     1      -9.401   4.575 133.317  0.00  0.00    +0.000 OA
BRANCH  16  18
ATOM     18  O   UNL     1      -7.613   5.818 134.072  0.00  0.00    +0.000 OA
BRANCH  18  19
ATOM     19  C   UNL     1      -6.458   4.980 134.212  0.00  0.00    +0.000 C 
ATOM     20  C   UNL     1      -5.201   5.835 134.213  0.00  0.00    +0.000 C 
ENDBRANCH  18  19
ENDBRANCH  16  18
ENDBRANCH  15  16
BRANCH  15  21
ATOM     21  C   UNL     1      -9.636   6.555 131.216  0.00  0.00    +0.000 C 
BRANCH  21  22
ATOM     22  C   UNL     1      -9.653   7.362 129.936  0.00  0.00    +0.000 C 
BRANCH  22  23
ATOM     23  C   UNL     1     -10.907   7.503 129.160  0.00  0.00    +0.000 A 
ATOM     24  C   UNL     1     -12.146   7.276 129.749  0.00  0.00    +0.000 A 
ATOM     25  C   UNL     1     -13.244   7.046 128.939  0.00  0.00    +0.000 A 
ATOM     26  C   UNL     1     -13.113   7.102 127.552  0.00  0.00    +0.000 A 
ATOM     27  C   UNL     1     -11.889   7.409 126.967  0.00  0.00    +0.000 A 
ATOM     28  C   UNL     1     -10.778   7.562 127.772  0.00  0.00    +0.000 A 
ENDBRANCH  22  23
ENDBRANCH  21  22
ENDBRANCH  15  21
ENDBRANCH  13  15
ENDBRANCH   1  13
BRANCH  10  29
ATOM     29  C   UNL     1      -3.060   4.113 129.280  0.00  0.00    +0.000 C 
BRANCH  29  30
ATOM     30  C   UNL     1      -2.889   4.488 127.756  0.00  0.00    +0.000 C 
ATOM     31  O   UNL     1      -3.715   5.206 127.192  0.00  0.00    +0.000 OA
BRANCH  30  32
ATOM     32  O   UNL     1      -1.855   4.030 127.022  0.00  0.00    +0.000 OA
ATOM     33  H   UNL     1      -0.958   4.355 127.270  0.00  0.00    +0.000 HD
ENDBRANCH  30  32
ENDBRANCH  29  30
ENDBRANCH  10  29
TORSDOF 11
ENDMDL
MODEL 7
REMARK VINA RESULT:      -7.3      3.504      8.218
REMARK  Name = Benazepril
REMARK  12 active torsions:
REMARK  status: ('A' for Active; 'I' for Inactive)
REMARK    1  A    between atoms: C_2  and  N_18
REMARK    2  A    between atoms: N_11  and  C_12
REMARK    3  A    between atoms: C_12  and  C_13
REMARK    4  A    between atoms: C_13  and  O_14
REMARK    5  A    between atoms: N_18  and  C_19
REMARK    6  A    between atoms: C_19  and  C_20
REMARK    7  A    between atoms: C_19  and  C_28
REMARK    8  A    between atoms: C_20  and  C_21
REMARK    9  A    between atoms: C_21  and  C_22
REMARK   10  A    between atoms: C_28  and  O_30
REMARK   11  A    between atoms: O_30  and  C_31
REMARK   12  A    between atoms: C_31  and  C_32
REMARK                            x       y       z     vdW  Elec       q    Type
REMARK                         _______ _______ _______ _____ _____    ______ ____
ROOT
ATOM      1  C   UNL     1      -8.392   2.892 128.796  0.00  0.00    +0.000 C 
ATOM      2  C   UNL     1      -8.131   1.865 129.911  0.00  0.00    +0.000 C 
ATOM      3  C   UNL     1      -9.195   1.961 130.987  0.00  0.00    +0.000 C 
ATOM      4  C   UNL     1      -8.927   3.080 131.950  0.00  0.00    +0.000 A 
ATOM      5  C   UNL     1      -8.411   2.746 133.222  0.00  0.00    +0.000 A 
ATOM      6  C   UNL     1      -8.173   3.723 134.175  0.00  0.00    +0.000 A 
ATOM      7  C   UNL     1      -8.462   5.047 133.858  0.00  0.00    +0.000 A 
ATOM      8  C   UNL     1      -8.965   5.399 132.574  0.00  0.00    +0.000 A 
ATOM      9  C   UNL     1      -9.193   4.413 131.588  0.00  0.00    +0.000 A 
ATOM     10  N   UNL     1      -9.530   4.696 130.205  0.00  0.00    +0.000 N 
ATOM     11  C   UNL     1      -8.654   4.387 129.193  0.00  0.00    +0.000 C 
ATOM     12  O   UNL     1      -8.266   5.323 128.477  0.00  0.00    +0.000 OA
ENDROOT
BRANCH   1  13
ATOM     13  N   UNL     1      -7.393   2.720 127.703  0.00  0.00    +0.000 NA
ATOM     14  H   UNL     1      -7.011   3.629 127.429  0.00  0.00    +0.000 HD
BRANCH  13  15
ATOM     15  C   UNL     1      -7.749   1.966 126.469  0.00  0.00    +0.000 C 
BRANCH  15  16
ATOM     16  C   UNL     1      -8.193   2.947 125.350  0.00  0.00    +0.000 C 
ATOM     17  O   UNL     1      -8.836   3.992 125.530  0.00  0.00    +0.000 OA
BRANCH  16  18
ATOM     18  O   UNL     1      -7.781   2.500 124.125  0.00  0.00    +0.000 OA
BRANCH  18  19
ATOM     19  C   UNL     1      -8.721   2.693 123.060  0.00  0.00    +0.000 C 
ATOM     20  C   UNL     1      -9.590   1.455 122.912  0.00  0.00    +0.000 C 
ENDBRANCH  18  19
ENDBRANCH  16  18
ENDBRANCH  15  16
BRANCH  15  21
ATOM     21  C   UNL     1      -8.884   0.938 126.648  0.00  0.00    +0.000 C 
BRANCH  21  22
ATOM     22  C   UNL     1      -8.693  -0.422 126.011  0.00  0.00    +0.000 C 
BRANCH  22  23
ATOM     23  C   UNL     1      -8.369  -1.599 126.851  0.00  0.00    +0.000 A 
ATOM     24  C   UNL     1      -8.905  -2.851 126.570  0.00  0.00    +0.000 A 
ATOM     25  C   UNL     1      -8.897  -3.823 127.555  0.00  0.00    +0.000 A 
ATOM     26  C   UNL     1      -8.304  -3.561 128.790  0.00  0.00    +0.000 A 
ATOM     27  C   UNL     1      -7.697  -2.335 129.040  0.00  0.00    +0.000 A 
ATOM     28  C   UNL     1      -7.773  -1.339 128.085  0.00  0.00    +0.000 A 
ENDBRANCH  22  23
ENDBRANCH  21  22
ENDBRANCH  15  21
ENDBRANCH  13  15
ENDBRANCH   1  13
BRANCH  10  29
ATOM     29  C   UNL     1     -10.643   5.564 129.810  0.00  0.00    +0.000 C 
BRANCH  29  30
ATOM     30  C   UNL     1     -10.570   7.141 129.799  0.00  0.00    +0.000 C 
ATOM     31  O   UNL     1     -11.587   7.815 129.961  0.00  0.00    +0.000 OA
BRANCH  30  32
ATOM     32  O   UNL     1      -9.410   7.798 129.600  0.00  0.00    +0.000 OA
ATOM     33  H   UNL     1      -9.277   8.627 130.119  0.00  0.00    +0.000 HD
ENDBRANCH  30  32
ENDBRANCH  29  30
ENDBRANCH  10  29
TORSDOF 11
ENDMDL
MODEL 8
REMARK VINA RESULT:      -7.3      3.414      7.513
REMARK  Name = Benazepril
REMARK  12 active torsions:
REMARK  status: ('A' for Active; 'I' for Inactive)
REMARK    1  A    between atoms: C_2  and  N_18
REMARK    2  A    between atoms: N_11  and  C_12
REMARK    3  A    between atoms: C_12  and  C_13
REMARK    4  A    between atoms: C_13  and  O_14
REMARK    5  A    between atoms: N_18  and  C_19
REMARK    6  A    between atoms: C_19  and  C_20
REMARK    7  A    between atoms: C_19  and  C_28
REMARK    8  A    between atoms: C_20  and  C_21
REMARK    9  A    between atoms: C_21  and  C_22
REMARK   10  A    between atoms: C_28  and  O_30
REMARK   11  A    between atoms: O_30  and  C_31
REMARK   12  A    between atoms: C_31  and  C_32
REMARK                            x       y       z     vdW  Elec       q    Type
REMARK                         _______ _______ _______ _____ _____    ______ ____
ROOT
ATOM      1  C   UNL     1      -8.348   2.970 128.910  0.00  0.00    +0.000 C 
ATOM      2  C   UNL     1      -8.726   1.977 130.022  0.00  0.00    +0.000 C 
ATOM      3  C   UNL     1      -9.822   2.549 130.900  0.00  0.00    +0.000 C 
ATOM      4  C   UNL     1      -9.284   3.500 131.928  0.00  0.00    +0.000 A 
ATOM      5  C   UNL     1      -9.176   3.041 133.260  0.00  0.00    +0.000 A 
ATOM      6  C   UNL     1      -8.722   3.875 134.268  0.00  0.00    +0.000 A 
ATOM      7  C   UNL     1      -8.382   5.186 133.947  0.00  0.00    +0.000 A 
ATOM      8  C   UNL     1      -8.470   5.656 132.606  0.00  0.00    +0.000 A 
ATOM      9  C   UNL     1      -8.912   4.808 131.566  0.00  0.00    +0.000 A 
ATOM     10  N   UNL     1      -8.862   5.143 130.154  0.00  0.00    +0.000 N 
ATOM     11  C   UNL     1      -8.033   4.456 129.300  0.00  0.00    +0.000 C 
ATOM     12  O   UNL     1      -7.179   5.118 128.691  0.00  0.00    +0.000 OA
ENDROOT
BRANCH   1  13
ATOM     13  N   UNL     1      -7.338   2.355 128.001  0.00  0.00    +0.000 NA
ATOM     14  H   UNL     1      -6.473   2.901 128.015  0.00  0.00    +0.000 HD
BRANCH  13  15
ATOM     15  C   UNL     1      -7.684   2.054 126.585  0.00  0.00    +0.000 C 
BRANCH  15  16
ATOM     16  C   UNL     1      -7.829   3.372 125.777  0.00  0.00    +0.000 C 
ATOM     17  O   UNL     1      -8.890   3.993 125.606  0.00  0.00    +0.000 OA
BRANCH  16  18
ATOM     18  O   UNL     1      -6.621   3.761 125.267  0.00  0.00    +0.000 OA
BRANCH  18  19
ATOM     19  C   UNL     1      -6.292   3.201 123.988  0.00  0.00    +0.000 C 
ATOM     20  C   UNL     1      -5.571   4.240 123.144  0.00  0.00    +0.000 C 
ENDBRANCH  18  19
ENDBRANCH  16  18
ENDBRANCH  15  16
BRANCH  15  21
ATOM     21  C   UNL     1      -8.993   1.260 126.396  0.00  0.00    +0.000 C 
BRANCH  21  22
ATOM     22  C   UNL     1      -9.268   0.698 125.019  0.00  0.00    +0.000 C 
BRANCH  22  23
ATOM     23  C   UNL     1      -8.995  -0.729 124.728  0.00  0.00    +0.000 A 
ATOM     24  C   UNL     1      -8.942  -1.199 123.420  0.00  0.00    +0.000 A 
ATOM     25  C   UNL     1      -9.062  -2.558 123.188  0.00  0.00    +0.000 A 
ATOM     26  C   UNL     1      -9.175  -3.442 124.260  0.00  0.00    +0.000 A 
ATOM     27  C   UNL     1      -9.148  -2.977 125.570  0.00  0.00    +0.000 A 
ATOM     28  C   UNL     1      -9.105  -1.616 125.800  0.00  0.00    +0.000 A 
ENDBRANCH  22  23
ENDBRANCH  21  22
ENDBRANCH  15  21
ENDBRANCH  13  15
ENDBRANCH   1  13
BRANCH  10  29
ATOM     29  C   UNL     1      -9.435   6.373 129.599  0.00  0.00    +0.000 C 
BRANCH  29  30
ATOM     30  C   UNL     1     -10.282   6.427 128.269  0.00  0.00    +0.000 C 
ATOM     31  O   UNL     1     -11.509   6.514 128.313  0.00  0.00    +0.000 OA
BRANCH  30  32
ATOM     32  O   UNL     1      -9.703   6.368 127.053  0.00  0.00    +0.000 OA
ATOM     33  H   UNL     1      -9.760   7.180 126.496  0.00  0.00    +0.000 HD
ENDBRANCH  30  32
ENDBRANCH  29  30
ENDBRANCH  10  29
TORSDOF 11
ENDMDL
MODEL 9
REMARK VINA RESULT:      -7.2      3.779      6.409
REMARK  Name = Benazepril
REMARK  12 active torsions:
REMARK  status: ('A' for Active; 'I' for Inactive)
REMARK    1  A    between atoms: C_2  and  N_18
REMARK    2  A    between atoms: N_11  and  C_12
REMARK    3  A    between atoms: C_12  and  C_13
REMARK    4  A    between atoms: C_13  and  O_14
REMARK    5  A    between atoms: N_18  and  C_19
REMARK    6  A    between atoms: C_19  and  C_20
REMARK    7  A    between atoms: C_19  and  C_28
REMARK    8  A    between atoms: C_20  and  C_21
REMARK    9  A    between atoms: C_21  and  C_22
REMARK   10  A    between atoms: C_28  and  O_30
REMARK   11  A    between atoms: O_30  and  C_31
REMARK   12  A    between atoms: C_31  and  C_32
REMARK                            x       y       z     vdW  Elec       q    Type
REMARK                         _______ _______ _______ _____ _____    ______ ____
ROOT
ATOM      1  C   UNL     1      -8.252   1.968 129.122  0.00  0.00    +0.000 C 
ATOM      2  C   UNL     1      -8.228   0.953 130.277  0.00  0.00    +0.000 C 
ATOM      3  C   UNL     1      -7.175  -0.110 130.034  0.00  0.00    +0.000 C 
ATOM      4  C   UNL     1      -7.657  -1.180 129.098  0.00  0.00    +0.000 A 
ATOM      5  C   UNL     1      -8.034  -2.423 129.655  0.00  0.00    +0.000 A 
ATOM      6  C   UNL     1      -8.454  -3.468 128.850  0.00  0.00    +0.000 A 
ATOM      7  C   UNL     1      -8.488  -3.275 127.471  0.00  0.00    +0.000 A 
ATOM      8  C   UNL     1      -8.127  -2.023 126.899  0.00  0.00    +0.000 A 
ATOM      9  C   UNL     1      -7.717  -0.944 127.713  0.00  0.00    +0.000 A 
ATOM     10  N   UNL     1      -7.506   0.411 127.237  0.00  0.00    +0.000 N 
ATOM     11  C   UNL     1      -8.325   1.434 127.649  0.00  0.00    +0.000 C 
ATOM     12  O   UNL     1      -8.943   2.051 126.768  0.00  0.00    +0.000 OA
ENDROOT
BRANCH   1  13
ATOM     13  N   UNL     1      -9.226   3.057 129.422  0.00  0.00    +0.000 NA
ATOM     14  H   UNL     1     -10.053   2.963 128.827  0.00  0.00    +0.000 HD
BRANCH  13  15
ATOM     15  C   UNL     1      -8.791   4.481 129.406  0.00  0.00    +0.000 C 
BRANCH  15  16
ATOM     16  C   UNL     1      -7.242   4.569 129.351  0.00  0.00    +0.000 C 
ATOM     17  O   UNL     1      -6.565   4.628 128.312  0.00  0.00    +0.000 OA
BRANCH  16  18
ATOM     18  O   UNL     1      -6.713   4.567 130.612  0.00  0.00    +0.000 OA
BRANCH  18  19
ATOM     19  C   UNL     1      -5.512   5.334 130.769  0.00  0.00    +0.000 C 
ATOM     20  C   UNL     1      -5.847   6.698 131.350  0.00  0.00    +0.000 C 
ENDBRANCH  18  19
ENDBRANCH  16  18
ENDBRANCH  15  16
BRANCH  15  21
ATOM     21  C   UNL     1      -9.249   5.309 130.624  0.00  0.00    +0.000 C 
BRANCH  21  22
ATOM     22  C   UNL     1      -9.497   6.785 130.404  0.00  0.00    +0.000 C 
BRANCH  22  23
ATOM     23  C   UNL     1     -10.708   7.238 129.681  0.00  0.00    +0.000 A 
ATOM     24  C   UNL     1     -11.929   6.595 129.849  0.00  0.00    +0.000 A 
ATOM     25  C   UNL     1     -12.925   6.785 128.908  0.00  0.00    +0.000 A 
ATOM     26  C   UNL     1     -12.720   7.659 127.841  0.00  0.00    +0.000 A 
ATOM     27  C   UNL     1     -11.528   8.363 127.720  0.00  0.00    +0.000 A 
ATOM     28  C   UNL     1     -10.505   8.116 128.615  0.00  0.00    +0.000 A 
ENDBRANCH  22  23
ENDBRANCH  21  22
ENDBRANCH  15  21
ENDBRANCH  13  15
ENDBRANCH   1  13
BRANCH  10  29
ATOM     29  C   UNL     1      -6.636   0.739 126.103  0.00  0.00    +0.000 C 
BRANCH  29  30
ATOM     30  C   UNL     1      -5.649   1.970 126.077  0.00  0.00    +0.000 C 
ATOM     31  O   UNL     1      -4.443   1.808 126.268  0.00  0.00    +0.000 OA
BRANCH  30  32
ATOM     32  O   UNL     1      -6.084   3.228 125.863  0.00  0.00    +0.000 OA
ATOM     33  H   UNL     1      -6.156   3.517 124.923  0.00  0.00    +0.000 HD
ENDBRANCH  30  32
ENDBRANCH  29  30
ENDBRANCH  10  29
TORSDOF 11
ENDMDL
