MODEL 1
REMARK VINA RESULT:      -6.3      0.000      0.000
REMARK  Name = Bendamustine
REMARK  11 active torsions:
REMARK  status: ('A' for Active; 'I' for Inactive)
REMARK    1  A    between atoms: C_1  and  N_2
REMARK    2  A    between atoms: C_3  and  C_4
REMARK    3  A    between atoms: C_4  and  C_5
REMARK    4  A    between atoms: C_5  and  C_6
REMARK    5  A    between atoms: C_6  and  C_7
REMARK    6  A    between atoms: C_7  and  O_8
REMARK    7  A    between atoms: C_13  and  N_17
REMARK    8  A    between atoms: N_17  and  C_18
REMARK    9  A    between atoms: N_17  and  C_21
REMARK   10  A    between atoms: C_18  and  C_19
REMARK   11  A    between atoms: C_21  and  C_22
REMARK                            x       y       z     vdW  Elec       q    Type
REMARK                         _______ _______ _______ _____ _____    ______ ____
ROOT
ATOM      1  C   UNL     1     -12.862   7.960 131.605  0.00  0.00    +0.000 C 
ATOM      2  N   UNL     1     -12.280   6.906 130.826  0.00  0.00    +0.000 N 
ATOM      3  C   UNL     1     -12.493   6.426 129.539  0.00  0.00    +0.000 A 
ATOM      4  N   UNL     1     -11.652   5.451 129.279  0.00  0.00    +0.000 NA
ATOM      5  C   UNL     1     -10.907   5.314 130.406  0.00  0.00    +0.000 A 
ATOM      6  C   UNL     1      -9.873   4.429 130.652  0.00  0.00    +0.000 A 
ATOM      7  C   UNL     1      -9.155   4.344 131.851  0.00  0.00    +0.000 A 
ATOM      8  C   UNL     1      -9.570   5.278 132.823  0.00  0.00    +0.000 A 
ATOM      9  C   UNL     1     -10.616   6.208 132.628  0.00  0.00    +0.000 A 
ATOM     10  C   UNL     1     -11.259   6.184 131.393  0.00  0.00    +0.000 A 
ENDROOT
BRANCH   3  11
ATOM     11  C   UNL     1     -13.486   6.860 128.502  0.00  0.00    +0.000 C 
BRANCH  11  12
ATOM     12  C   UNL     1     -13.037   8.120 127.827  0.00  0.00    +0.000 C 
BRANCH  12  13
ATOM     13  C   UNL     1     -11.571   8.420 127.790  0.00  0.00    +0.000 C 
BRANCH  13  14
ATOM     14  C   UNL     1     -10.852   7.702 126.665  0.00  0.00    +0.000 C 
ATOM     15  O   UNL     1     -10.988   8.057 125.494  0.00  0.00    +0.000 OA
BRANCH  14  16
ATOM     16  O   UNL     1     -10.053   6.661 126.960  0.00  0.00    +0.000 OA
ATOM     17  H   UNL     1     -10.026   5.890 126.371  0.00  0.00    +0.000 HD
ENDBRANCH  14  16
ENDBRANCH  13  14
ENDBRANCH  12  13
ENDBRANCH  11  12
ENDBRANCH   3  11
BRANCH   7  18
ATOM     18  N   UNL     1      -8.122   3.427 132.076  0.00  0.00    +0.000 N 
BRANCH  18  19
ATOM     19  C   UNL     1      -6.668   3.759 132.231  0.00  0.00    +0.000 C 
BRANCH  19  20
ATOM     20  C   UNL     1      -6.060   4.792 131.309  0.00  0.00    +0.000 C 
ATOM     21 CL   UNL     1      -6.252   6.477 131.802  0.00  0.00    +0.000 Cl
ENDBRANCH  19  20
ENDBRANCH  18  19
BRANCH  18  22
ATOM     22  C   UNL     1      -8.473   1.973 132.147  0.00  0.00    +0.000 C 
BRANCH  22  23
ATOM     23  C   UNL     1      -7.838   1.106 131.053  0.00  0.00    +0.000 C 
ATOM     24 CL   UNL     1      -8.475  -0.554 131.063  0.00  0.00    +0.000 Cl
ENDBRANCH  22  23
ENDBRANCH  18  22
ENDBRANCH   7  18
TORSDOF 10
ENDMDL
MODEL 2
REMARK VINA RESULT:      -6.2      0.710      2.477
REMARK  Name = Bendamustine
REMARK  11 active torsions:
REMARK  status: ('A' for Active; 'I' for Inactive)
REMARK    1  A    between atoms: C_1  and  N_2
REMARK    2  A    between atoms: C_3  and  C_4
REMARK    3  A    between atoms: C_4  and  C_5
REMARK    4  A    between atoms: C_5  and  C_6
REMARK    5  A    between atoms: C_6  and  C_7
REMARK    6  A    between atoms: C_7  and  O_8
REMARK    7  A    between atoms: C_13  and  N_17
REMARK    8  A    between atoms: N_17  and  C_18
REMARK    9  A    between atoms: N_17  and  C_21
REMARK   10  A    between atoms: C_18  and  C_19
REMARK   11  A    between atoms: C_21  and  C_22
REMARK                            x       y       z     vdW  Elec       q    Type
REMARK                         _______ _______ _______ _____ _____    ______ ____
ROOT
ATOM      1  C   UNL     1     -12.766   7.985 131.559  0.00  0.00    +0.000 C 
ATOM      2  N   UNL     1     -12.211   6.888 130.818  0.00  0.00    +0.000 N 
ATOM      3  C   UNL     1     -12.434   6.372 129.546  0.00  0.00    +0.000 A 
ATOM      4  N   UNL     1     -11.620   5.365 129.323  0.00  0.00    +0.000 NA
ATOM      5  C   UNL     1     -10.884   5.245 130.458  0.00  0.00    +0.000 A 
ATOM      6  C   UNL     1      -9.876   4.339 130.737  0.00  0.00    +0.000 A 
ATOM      7  C   UNL     1      -9.166   4.274 131.942  0.00  0.00    +0.000 A 
ATOM      8  C   UNL     1      -9.557   5.251 132.881  0.00  0.00    +0.000 A 
ATOM      9  C   UNL     1     -10.575   6.204 132.650  0.00  0.00    +0.000 A 
ATOM     10  C   UNL     1     -11.214   6.158 131.413  0.00  0.00    +0.000 A 
ENDROOT
BRANCH   3  11
ATOM     11  C   UNL     1     -13.410   6.800 128.491  0.00  0.00    +0.000 C 
BRANCH  11  12
ATOM     12  C   UNL     1     -12.972   8.079 127.846  0.00  0.00    +0.000 C 
BRANCH  12  13
ATOM     13  C   UNL     1     -11.508   8.384 127.797  0.00  0.00    +0.000 C 
BRANCH  13  14
ATOM     14  C   UNL     1     -10.791   7.645 126.684  0.00  0.00    +0.000 C 
ATOM     15  O   UNL     1     -10.929   7.978 125.506  0.00  0.00    +0.000 OA
BRANCH  14  16
ATOM     16  O   UNL     1      -9.991   6.609 126.997  0.00  0.00    +0.000 OA
ATOM     17  H   UNL     1      -9.343   6.286 126.350  0.00  0.00    +0.000 HD
ENDBRANCH  14  16
ENDBRANCH  13  14
ENDBRANCH  12  13
ENDBRANCH  11  12
ENDBRANCH   3  11
BRANCH   7  18
ATOM     18  N   UNL     1      -8.160   3.336 132.202  0.00  0.00    +0.000 N 
BRANCH  18  19
ATOM     19  C   UNL     1      -8.372   1.907 132.605  0.00  0.00    +0.000 C 
BRANCH  19  20
ATOM     20  C   UNL     1      -7.981   0.816 131.633  0.00  0.00    +0.000 C 
ATOM     21 CL   UNL     1      -8.404   1.100 129.942  0.00  0.00    +0.000 Cl
ENDBRANCH  19  20
ENDBRANCH  18  19
BRANCH  18  22
ATOM     22  C   UNL     1      -6.735   3.783 132.100  0.00  0.00    +0.000 C 
BRANCH  22  23
ATOM     23  C   UNL     1      -6.043   4.032 133.445  0.00  0.00    +0.000 C 
ATOM     24 CL   UNL     1      -5.907   5.767 133.814  0.00  0.00    +0.000 Cl
ENDBRANCH  22  23
ENDBRANCH  18  22
ENDBRANCH   7  18
TORSDOF 10
ENDMDL
MODEL 3
REMARK VINA RESULT:      -6.1      3.163      4.414
REMARK  Name = Bendamustine
REMARK  11 active torsions:
REMARK  status: ('A' for Active; 'I' for Inactive)
REMARK    1  A    between atoms: C_1  and  N_2
REMARK    2  A    between atoms: C_3  and  C_4
REMARK    3  A    between atoms: C_4  and  C_5
REMARK    4  A    between atoms: C_5  and  C_6
REMARK    5  A    between atoms: C_6  and  C_7
REMARK    6  A    between atoms: C_7  and  O_8
REMARK    7  A    between atoms: C_13  and  N_17
REMARK    8  A    between atoms: N_17  and  C_18
REMARK    9  A    between atoms: N_17  and  C_21
REMARK   10  A    between atoms: C_18  and  C_19
REMARK   11  A    between atoms: C_21  and  C_22
REMARK                            x       y       z     vdW  Elec       q    Type
REMARK                         _______ _______ _______ _____ _____    ______ ____
ROOT
ATOM      1  C   UNL     1     -10.111   5.555 132.653  0.00  0.00    +0.000 C 
ATOM      2  N   UNL     1      -9.173   6.194 131.775  0.00  0.00    +0.000 N 
ATOM      3  C   UNL     1      -9.295   6.919 130.595  0.00  0.00    +0.000 A 
ATOM      4  N   UNL     1      -8.112   7.333 130.200  0.00  0.00    +0.000 NA
ATOM      5  C   UNL     1      -7.242   6.866 131.131  0.00  0.00    +0.000 A 
ATOM      6  C   UNL     1      -5.870   7.032 131.186  0.00  0.00    +0.000 A 
ATOM      7  C   UNL     1      -5.036   6.509 132.182  0.00  0.00    +0.000 A 
ATOM      8  C   UNL     1      -5.730   5.786 133.175  0.00  0.00    +0.000 A 
ATOM      9  C   UNL     1      -7.129   5.588 133.175  0.00  0.00    +0.000 A 
ATOM     10  C   UNL     1      -7.846   6.152 132.121  0.00  0.00    +0.000 A 
ENDROOT
BRANCH   3  11
ATOM     11  C   UNL     1     -10.518   7.255 129.794  0.00  0.00    +0.000 C 
BRANCH  11  12
ATOM     12  C   UNL     1     -10.206   8.284 128.751  0.00  0.00    +0.000 C 
BRANCH  12  13
ATOM     13  C   UNL     1     -11.085   8.357 127.542  0.00  0.00    +0.000 C 
BRANCH  13  14
ATOM     14  C   UNL     1     -10.999   7.114 126.677  0.00  0.00    +0.000 C 
ATOM     15  O   UNL     1      -9.918   6.572 126.448  0.00  0.00    +0.000 OA
BRANCH  14  16
ATOM     16  O   UNL     1     -12.129   6.602 126.156  0.00  0.00    +0.000 OA
ATOM     17  H   UNL     1     -12.226   6.527 125.193  0.00  0.00    +0.000 HD
ENDBRANCH  14  16
ENDBRANCH  13  14
ENDBRANCH  12  13
ENDBRANCH  11  12
ENDBRANCH   3  11
BRANCH   7  18
ATOM     18  N   UNL     1      -3.647   6.680 132.204  0.00  0.00    +0.000 N 
BRANCH  18  19
ATOM     19  C   UNL     1      -2.860   7.352 133.289  0.00  0.00    +0.000 C 
BRANCH  19  20
ATOM     20  C   UNL     1      -1.712   8.255 132.896  0.00  0.00    +0.000 C 
ATOM     21 CL   UNL     1      -2.077   9.982 132.832  0.00  0.00    +0.000 Cl
ENDBRANCH  19  20
ENDBRANCH  18  19
BRANCH  18  22
ATOM     22  C   UNL     1      -2.857   6.177 131.035  0.00  0.00    +0.000 C 
BRANCH  22  23
ATOM     23  C   UNL     1      -2.921   4.660 130.824  0.00  0.00    +0.000 C 
ATOM     24 CL   UNL     1      -3.363   4.237 129.154  0.00  0.00    +0.000 Cl
ENDBRANCH  22  23
ENDBRANCH  18  22
ENDBRANCH   7  18
TORSDOF 10
ENDMDL
MODEL 4
REMARK VINA RESULT:      -6.0      8.129     10.483
REMARK  Name = Bendamustine
REMARK  11 active torsions:
REMARK  status: ('A' for Active; 'I' for Inactive)
REMARK    1  A    between atoms: C_1  and  N_2
REMARK    2  A    between atoms: C_3  and  C_4
REMARK    3  A    between atoms: C_4  and  C_5
REMARK    4  A    between atoms: C_5  and  C_6
REMARK    5  A    between atoms: C_6  and  C_7
REMARK    6  A    between atoms: C_7  and  O_8
REMARK    7  A    between atoms: C_13  and  N_17
REMARK    8  A    between atoms: N_17  and  C_18
REMARK    9  A    between atoms: N_17  and  C_21
REMARK   10  A    between atoms: C_18  and  C_19
REMARK   11  A    between atoms: C_21  and  C_22
REMARK                            x       y       z     vdW  Elec       q    Type
REMARK                         _______ _______ _______ _____ _____    ______ ____
ROOT
ATOM      1  C   UNL     1      -8.810  -3.620 124.464  0.00  0.00    +0.000 C 
ATOM      2  N   UNL     1      -7.902  -2.786 125.199  0.00  0.00    +0.000 N 
ATOM      3  C   UNL     1      -6.936  -1.855 124.835  0.00  0.00    +0.000 A 
ATOM      4  N   UNL     1      -6.399  -1.324 125.909  0.00  0.00    +0.000 NA
ATOM      5  C   UNL     1      -7.026  -1.923 126.954  0.00  0.00    +0.000 A 
ATOM      6  C   UNL     1      -6.834  -1.713 128.308  0.00  0.00    +0.000 A 
ATOM      7  C   UNL     1      -7.519  -2.381 129.330  0.00  0.00    +0.000 A 
ATOM      8  C   UNL     1      -8.471  -3.308 128.858  0.00  0.00    +0.000 A 
ATOM      9  C   UNL     1      -8.714  -3.561 127.489  0.00  0.00    +0.000 A 
ATOM     10  C   UNL     1      -7.958  -2.838 126.569  0.00  0.00    +0.000 A 
ENDROOT
BRANCH   3  11
ATOM     11  C   UNL     1      -6.481  -1.424 123.472  0.00  0.00    +0.000 C 
BRANCH  11  12
ATOM     12  C   UNL     1      -5.761  -2.537 122.773  0.00  0.00    +0.000 C 
BRANCH  12  13
ATOM     13  C   UNL     1      -4.526  -3.092 123.409  0.00  0.00    +0.000 C 
BRANCH  13  14
ATOM     14  C   UNL     1      -4.617  -4.585 123.663  0.00  0.00    +0.000 C 
ATOM     15  O   UNL     1      -5.612  -5.081 124.191  0.00  0.00    +0.000 OA
BRANCH  14  16
ATOM     16  O   UNL     1      -3.587  -5.372 123.303  0.00  0.00    +0.000 OA
ATOM     17  H   UNL     1      -2.722  -4.977 123.107  0.00  0.00    +0.000 HD
ENDBRANCH  14  16
ENDBRANCH  13  14
ENDBRANCH  12  13
ENDBRANCH  11  12
ENDBRANCH   3  11
BRANCH   7  18
ATOM     18  N   UNL     1      -7.292  -2.158 130.693  0.00  0.00    +0.000 N 
BRANCH  18  19
ATOM     19  C   UNL     1      -7.069  -3.215 131.733  0.00  0.00    +0.000 C 
BRANCH  19  20
ATOM     20  C   UNL     1      -5.740  -3.937 131.756  0.00  0.00    +0.000 C 
ATOM     21 CL   UNL     1      -5.628  -5.383 130.749  0.00  0.00    +0.000 Cl
ENDBRANCH  19  20
ENDBRANCH  18  19
BRANCH  18  22
ATOM     22  C   UNL     1      -7.292  -0.744 131.186  0.00  0.00    +0.000 C 
BRANCH  22  23
ATOM     23  C   UNL     1      -8.308  -0.453 132.297  0.00  0.00    +0.000 C 
ATOM     24 CL   UNL     1      -9.458   0.822 131.833  0.00  0.00    +0.000 Cl
ENDBRANCH  22  23
ENDBRANCH  18  22
ENDBRANCH   7  18
TORSDOF 10
ENDMDL
MODEL 5
REMARK VINA RESULT:      -5.9      7.921      8.632
REMARK  Name = Bendamustine
REMARK  11 active torsions:
REMARK  status: ('A' for Active; 'I' for Inactive)
REMARK    1  A    between atoms: C_1  and  N_2
REMARK    2  A    between atoms: C_3  and  C_4
REMARK    3  A    between atoms: C_4  and  C_5
REMARK    4  A    between atoms: C_5  and  C_6
REMARK    5  A    between atoms: C_6  and  C_7
REMARK    6  A    between atoms: C_7  and  O_8
REMARK    7  A    between atoms: C_13  and  N_17
REMARK    8  A    between atoms: N_17  and  C_18
REMARK    9  A    between atoms: N_17  and  C_21
REMARK   10  A    between atoms: C_18  and  C_19
REMARK   11  A    between atoms: C_21  and  C_22
REMARK                            x       y       z     vdW  Elec       q    Type
REMARK                         _______ _______ _______ _____ _____    ______ ____
ROOT
ATOM      1  C   UNL     1      -9.322   2.063 123.109  0.00  0.00    +0.000 C 
ATOM      2  N   UNL     1      -8.092   1.924 123.835  0.00  0.00    +0.000 N 
ATOM      3  C   UNL     1      -6.880   2.605 123.818  0.00  0.00    +0.000 A 
ATOM      4  N   UNL     1      -6.072   2.104 124.725  0.00  0.00    +0.000 NA
ATOM      5  C   UNL     1      -6.776   1.103 125.314  0.00  0.00    +0.000 A 
ATOM      6  C   UNL     1      -6.383   0.262 126.339  0.00  0.00    +0.000 A 
ATOM      7  C   UNL     1      -7.169  -0.758 126.889  0.00  0.00    +0.000 A 
ATOM      8  C   UNL     1      -8.450  -0.856 126.308  0.00  0.00    +0.000 A 
ATOM      9  C   UNL     1      -8.909  -0.024 125.263  0.00  0.00    +0.000 A 
ATOM     10  C   UNL     1      -8.026   0.947 124.796  0.00  0.00    +0.000 A 
ENDROOT
BRANCH   3  11
ATOM     11  C   UNL     1      -6.431   3.750 122.959  0.00  0.00    +0.000 C 
BRANCH  11  12
ATOM     12  C   UNL     1      -6.175   3.295 121.554  0.00  0.00    +0.000 C 
BRANCH  12  13
ATOM     13  C   UNL     1      -4.999   3.866 120.827  0.00  0.00    +0.000 C 
BRANCH  13  14
ATOM     14  C   UNL     1      -5.347   5.109 120.031  0.00  0.00    +0.000 C 
ATOM     15  O   UNL     1      -4.779   6.181 120.243  0.00  0.00    +0.000 OA
BRANCH  14  16
ATOM     16  O   UNL     1      -6.294   5.030 119.077  0.00  0.00    +0.000 OA
ATOM     17  H   UNL     1      -7.119   5.531 119.174  0.00  0.00    +0.000 HD
ENDBRANCH  14  16
ENDBRANCH  13  14
ENDBRANCH  12  13
ENDBRANCH  11  12
ENDBRANCH   3  11
BRANCH   7  18
ATOM     18  N   UNL     1      -6.737  -1.604 127.918  0.00  0.00    +0.000 N 
BRANCH  18  19
ATOM     19  C   UNL     1      -7.538  -2.007 129.120  0.00  0.00    +0.000 C 
BRANCH  19  20
ATOM     20  C   UNL     1      -7.979  -3.448 129.245  0.00  0.00    +0.000 C 
ATOM     21 CL   UNL     1      -9.057  -4.039 127.977  0.00  0.00    +0.000 Cl
ENDBRANCH  19  20
ENDBRANCH  18  19
BRANCH  18  22
ATOM     22  C   UNL     1      -5.344  -2.148 127.845  0.00  0.00    +0.000 C 
BRANCH  22  23
ATOM     23  C   UNL     1      -4.601  -2.185 129.186  0.00  0.00    +0.000 C 
ATOM     24 CL   UNL     1      -4.315  -3.849 129.744  0.00  0.00    +0.000 Cl
ENDBRANCH  22  23
ENDBRANCH  18  22
ENDBRANCH   7  18
TORSDOF 10
ENDMDL
MODEL 6
REMARK VINA RESULT:      -5.8      2.494      4.084
REMARK  Name = Bendamustine
REMARK  11 active torsions:
REMARK  status: ('A' for Active; 'I' for Inactive)
REMARK    1  A    between atoms: C_1  and  N_2
REMARK    2  A    between atoms: C_3  and  C_4
REMARK    3  A    between atoms: C_4  and  C_5
REMARK    4  A    between atoms: C_5  and  C_6
REMARK    5  A    between atoms: C_6  and  C_7
REMARK    6  A    between atoms: C_7  and  O_8
REMARK    7  A    between atoms: C_13  and  N_17
REMARK    8  A    between atoms: N_17  and  C_18
REMARK    9  A    between atoms: N_17  and  C_21
REMARK   10  A    between atoms: C_18  and  C_19
REMARK   11  A    between atoms: C_21  and  C_22
REMARK                            x       y       z     vdW  Elec       q    Type
REMARK                         _______ _______ _______ _____ _____    ______ ____
ROOT
ATOM      1  C   UNL     1     -10.823   3.714 130.434  0.00  0.00    +0.000 C 
ATOM      2  N   UNL     1     -10.278   5.033 130.583  0.00  0.00    +0.000 N 
ATOM      3  C   UNL     1     -10.834   6.305 130.650  0.00  0.00    +0.000 A 
ATOM      4  N   UNL     1      -9.888   7.198 130.837  0.00  0.00    +0.000 NA
ATOM      5  C   UNL     1      -8.732   6.487 130.885  0.00  0.00    +0.000 A 
ATOM      6  C   UNL     1      -7.444   6.953 131.072  0.00  0.00    +0.000 A 
ATOM      7  C   UNL     1      -6.296   6.151 131.102  0.00  0.00    +0.000 A 
ATOM      8  C   UNL     1      -6.564   4.776 130.937  0.00  0.00    +0.000 A 
ATOM      9  C   UNL     1      -7.859   4.242 130.748  0.00  0.00    +0.000 A 
ATOM     10  C   UNL     1      -8.918   5.147 130.727  0.00  0.00    +0.000 A 
ENDROOT
BRANCH   3  11
ATOM     11  C   UNL     1     -12.267   6.736 130.547  0.00  0.00    +0.000 C 
BRANCH  11  12
ATOM     12  C   UNL     1     -12.804   6.478 129.172  0.00  0.00    +0.000 C 
BRANCH  12  13
ATOM     13  C   UNL     1     -12.807   7.607 128.189  0.00  0.00    +0.000 C 
BRANCH  13  14
ATOM     14  C   UNL     1     -11.617   7.570 127.249  0.00  0.00    +0.000 C 
ATOM     15  O   UNL     1     -10.658   8.327 127.405  0.00  0.00    +0.000 OA
BRANCH  14  16
ATOM     16  O   UNL     1     -11.618   6.692 126.229  0.00  0.00    +0.000 OA
ATOM     17  H   UNL     1     -12.009   5.812 126.350  0.00  0.00    +0.000 HD
ENDBRANCH  14  16
ENDBRANCH  13  14
ENDBRANCH  12  13
ENDBRANCH  11  12
ENDBRANCH   3  11
BRANCH   7  18
ATOM     18  N   UNL     1      -5.001   6.653 131.278  0.00  0.00    +0.000 N 
BRANCH  18  19
ATOM     19  C   UNL     1      -4.180   6.550 132.528  0.00  0.00    +0.000 C 
BRANCH  19  20
ATOM     20  C   UNL     1      -3.636   5.196 132.927  0.00  0.00    +0.000 C 
ATOM     21 CL   UNL     1      -2.935   4.231 131.624  0.00  0.00    +0.000 Cl
ENDBRANCH  19  20
ENDBRANCH  18  19
BRANCH  18  22
ATOM     22  C   UNL     1      -4.367   7.385 130.136  0.00  0.00    +0.000 C 
BRANCH  22  23
ATOM     23  C   UNL     1      -3.840   6.485 129.012  0.00  0.00    +0.000 C 
ATOM     24 CL   UNL     1      -2.063   6.479 128.939  0.00  0.00    +0.000 Cl
ENDBRANCH  22  23
ENDBRANCH  18  22
ENDBRANCH   7  18
TORSDOF 10
ENDMDL
MODEL 7
REMARK VINA RESULT:      -5.8      6.287      8.436
REMARK  Name = Bendamustine
REMARK  11 active torsions:
REMARK  status: ('A' for Active; 'I' for Inactive)
REMARK    1  A    between atoms: C_1  and  N_2
REMARK    2  A    between atoms: C_3  and  C_4
REMARK    3  A    between atoms: C_4  and  C_5
REMARK    4  A    between atoms: C_5  and  C_6
REMARK    5  A    between atoms: C_6  and  C_7
REMARK    6  A    between atoms: C_7  and  O_8
REMARK    7  A    between atoms: C_13  and  N_17
REMARK    8  A    between atoms: N_17  and  C_18
REMARK    9  A    between atoms: N_17  and  C_21
REMARK   10  A    between atoms: C_18  and  C_19
REMARK   11  A    between atoms: C_21  and  C_22
REMARK                            x       y       z     vdW  Elec       q    Type
REMARK                         _______ _______ _______ _____ _____    ______ ____
ROOT
ATOM      1  C   UNL     1      -9.369  -3.430 124.355  0.00  0.00    +0.000 C 
ATOM      2  N   UNL     1      -8.738  -2.365 125.081  0.00  0.00    +0.000 N 
ATOM      3  C   UNL     1      -8.286  -1.096 124.736  0.00  0.00    +0.000 A 
ATOM      4  N   UNL     1      -7.815  -0.484 125.798  0.00  0.00    +0.000 NA
ATOM      5  C   UNL     1      -7.968  -1.369 126.816  0.00  0.00    +0.000 A 
ATOM      6  C   UNL     1      -7.636  -1.212 128.150  0.00  0.00    +0.000 A 
ATOM      7  C   UNL     1      -7.820  -2.182 129.143  0.00  0.00    +0.000 A 
ATOM      8  C   UNL     1      -8.408  -3.372 128.667  0.00  0.00    +0.000 A 
ATOM      9  C   UNL     1      -8.773  -3.587 127.319  0.00  0.00    +0.000 A 
ATOM     10  C   UNL     1      -8.528  -2.547 126.425  0.00  0.00    +0.000 A 
ENDROOT
BRANCH   3  11
ATOM     11  C   UNL     1      -8.280  -0.407 123.403  0.00  0.00    +0.000 C 
BRANCH  11  12
ATOM     12  C   UNL     1      -9.405   0.577 123.306  0.00  0.00    +0.000 C 
BRANCH  12  13
ATOM     13  C   UNL     1      -9.074   2.007 123.017  0.00  0.00    +0.000 C 
BRANCH  13  14
ATOM     14  C   UNL     1      -8.849   2.824 124.275  0.00  0.00    +0.000 C 
ATOM     15  O   UNL     1      -9.234   2.422 125.373  0.00  0.00    +0.000 OA
BRANCH  14  16
ATOM     16  O   UNL     1      -8.215   4.008 124.180  0.00  0.00    +0.000 OA
ATOM     17  H   UNL     1      -7.278   4.035 123.930  0.00  0.00    +0.000 HD
ENDBRANCH  14  16
ENDBRANCH  13  14
ENDBRANCH  12  13
ENDBRANCH  11  12
ENDBRANCH   3  11
BRANCH   7  18
ATOM     18  N   UNL     1      -7.460  -2.000 130.484  0.00  0.00    +0.000 N 
BRANCH  18  19
ATOM     19  C   UNL     1      -7.192  -3.089 131.479  0.00  0.00    +0.000 C 
BRANCH  19  20
ATOM     20  C   UNL     1      -5.805  -3.688 131.539  0.00  0.00    +0.000 C 
ATOM     21 CL   UNL     1      -5.613  -5.270 130.779  0.00  0.00    +0.000 Cl
ENDBRANCH  19  20
ENDBRANCH  18  19
BRANCH  18  22
ATOM     22  C   UNL     1      -7.351  -0.598 131.000  0.00  0.00    +0.000 C 
BRANCH  22  23
ATOM     23  C   UNL     1      -8.239  -0.291 132.212  0.00  0.00    +0.000 C 
ATOM     24 CL   UNL     1      -9.540   0.853 131.812  0.00  0.00    +0.000 Cl
ENDBRANCH  22  23
ENDBRANCH  18  22
ENDBRANCH   7  18
TORSDOF 10
ENDMDL
MODEL 8
REMARK VINA RESULT:      -5.8      9.175     10.515
REMARK  Name = Bendamustine
REMARK  11 active torsions:
REMARK  status: ('A' for Active; 'I' for Inactive)
REMARK    1  A    between atoms: C_1  and  N_2
REMARK    2  A    between atoms: C_3  and  C_4
REMARK    3  A    between atoms: C_4  and  C_5
REMARK    4  A    between atoms: C_5  and  C_6
REMARK    5  A    between atoms: C_6  and  C_7
REMARK    6  A    between atoms: C_7  and  O_8
REMARK    7  A    between atoms: C_13  and  N_17
REMARK    8  A    between atoms: N_17  and  C_18
REMARK    9  A    between atoms: N_17  and  C_21
REMARK   10  A    between atoms: C_18  and  C_19
REMARK   11  A    between atoms: C_21  and  C_22
REMARK                            x       y       z     vdW  Elec       q    Type
REMARK                         _______ _______ _______ _____ _____    ______ ____
ROOT
ATOM      1  C   UNL     1      -8.984  -3.219 124.676  0.00  0.00    +0.000 C 
ATOM      2  N   UNL     1      -7.884  -2.649 125.399  0.00  0.00    +0.000 N 
ATOM      3  C   UNL     1      -6.790  -1.870 125.036  0.00  0.00    +0.000 A 
ATOM      4  N   UNL     1      -6.083  -1.568 126.101  0.00  0.00    +0.000 NA
ATOM      5  C   UNL     1      -6.731  -2.158 127.138  0.00  0.00    +0.000 A 
ATOM      6  C   UNL     1      -6.401  -2.139 128.481  0.00  0.00    +0.000 A 
ATOM      7  C   UNL     1      -7.121  -2.784 129.495  0.00  0.00    +0.000 A 
ATOM      8  C   UNL     1      -8.263  -3.468 129.027  0.00  0.00    +0.000 A 
ATOM      9  C   UNL     1      -8.652  -3.518 127.670  0.00  0.00    +0.000 A 
ATOM     10  C   UNL     1      -7.845  -2.843 126.757  0.00  0.00    +0.000 A 
ENDROOT
BRANCH   3  11
ATOM     11  C   UNL     1      -6.366  -1.377 123.685  0.00  0.00    +0.000 C 
BRANCH  11  12
ATOM     12  C   UNL     1      -5.805  -2.496 122.860  0.00  0.00    +0.000 C 
BRANCH  12  13
ATOM     13  C   UNL     1      -4.583  -3.200 123.360  0.00  0.00    +0.000 C 
BRANCH  13  14
ATOM     14  C   UNL     1      -4.808  -4.683 123.580  0.00  0.00    +0.000 C 
ATOM     15  O   UNL     1      -5.702  -5.088 124.325  0.00  0.00    +0.000 OA
BRANCH  14  16
ATOM     16  O   UNL     1      -4.013  -5.566 122.948  0.00  0.00    +0.000 OA
ATOM     17  H   UNL     1      -3.289  -5.247 122.386  0.00  0.00    +0.000 HD
ENDBRANCH  14  16
ENDBRANCH  13  14
ENDBRANCH  12  13
ENDBRANCH  11  12
ENDBRANCH   3  11
BRANCH   7  18
ATOM     18  N   UNL     1      -6.754  -2.760 130.845  0.00  0.00    +0.000 N 
BRANCH  18  19
ATOM     19  C   UNL     1      -7.004  -1.636 131.805  0.00  0.00    +0.000 C 
BRANCH  19  20
ATOM     20  C   UNL     1      -7.062  -1.947 133.284  0.00  0.00    +0.000 C 
ATOM     21 CL   UNL     1      -8.382  -3.001 133.800  0.00  0.00    +0.000 Cl
ENDBRANCH  19  20
ENDBRANCH  18  19
BRANCH  18  22
ATOM     22  C   UNL     1      -6.022  -3.944 131.398  0.00  0.00    +0.000 C 
BRANCH  22  23
ATOM     23  C   UNL     1      -4.510  -3.742 131.563  0.00  0.00    +0.000 C 
ATOM     24 CL   UNL     1      -3.675  -3.650 129.995  0.00  0.00    +0.000 Cl
ENDBRANCH  22  23
ENDBRANCH  18  22
ENDBRANCH   7  18
TORSDOF 10
ENDMDL
MODEL 9
REMARK VINA RESULT:      -5.7      2.450      3.944
REMARK  Name = Bendamustine
REMARK  11 active torsions:
REMARK  status: ('A' for Active; 'I' for Inactive)
REMARK    1  A    between atoms: C_1  and  N_2
REMARK    2  A    between atoms: C_3  and  C_4
REMARK    3  A    between atoms: C_4  and  C_5
REMARK    4  A    between atoms: C_5  and  C_6
REMARK    5  A    between atoms: C_6  and  C_7
REMARK    6  A    between atoms: C_7  and  O_8
REMARK    7  A    between atoms: C_13  and  N_17
REMARK    8  A    between atoms: N_17  and  C_18
REMARK    9  A    between atoms: N_17  and  C_21
REMARK   10  A    between atoms: C_18  and  C_19
REMARK   11  A    between atoms: C_21  and  C_22
REMARK                            x       y       z     vdW  Elec       q    Type
REMARK                         _______ _______ _______ _____ _____    ______ ____
ROOT
ATOM      1  C   UNL     1     -11.088   3.777 130.360  0.00  0.00    +0.000 C 
ATOM      2  N   UNL     1     -10.420   5.021 130.619  0.00  0.00    +0.000 N 
ATOM      3  C   UNL     1     -10.857   6.306 130.919  0.00  0.00    +0.000 A 
ATOM      4  N   UNL     1      -9.824   7.095 131.112  0.00  0.00    +0.000 NA
ATOM      5  C   UNL     1      -8.734   6.306 130.931  0.00  0.00    +0.000 A 
ATOM      6  C   UNL     1      -7.398   6.650 131.029  0.00  0.00    +0.000 A 
ATOM      7  C   UNL     1      -6.325   5.775 130.818  0.00  0.00    +0.000 A 
ATOM      8  C   UNL     1      -6.726   4.459 130.505  0.00  0.00    +0.000 A 
ATOM      9  C   UNL     1      -8.073   4.048 130.397  0.00  0.00    +0.000 A 
ATOM     10  C   UNL     1      -9.048   5.018 130.619  0.00  0.00    +0.000 A 
ENDROOT
BRANCH   3  11
ATOM     11  C   UNL     1     -12.251   6.846 131.040  0.00  0.00    +0.000 C 
BRANCH  11  12
ATOM     12  C   UNL     1     -12.625   7.637 129.823  0.00  0.00    +0.000 C 
BRANCH  12  13
ATOM     13  C   UNL     1     -12.843   6.901 128.539  0.00  0.00    +0.000 C 
BRANCH  13  14
ATOM     14  C   UNL     1     -11.876   7.322 127.449  0.00  0.00    +0.000 C 
ATOM     15  O   UNL     1     -11.133   8.293 127.597  0.00  0.00    +0.000 OA
BRANCH  14  16
ATOM     16  O   UNL     1     -11.836   6.617 126.303  0.00  0.00    +0.000 OA
ATOM     17  H   UNL     1     -11.707   5.655 126.333  0.00  0.00    +0.000 HD
ENDBRANCH  14  16
ENDBRANCH  13  14
ENDBRANCH  12  13
ENDBRANCH  11  12
ENDBRANCH   3  11
BRANCH   7  18
ATOM     18  N   UNL     1      -4.981   6.155 130.909  0.00  0.00    +0.000 N 
BRANCH  18  19
ATOM     19  C   UNL     1      -4.255   7.054 129.954  0.00  0.00    +0.000 C 
BRANCH  19  20
ATOM     20  C   UNL     1      -3.772   6.477 128.642  0.00  0.00    +0.000 C 
ATOM     21 CL   UNL     1      -2.128   6.911 128.166  0.00  0.00    +0.000 Cl
ENDBRANCH  19  20
ENDBRANCH  18  19
BRANCH  18  22
ATOM     22  C   UNL     1      -4.168   5.607 132.041  0.00  0.00    +0.000 C 
BRANCH  22  23
ATOM     23  C   UNL     1      -4.304   6.377 133.359  0.00  0.00    +0.000 C 
ATOM     24 CL   UNL     1      -5.660   5.781 134.344  0.00  0.00    +0.000 Cl
ENDBRANCH  22  23
ENDBRANCH  18  22
ENDBRANCH   7  18
TORSDOF 10
ENDMDL
