MODEL 1
REMARK VINA RESULT:      -7.6      0.000      0.000
REMARK  Name = Bendazac
REMARK  6 active torsions:
REMARK  status: ('A' for Active; 'I' for Inactive)
REMARK    1  A    between atoms: O_1  and  C_2
REMARK    2  A    between atoms: C_2  and  C_4
REMARK    3  A    between atoms: C_4  and  O_5
REMARK    4  A    between atoms: O_5  and  C_6
REMARK    5  A    between atoms: N_8  and  C_9
REMARK    6  A    between atoms: C_9  and  C_10
REMARK                            x       y       z     vdW  Elec       q    Type
REMARK                         _______ _______ _______ _____ _____    ______ ____
ROOT
ATOM      1  C   UNL     1      -9.091  -1.521 123.587  0.00  0.00    +0.000 A 
ATOM      2  N   UNL     1      -9.603  -1.973 124.727  0.00  0.00    +0.000 NA
ATOM      3  N   UNL     1      -8.625  -2.748 125.263  0.00  0.00    +0.000 N 
ATOM      4  C   UNL     1      -7.476  -2.756 124.496  0.00  0.00    +0.000 A 
ATOM      5  C   UNL     1      -6.234  -3.384 124.665  0.00  0.00    +0.000 A 
ATOM      6  C   UNL     1      -5.263  -3.160 123.684  0.00  0.00    +0.000 A 
ATOM      7  C   UNL     1      -5.514  -2.332 122.595  0.00  0.00    +0.000 A 
ATOM      8  C   UNL     1      -6.748  -1.704 122.450  0.00  0.00    +0.000 A 
ATOM      9  C   UNL     1      -7.757  -1.938 123.397  0.00  0.00    +0.000 A 
ENDROOT
BRANCH   1  10
ATOM     10  O   UNL     1      -9.881  -0.682 122.880  0.00  0.00    +0.000 OA
BRANCH  10  11
ATOM     11  C   UNL     1      -9.512   0.694 122.915  0.00  0.00    +0.000 C 
BRANCH  11  12
ATOM     12  C   UNL     1     -10.252   1.401 124.050  0.00  0.00    +0.000 C 
ATOM     13  O   UNL     1      -9.715   2.048 124.946  0.00  0.00    +0.000 OA
BRANCH  12  14
ATOM     14  O   UNL     1     -11.605   1.306 123.993  0.00  0.00    +0.000 OA
ATOM     15  H   UNL     1     -12.121   2.121 124.129  0.00  0.00    +0.000 HD
ENDBRANCH  12  14
ENDBRANCH  11  12
ENDBRANCH  10  11
ENDBRANCH   1  10
BRANCH   3  16
ATOM     16  C   UNL     1      -8.816  -3.498 126.520  0.00  0.00    +0.000 C 
BRANCH  16  17
ATOM     17  C   UNL     1      -8.168  -2.840 127.715  0.00  0.00    +0.000 A 
ATOM     18  C   UNL     1      -8.015  -3.561 128.908  0.00  0.00    +0.000 A 
ATOM     19  C   UNL     1      -7.822  -2.882 130.105  0.00  0.00    +0.000 A 
ATOM     20  C   UNL     1      -7.593  -1.509 130.095  0.00  0.00    +0.000 A 
ATOM     21  C   UNL     1      -7.528  -0.821 128.886  0.00  0.00    +0.000 A 
ATOM     22  C   UNL     1      -7.861  -1.473 127.699  0.00  0.00    +0.000 A 
ENDBRANCH  16  17
ENDBRANCH   3  16
TORSDOF 6
ENDMDL
MODEL 2
REMARK VINA RESULT:      -7.2      6.504      9.281
REMARK  Name = Bendazac
REMARK  6 active torsions:
REMARK  status: ('A' for Active; 'I' for Inactive)
REMARK    1  A    between atoms: O_1  and  C_2
REMARK    2  A    between atoms: C_2  and  C_4
REMARK    3  A    between atoms: C_4  and  O_5
REMARK    4  A    between atoms: O_5  and  C_6
REMARK    5  A    between atoms: N_8  and  C_9
REMARK    6  A    between atoms: C_9  and  C_10
REMARK                            x       y       z     vdW  Elec       q    Type
REMARK                         _______ _______ _______ _____ _____    ______ ____
ROOT
ATOM      1  C   UNL     1      -8.664   3.718 128.906  0.00  0.00    +0.000 A 
ATOM      2  N   UNL     1      -8.709   5.044 128.838  0.00  0.00    +0.000 NA
ATOM      3  N   UNL     1      -9.004   5.446 130.102  0.00  0.00    +0.000 N 
ATOM      4  C   UNL     1      -9.101   4.387 130.984  0.00  0.00    +0.000 A 
ATOM      5  C   UNL     1      -9.361   4.329 132.361  0.00  0.00    +0.000 A 
ATOM      6  C   UNL     1      -9.370   3.064 132.958  0.00  0.00    +0.000 A 
ATOM      7  C   UNL     1      -9.111   1.914 132.220  0.00  0.00    +0.000 A 
ATOM      8  C   UNL     1      -8.841   1.992 130.856  0.00  0.00    +0.000 A 
ATOM      9  C   UNL     1      -8.862   3.242 130.219  0.00  0.00    +0.000 A 
ENDROOT
BRANCH   1  10
ATOM     10  O   UNL     1      -8.346   3.083 127.756  0.00  0.00    +0.000 OA
BRANCH  10  11
ATOM     11  C   UNL     1      -7.476   3.791 126.877  0.00  0.00    +0.000 C 
BRANCH  11  12
ATOM     12  C   UNL     1      -8.263   4.306 125.672  0.00  0.00    +0.000 C 
ATOM     13  O   UNL     1      -8.820   3.596 124.838  0.00  0.00    +0.000 OA
BRANCH  12  14
ATOM     14  O   UNL     1      -8.352   5.658 125.587  0.00  0.00    +0.000 OA
ATOM     15  H   UNL     1      -9.162   6.079 125.927  0.00  0.00    +0.000 HD
ENDBRANCH  12  14
ENDBRANCH  11  12
ENDBRANCH  10  11
ENDBRANCH   1  10
BRANCH   3  16
ATOM     16  C   UNL     1      -9.209   6.867 130.449  0.00  0.00    +0.000 C 
BRANCH  16  17
ATOM     17  C   UNL     1     -10.481   7.446 129.877  0.00  0.00    +0.000 A 
ATOM     18  C   UNL     1     -11.714   7.133 130.467  0.00  0.00    +0.000 A 
ATOM     19  C   UNL     1     -12.888   7.295 129.740  0.00  0.00    +0.000 A 
ATOM     20  C   UNL     1     -12.857   7.940 128.507  0.00  0.00    +0.000 A 
ATOM     21  C   UNL     1     -11.657   8.448 128.015  0.00  0.00    +0.000 A 
ATOM     22  C   UNL     1     -10.461   8.162 128.673  0.00  0.00    +0.000 A 
ENDBRANCH  16  17
ENDBRANCH   3  16
TORSDOF 6
ENDMDL
MODEL 3
REMARK VINA RESULT:      -7.1      7.247     10.161
REMARK  Name = Bendazac
REMARK  6 active torsions:
REMARK  status: ('A' for Active; 'I' for Inactive)
REMARK    1  A    between atoms: O_1  and  C_2
REMARK    2  A    between atoms: C_2  and  C_4
REMARK    3  A    between atoms: C_4  and  O_5
REMARK    4  A    between atoms: O_5  and  C_6
REMARK    5  A    between atoms: N_8  and  C_9
REMARK    6  A    between atoms: C_9  and  C_10
REMARK                            x       y       z     vdW  Elec       q    Type
REMARK                         _______ _______ _______ _____ _____    ______ ____
ROOT
ATOM      1  C   UNL     1      -8.307   5.047 129.363  0.00  0.00    +0.000 A 
ATOM      2  N   UNL     1      -9.572   5.179 128.978  0.00  0.00    +0.000 NA
ATOM      3  N   UNL     1     -10.254   5.460 130.119  0.00  0.00    +0.000 N 
ATOM      4  C   UNL     1      -9.426   5.554 131.221  0.00  0.00    +0.000 A 
ATOM      5  C   UNL     1      -9.680   5.840 132.569  0.00  0.00    +0.000 A 
ATOM      6  C   UNL     1      -8.582   5.874 133.436  0.00  0.00    +0.000 A 
ATOM      7  C   UNL     1      -7.289   5.651 132.973  0.00  0.00    +0.000 A 
ATOM      8  C   UNL     1      -7.053   5.382 131.628  0.00  0.00    +0.000 A 
ATOM      9  C   UNL     1      -8.137   5.303 130.740  0.00  0.00    +0.000 A 
ENDROOT
BRANCH   1  10
ATOM     10  O   UNL     1      -7.417   4.796 128.376  0.00  0.00    +0.000 OA
BRANCH  10  11
ATOM     11  C   UNL     1      -7.835   3.857 127.389  0.00  0.00    +0.000 C 
BRANCH  11  12
ATOM     12  C   UNL     1      -7.951   4.548 126.031  0.00  0.00    +0.000 C 
ATOM     13  O   UNL     1      -7.215   5.448 125.633  0.00  0.00    +0.000 OA
BRANCH  12  14
ATOM     14  O   UNL     1      -8.935   4.066 125.231  0.00  0.00    +0.000 OA
ATOM     15  H   UNL     1      -9.032   3.099 125.167  0.00  0.00    +0.000 HD
ENDBRANCH  12  14
ENDBRANCH  11  12
ENDBRANCH  10  11
ENDBRANCH   1  10
BRANCH   3  16
ATOM     16  C   UNL     1     -11.722   5.621 130.140  0.00  0.00    +0.000 C 
BRANCH  16  17
ATOM     17  C   UNL     1     -12.206   6.804 129.335  0.00  0.00    +0.000 A 
ATOM     18  C   UNL     1     -11.815   8.100 129.701  0.00  0.00    +0.000 A 
ATOM     19  C   UNL     1     -12.554   9.193 129.264  0.00  0.00    +0.000 A 
ATOM     20  C   UNL     1     -13.559   9.017 128.317  0.00  0.00    +0.000 A 
ATOM     21  C   UNL     1     -13.804   7.753 127.787  0.00  0.00    +0.000 A 
ATOM     22  C   UNL     1     -13.164   6.638 128.327  0.00  0.00    +0.000 A 
ENDBRANCH  16  17
ENDBRANCH   3  16
TORSDOF 6
ENDMDL
MODEL 4
REMARK VINA RESULT:      -6.9      5.042      7.088
REMARK  Name = Bendazac
REMARK  6 active torsions:
REMARK  status: ('A' for Active; 'I' for Inactive)
REMARK    1  A    between atoms: O_1  and  C_2
REMARK    2  A    between atoms: C_2  and  C_4
REMARK    3  A    between atoms: C_4  and  O_5
REMARK    4  A    between atoms: O_5  and  C_6
REMARK    5  A    between atoms: N_8  and  C_9
REMARK    6  A    between atoms: C_9  and  C_10
REMARK                            x       y       z     vdW  Elec       q    Type
REMARK                         _______ _______ _______ _____ _____    ______ ____
ROOT
ATOM      1  C   UNL     1      -5.276   3.917 124.413  0.00  0.00    +0.000 A 
ATOM      2  N   UNL     1      -6.227   3.171 124.964  0.00  0.00    +0.000 NA
ATOM      3  N   UNL     1      -7.085   2.898 123.948  0.00  0.00    +0.000 N 
ATOM      4  C   UNL     1      -6.664   3.425 122.743  0.00  0.00    +0.000 A 
ATOM      5  C   UNL     1      -7.208   3.378 121.452  0.00  0.00    +0.000 A 
ATOM      6  C   UNL     1      -6.497   4.020 120.432  0.00  0.00    +0.000 A 
ATOM      7  C   UNL     1      -5.289   4.662 120.687  0.00  0.00    +0.000 A 
ATOM      8  C   UNL     1      -4.756   4.686 121.973  0.00  0.00    +0.000 A 
ATOM      9  C   UNL     1      -5.464   4.085 123.025  0.00  0.00    +0.000 A 
ENDROOT
BRANCH   1  10
ATOM     10  O   UNL     1      -4.270   4.288 125.236  0.00  0.00    +0.000 OA
BRANCH  10  11
ATOM     11  C   UNL     1      -3.978   3.389 126.303  0.00  0.00    +0.000 C 
BRANCH  11  12
ATOM     12  C   UNL     1      -2.494   3.470 126.659  0.00  0.00    +0.000 C 
ATOM     13  O   UNL     1      -1.640   2.658 126.312  0.00  0.00    +0.000 OA
BRANCH  12  14
ATOM     14  O   UNL     1      -2.143   4.564 127.382  0.00  0.00    +0.000 OA
ATOM     15  H   UNL     1      -1.455   4.452 128.063  0.00  0.00    +0.000 HD
ENDBRANCH  12  14
ENDBRANCH  11  12
ENDBRANCH  10  11
ENDBRANCH   1  10
BRANCH   3  16
ATOM     16  C   UNL     1      -8.332   2.133 124.154  0.00  0.00    +0.000 C 
BRANCH  16  17
ATOM     17  C   UNL     1      -8.188   0.660 123.850  0.00  0.00    +0.000 A 
ATOM     18  C   UNL     1      -6.918   0.067 123.873  0.00  0.00    +0.000 A 
ATOM     19  C   UNL     1      -6.705  -1.135 123.208  0.00  0.00    +0.000 A 
ATOM     20  C   UNL     1      -7.787  -1.839 122.686  0.00  0.00    +0.000 A 
ATOM     21  C   UNL     1      -9.082  -1.356 122.854  0.00  0.00    +0.000 A 
ATOM     22  C   UNL     1      -9.283  -0.085 123.393  0.00  0.00    +0.000 A 
ENDBRANCH  16  17
ENDBRANCH   3  16
TORSDOF 6
ENDMDL
MODEL 5
REMARK VINA RESULT:      -6.8      9.655     11.325
REMARK  Name = Bendazac
REMARK  6 active torsions:
REMARK  status: ('A' for Active; 'I' for Inactive)
REMARK    1  A    between atoms: O_1  and  C_2
REMARK    2  A    between atoms: C_2  and  C_4
REMARK    3  A    between atoms: C_4  and  O_5
REMARK    4  A    between atoms: O_5  and  C_6
REMARK    5  A    between atoms: N_8  and  C_9
REMARK    6  A    between atoms: C_9  and  C_10
REMARK                            x       y       z     vdW  Elec       q    Type
REMARK                         _______ _______ _______ _____ _____    ______ ____
ROOT
ATOM      1  C   UNL     1      -7.280   6.589 131.177  0.00  0.00    +0.000 A 
ATOM      2  N   UNL     1      -8.316   6.467 130.354  0.00  0.00    +0.000 NA
ATOM      3  N   UNL     1      -9.162   5.613 130.987  0.00  0.00    +0.000 N 
ATOM      4  C   UNL     1      -8.695   5.228 132.229  0.00  0.00    +0.000 A 
ATOM      5  C   UNL     1      -9.231   4.396 133.221  0.00  0.00    +0.000 A 
ATOM      6  C   UNL     1      -8.484   4.232 134.393  0.00  0.00    +0.000 A 
ATOM      7  C   UNL     1      -7.270   4.886 134.573  0.00  0.00    +0.000 A 
ATOM      8  C   UNL     1      -6.759   5.721 133.583  0.00  0.00    +0.000 A 
ATOM      9  C   UNL     1      -7.464   5.876 132.380  0.00  0.00    +0.000 A 
ENDROOT
BRANCH   1  10
ATOM     10  O   UNL     1      -6.306   7.434 130.771  0.00  0.00    +0.000 OA
BRANCH  10  11
ATOM     11  C   UNL     1      -4.993   6.882 130.712  0.00  0.00    +0.000 C 
BRANCH  11  12
ATOM     12  C   UNL     1      -4.150   7.657 129.700  0.00  0.00    +0.000 C 
ATOM     13  O   UNL     1      -3.218   7.187 129.051  0.00  0.00    +0.000 OA
BRANCH  12  14
ATOM     14  O   UNL     1      -4.527   8.948 129.516  0.00  0.00    +0.000 OA
ATOM     15  H   UNL     1      -3.843   9.583 129.237  0.00  0.00    +0.000 HD
ENDBRANCH  12  14
ENDBRANCH  11  12
ENDBRANCH  10  11
ENDBRANCH   1  10
BRANCH   3  16
ATOM     16  C   UNL     1     -10.426   5.157 130.373  0.00  0.00    +0.000 C 
BRANCH  16  17
ATOM     17  C   UNL     1     -11.477   6.238 130.292  0.00  0.00    +0.000 A 
ATOM     18  C   UNL     1     -11.670   6.931 129.088  0.00  0.00    +0.000 A 
ATOM     19  C   UNL     1     -12.303   8.168 129.097  0.00  0.00    +0.000 A 
ATOM     20  C   UNL     1     -12.909   8.629 130.263  0.00  0.00    +0.000 A 
ATOM     21  C   UNL     1     -12.906   7.839 131.410  0.00  0.00    +0.000 A 
ATOM     22  C   UNL     1     -12.152   6.666 131.443  0.00  0.00    +0.000 A 
ENDBRANCH  16  17
ENDBRANCH   3  16
TORSDOF 6
ENDMDL
MODEL 6
REMARK VINA RESULT:      -6.8      2.599      3.988
REMARK  Name = Bendazac
REMARK  6 active torsions:
REMARK  status: ('A' for Active; 'I' for Inactive)
REMARK    1  A    between atoms: O_1  and  C_2
REMARK    2  A    between atoms: C_2  and  C_4
REMARK    3  A    between atoms: C_4  and  O_5
REMARK    4  A    between atoms: O_5  and  C_6
REMARK    5  A    between atoms: N_8  and  C_9
REMARK    6  A    between atoms: C_9  and  C_10
REMARK                            x       y       z     vdW  Elec       q    Type
REMARK                         _______ _______ _______ _____ _____    ______ ____
ROOT
ATOM      1  C   UNL     1      -6.789   1.648 124.731  0.00  0.00    +0.000 A 
ATOM      2  N   UNL     1      -6.203   0.576 125.254  0.00  0.00    +0.000 NA
ATOM      3  N   UNL     1      -6.980  -0.468 124.864  0.00  0.00    +0.000 N 
ATOM      4  C   UNL     1      -8.031  -0.074 124.058  0.00  0.00    +0.000 A 
ATOM      5  C   UNL     1      -9.051  -0.794 123.421  0.00  0.00    +0.000 A 
ATOM      6  C   UNL     1      -9.962  -0.067 122.647  0.00  0.00    +0.000 A 
ATOM      7  C   UNL     1      -9.847   1.312 122.501  0.00  0.00    +0.000 A 
ATOM      8  C   UNL     1      -8.819   2.009 123.129  0.00  0.00    +0.000 A 
ATOM      9  C   UNL     1      -7.911   1.314 123.943  0.00  0.00    +0.000 A 
ENDROOT
BRANCH   1  10
ATOM     10  O   UNL     1      -6.165   2.825 124.956  0.00  0.00    +0.000 OA
BRANCH  10  11
ATOM     11  C   UNL     1      -6.670   3.596 126.044  0.00  0.00    +0.000 C 
BRANCH  11  12
ATOM     12  C   UNL     1      -7.555   4.723 125.515  0.00  0.00    +0.000 C 
ATOM     13  O   UNL     1      -8.784   4.721 125.529  0.00  0.00    +0.000 OA
BRANCH  12  14
ATOM     14  O   UNL     1      -6.880   5.801 125.040  0.00  0.00    +0.000 OA
ATOM     15  H   UNL     1      -6.113   5.634 124.463  0.00  0.00    +0.000 HD
ENDBRANCH  12  14
ENDBRANCH  11  12
ENDBRANCH  10  11
ENDBRANCH   1  10
BRANCH   3  16
ATOM     16  C   UNL     1      -6.709  -1.855 125.293  0.00  0.00    +0.000 C 
BRANCH  16  17
ATOM     17  C   UNL     1      -7.540  -2.290 126.477  0.00  0.00    +0.000 A 
ATOM     18  C   UNL     1      -7.238  -1.798 127.755  0.00  0.00    +0.000 A 
ATOM     19  C   UNL     1      -7.689  -2.477 128.881  0.00  0.00    +0.000 A 
ATOM     20  C   UNL     1      -8.591  -3.529 128.741  0.00  0.00    +0.000 A 
ATOM     21  C   UNL     1      -9.063  -3.880 127.479  0.00  0.00    +0.000 A 
ATOM     22  C   UNL     1      -8.505  -3.296 126.342  0.00  0.00    +0.000 A 
ENDBRANCH  16  17
ENDBRANCH   3  16
TORSDOF 6
ENDMDL
MODEL 7
REMARK VINA RESULT:      -6.8      1.647      4.850
REMARK  Name = Bendazac
REMARK  6 active torsions:
REMARK  status: ('A' for Active; 'I' for Inactive)
REMARK    1  A    between atoms: O_1  and  C_2
REMARK    2  A    between atoms: C_2  and  C_4
REMARK    3  A    between atoms: C_4  and  O_5
REMARK    4  A    between atoms: O_5  and  C_6
REMARK    5  A    between atoms: N_8  and  C_9
REMARK    6  A    between atoms: C_9  and  C_10
REMARK                            x       y       z     vdW  Elec       q    Type
REMARK                         _______ _______ _______ _____ _____    ______ ____
ROOT
ATOM      1  C   UNL     1      -8.175   0.433 127.040  0.00  0.00    +0.000 A 
ATOM      2  N   UNL     1      -8.550  -0.042 125.857  0.00  0.00    +0.000 NA
ATOM      3  N   UNL     1      -8.537  -1.392 126.006  0.00  0.00    +0.000 N 
ATOM      4  C   UNL     1      -8.201  -1.780 127.289  0.00  0.00    +0.000 A 
ATOM      5  C   UNL     1      -8.084  -3.039 127.893  0.00  0.00    +0.000 A 
ATOM      6  C   UNL     1      -7.735  -3.072 129.248  0.00  0.00    +0.000 A 
ATOM      7  C   UNL     1      -7.531  -1.900 129.969  0.00  0.00    +0.000 A 
ATOM      8  C   UNL     1      -7.665  -0.657 129.357  0.00  0.00    +0.000 A 
ATOM      9  C   UNL     1      -7.977  -0.591 127.990  0.00  0.00    +0.000 A 
ENDROOT
BRANCH   1  10
ATOM     10  O   UNL     1      -8.148   1.780 127.149  0.00  0.00    +0.000 OA
BRANCH  10  11
ATOM     11  C   UNL     1      -7.548   2.478 126.061  0.00  0.00    +0.000 C 
BRANCH  11  12
ATOM     12  C   UNL     1      -8.592   3.354 125.368  0.00  0.00    +0.000 C 
ATOM     13  O   UNL     1      -8.634   4.580 125.426  0.00  0.00    +0.000 OA
BRANCH  12  14
ATOM     14  O   UNL     1      -9.493   2.675 124.614  0.00  0.00    +0.000 OA
ATOM     15  H   UNL     1      -9.169   2.238 123.806  0.00  0.00    +0.000 HD
ENDBRANCH  12  14
ENDBRANCH  11  12
ENDBRANCH  10  11
ENDBRANCH   1  10
BRANCH   3  16
ATOM     16  C   UNL     1      -8.836  -2.311 124.890  0.00  0.00    +0.000 C 
BRANCH  16  17
ATOM     17  C   UNL     1      -7.622  -2.667 124.065  0.00  0.00    +0.000 A 
ATOM     18  C   UNL     1      -6.788  -3.717 124.475  0.00  0.00    +0.000 A 
ATOM     19  C   UNL     1      -5.485  -3.791 123.997  0.00  0.00    +0.000 A 
ATOM     20  C   UNL     1      -5.072  -2.940 122.975  0.00  0.00    +0.000 A 
ATOM     21  C   UNL     1      -5.971  -2.037 122.412  0.00  0.00    +0.000 A 
ATOM     22  C   UNL     1      -7.230  -1.865 122.985  0.00  0.00    +0.000 A 
ENDBRANCH  16  17
ENDBRANCH   3  16
TORSDOF 6
ENDMDL
MODEL 8
REMARK VINA RESULT:      -6.8      3.568      6.749
REMARK  Name = Bendazac
REMARK  6 active torsions:
REMARK  status: ('A' for Active; 'I' for Inactive)
REMARK    1  A    between atoms: O_1  and  C_2
REMARK    2  A    between atoms: C_2  and  C_4
REMARK    3  A    between atoms: C_4  and  O_5
REMARK    4  A    between atoms: O_5  and  C_6
REMARK    5  A    between atoms: N_8  and  C_9
REMARK    6  A    between atoms: C_9  and  C_10
REMARK                            x       y       z     vdW  Elec       q    Type
REMARK                         _______ _______ _______ _____ _____    ______ ____
ROOT
ATOM      1  C   UNL     1      -7.198  -0.494 124.068  0.00  0.00    +0.000 A 
ATOM      2  N   UNL     1      -8.026   0.211 123.303  0.00  0.00    +0.000 NA
ATOM      3  N   UNL     1      -7.891   1.491 123.737  0.00  0.00    +0.000 N 
ATOM      4  C   UNL     1      -6.950   1.614 124.741  0.00  0.00    +0.000 A 
ATOM      5  C   UNL     1      -6.475   2.722 125.458  0.00  0.00    +0.000 A 
ATOM      6  C   UNL     1      -5.482   2.488 126.415  0.00  0.00    +0.000 A 
ATOM      7  C   UNL     1      -4.973   1.212 126.632  0.00  0.00    +0.000 A 
ATOM      8  C   UNL     1      -5.446   0.126 125.900  0.00  0.00    +0.000 A 
ATOM      9  C   UNL     1      -6.469   0.320 124.960  0.00  0.00    +0.000 A 
ENDROOT
BRANCH   1  10
ATOM     10  O   UNL     1      -7.130  -1.816 123.793  0.00  0.00    +0.000 OA
BRANCH  10  11
ATOM     11  C   UNL     1      -7.646  -2.685 124.799  0.00  0.00    +0.000 C 
BRANCH  11  12
ATOM     12  C   UNL     1      -9.172  -2.716 124.725  0.00  0.00    +0.000 C 
ATOM     13  O   UNL     1      -9.923  -2.800 125.693  0.00  0.00    +0.000 OA
BRANCH  12  14
ATOM     14  O   UNL     1      -9.682  -2.601 123.472  0.00  0.00    +0.000 OA
ATOM     15  H   UNL     1      -9.339  -3.204 122.788  0.00  0.00    +0.000 HD
ENDBRANCH  12  14
ENDBRANCH  11  12
ENDBRANCH  10  11
ENDBRANCH   1  10
BRANCH   3  16
ATOM     16  C   UNL     1      -8.696   2.599 123.183  0.00  0.00    +0.000 C 
BRANCH  16  17
ATOM     17  C   UNL     1      -8.017   3.320 122.042  0.00  0.00    +0.000 A 
ATOM     18  C   UNL     1      -8.780   3.775 120.957  0.00  0.00    +0.000 A 
ATOM     19  C   UNL     1      -8.159   4.049 119.744  0.00  0.00    +0.000 A 
ATOM     20  C   UNL     1      -6.769   4.055 119.662  0.00  0.00    +0.000 A 
ATOM     21  C   UNL     1      -6.001   3.815 120.799  0.00  0.00    +0.000 A 
ATOM     22  C   UNL     1      -6.620   3.402 121.978  0.00  0.00    +0.000 A 
ENDBRANCH  16  17
ENDBRANCH   3  16
TORSDOF 6
ENDMDL
MODEL 9
REMARK VINA RESULT:      -6.7      1.687      2.076
REMARK  Name = Bendazac
REMARK  6 active torsions:
REMARK  status: ('A' for Active; 'I' for Inactive)
REMARK    1  A    between atoms: O_1  and  C_2
REMARK    2  A    between atoms: C_2  and  C_4
REMARK    3  A    between atoms: C_4  and  O_5
REMARK    4  A    between atoms: O_5  and  C_6
REMARK    5  A    between atoms: N_8  and  C_9
REMARK    6  A    between atoms: C_9  and  C_10
REMARK                            x       y       z     vdW  Elec       q    Type
REMARK                         _______ _______ _______ _____ _____    ______ ____
ROOT
ATOM      1  C   UNL     1      -8.578  -0.445 124.613  0.00  0.00    +0.000 A 
ATOM      2  N   UNL     1      -8.310  -0.093 125.866  0.00  0.00    +0.000 NA
ATOM      3  N   UNL     1      -7.106  -0.660 126.135  0.00  0.00    +0.000 N 
ATOM      4  C   UNL     1      -6.582  -1.332 125.048  0.00  0.00    +0.000 A 
ATOM      5  C   UNL     1      -5.383  -2.034 124.862  0.00  0.00    +0.000 A 
ATOM      6  C   UNL     1      -5.155  -2.591 123.599  0.00  0.00    +0.000 A 
ATOM      7  C   UNL     1      -6.073  -2.437 122.565  0.00  0.00    +0.000 A 
ATOM      8  C   UNL     1      -7.253  -1.725 122.764  0.00  0.00    +0.000 A 
ATOM      9  C   UNL     1      -7.529  -1.186 124.030  0.00  0.00    +0.000 A 
ENDROOT
BRANCH   1  10
ATOM     10  O   UNL     1      -9.731   0.041 124.101  0.00  0.00    +0.000 OA
BRANCH  10  11
ATOM     11  C   UNL     1      -9.591   0.932 122.997  0.00  0.00    +0.000 C 
BRANCH  11  12
ATOM     12  C   UNL     1      -9.237   2.331 123.500  0.00  0.00    +0.000 C 
ATOM     13  O   UNL     1      -8.721   3.215 122.821  0.00  0.00    +0.000 OA
BRANCH  12  14
ATOM     14  O   UNL     1      -9.575   2.572 124.792  0.00  0.00    +0.000 OA
ATOM     15  H   UNL     1     -10.522   2.560 125.021  0.00  0.00    +0.000 HD
ENDBRANCH  12  14
ENDBRANCH  11  12
ENDBRANCH  10  11
ENDBRANCH   1  10
BRANCH   3  16
ATOM     16  C   UNL     1      -6.469  -0.561 127.464  0.00  0.00    +0.000 C 
BRANCH  16  17
ATOM     17  C   UNL     1      -6.470  -1.864 128.228  0.00  0.00    +0.000 A 
ATOM     18  C   UNL     1      -7.689  -2.444 128.609  0.00  0.00    +0.000 A 
ATOM     19  C   UNL     1      -7.717  -3.378 129.638  0.00  0.00    +0.000 A 
ATOM     20  C   UNL     1      -6.524  -3.874 130.157  0.00  0.00    +0.000 A 
ATOM     21  C   UNL     1      -5.305  -3.459 129.626  0.00  0.00    +0.000 A 
ATOM     22  C   UNL     1      -5.273  -2.421 128.695  0.00  0.00    +0.000 A 
ENDBRANCH  16  17
ENDBRANCH   3  16
TORSDOF 6
ENDMDL
