MODEL 1
REMARK VINA RESULT:      -8.7      0.000      0.000
REMARK  Name = Bendroflumethiazide
REMARK  5 active torsions:
REMARK  status: ('A' for Active; 'I' for Inactive)
REMARK    1  A    between atoms: N_1  and  S_2
REMARK    2  A    between atoms: S_2  and  C_5
REMARK    3  A    between atoms: C_10  and  C_11
REMARK    4  A    between atoms: C_11  and  C_12
REMARK    5  A    between atoms: C_23  and  C_24
REMARK                            x       y       z     vdW  Elec       q    Type
REMARK                         _______ _______ _______ _____ _____    ______ ____
ROOT
ATOM      1  C   UNL     1      -7.723  -1.413 126.457  0.00  0.00    +0.000 A 
ATOM      2  C   UNL     1      -7.767  -0.023 126.625  0.00  0.00    +0.000 A 
ATOM      3  C   UNL     1      -7.965   0.815 125.525  0.00  0.00    +0.000 A 
ATOM      4  C   UNL     1      -8.190   0.352 124.236  0.00  0.00    +0.000 A 
ATOM      5  N   UNL     1      -8.597   1.148 123.181  0.00  0.00    +0.000 N 
ATOM      6  C   UNL     1      -8.757   2.588 123.260  0.00  0.00    +0.000 C 
ATOM      7  N   UNL     1      -9.131   2.942 124.615  0.00  0.00    +0.000 NA
ATOM      8  S   UNL     1      -8.017   2.531 125.793  0.00  0.00    +0.000 S 
ATOM      9  O   UNL     1      -8.652   2.795 127.063  0.00  0.00    +0.000 OA
ATOM     10  O   UNL     1      -6.699   3.043 125.498  0.00  0.00    +0.000 OA
ATOM     11  C   UNL     1      -8.130  -1.032 124.082  0.00  0.00    +0.000 A 
ATOM     12  C   UNL     1      -7.895  -1.939 125.169  0.00  0.00    +0.000 A 
ATOM     13  H   UNL     1      -8.586   0.761 122.241  0.00  0.00    +0.000 HD
ATOM     14  H   UNL     1     -10.073   2.656 124.868  0.00  0.00    +0.000 HD
ENDROOT
BRANCH  12  15
ATOM     15  C   UNL     1      -7.870  -3.389 124.761  0.00  0.00    +0.000 C 
ATOM     16  F   UNL     1      -8.461  -3.565 123.544  0.00  0.00    +0.000 F 
ATOM     17  F   UNL     1      -6.586  -3.820 124.607  0.00  0.00    +0.000 F 
ATOM     18  F   UNL     1      -8.465  -4.288 125.560  0.00  0.00    +0.000 F 
ENDBRANCH  12  15
BRANCH   1  19
ATOM     19  S   UNL     1      -7.550  -2.326 127.983  0.00  0.00    +0.000 S 
ATOM     20  O   UNL     1      -6.230  -2.871 128.174  0.00  0.00    +0.000 OA
ATOM     21  O   UNL     1      -8.736  -3.122 128.151  0.00  0.00    +0.000 OA
BRANCH  19  22
ATOM     22  N   UNL     1      -7.619  -1.108 129.140  0.00  0.00    +0.000 NA
ATOM     23  H   UNL     1      -8.093  -1.498 129.961  0.00  0.00    +0.000 HD
ATOM     24  H   UNL     1      -8.068  -0.256 128.814  0.00  0.00    +0.000 HD
ENDBRANCH  19  22
ENDBRANCH   1  19
BRANCH   6  25
ATOM     25  C   UNL     1      -7.540   3.369 122.722  0.00  0.00    +0.000 C 
BRANCH  25  26
ATOM     26  C   UNL     1      -7.664   3.740 121.255  0.00  0.00    +0.000 A 
ATOM     27  C   UNL     1      -6.536   4.107 120.524  0.00  0.00    +0.000 A 
ATOM     28  C   UNL     1      -6.678   4.567 119.211  0.00  0.00    +0.000 A 
ATOM     29  C   UNL     1      -7.924   4.570 118.581  0.00  0.00    +0.000 A 
ATOM     30  C   UNL     1      -9.047   4.177 119.280  0.00  0.00    +0.000 A 
ATOM     31  C   UNL     1      -8.911   3.794 120.604  0.00  0.00    +0.000 A 
ENDBRANCH  25  26
ENDBRANCH   6  25
TORSDOF 5
ENDMDL
MODEL 2
REMARK VINA RESULT:      -8.5      9.647     12.525
REMARK  Name = Bendroflumethiazide
REMARK  5 active torsions:
REMARK  status: ('A' for Active; 'I' for Inactive)
REMARK    1  A    between atoms: N_1  and  S_2
REMARK    2  A    between atoms: S_2  and  C_5
REMARK    3  A    between atoms: C_10  and  C_11
REMARK    4  A    between atoms: C_11  and  C_12
REMARK    5  A    between atoms: C_23  and  C_24
REMARK                            x       y       z     vdW  Elec       q    Type
REMARK                         _______ _______ _______ _____ _____    ______ ____
ROOT
ATOM      1  C   UNL     1     -10.500   6.888 129.617  0.00  0.00    +0.000 A 
ATOM      2  C   UNL     1      -9.230   6.329 129.815  0.00  0.00    +0.000 A 
ATOM      3  C   UNL     1      -8.800   5.991 131.100  0.00  0.00    +0.000 A 
ATOM      4  C   UNL     1      -9.592   6.116 132.234  0.00  0.00    +0.000 A 
ATOM      5  N   UNL     1      -9.269   5.592 133.472  0.00  0.00    +0.000 N 
ATOM      6  C   UNL     1      -8.019   4.919 133.773  0.00  0.00    +0.000 C 
ATOM      7  N   UNL     1      -7.536   4.271 132.569  0.00  0.00    +0.000 NA
ATOM      8  S   UNL     1      -7.218   5.295 131.286  0.00  0.00    +0.000 S 
ATOM      9  O   UNL     1      -6.936   4.448 130.150  0.00  0.00    +0.000 OA
ATOM     10  O   UNL     1      -6.327   6.369 131.654  0.00  0.00    +0.000 OA
ATOM     11  C   UNL     1     -10.846   6.685 132.024  0.00  0.00    +0.000 A 
ATOM     12  C   UNL     1     -11.326   7.085 130.732  0.00  0.00    +0.000 A 
ATOM     13  H   UNL     1      -9.823   5.863 134.279  0.00  0.00    +0.000 HD
ATOM     14  H   UNL     1      -8.093   3.469 132.285  0.00  0.00    +0.000 HD
ENDROOT
BRANCH  12  15
ATOM     15  C   UNL     1     -12.711   7.678 130.751  0.00  0.00    +0.000 C 
ATOM     16  F   UNL     1     -13.147   7.861 132.031  0.00  0.00    +0.000 F 
ATOM     17  F   UNL     1     -12.706   8.920 130.188  0.00  0.00    +0.000 F 
ATOM     18  F   UNL     1     -13.703   7.007 130.148  0.00  0.00    +0.000 F 
ENDBRANCH  12  15
BRANCH   1  19
ATOM     19  S   UNL     1     -10.910   7.176 127.902  0.00  0.00    +0.000 S 
ATOM     20  O   UNL     1     -10.689   8.537 127.485  0.00  0.00    +0.000 OA
ATOM     21  O   UNL     1     -12.140   6.483 127.627  0.00  0.00    +0.000 OA
BRANCH  19  22
ATOM     22  N   UNL     1      -9.694   6.339 127.097  0.00  0.00    +0.000 NA
ATOM     23  H   UNL     1      -9.116   5.885 127.811  0.00  0.00    +0.000 HD
ATOM     24  H   UNL     1      -9.138   6.919 126.474  0.00  0.00    +0.000 HD
ENDBRANCH  19  22
ENDBRANCH   1  19
BRANCH   6  25
ATOM     25  C   UNL     1      -6.978   5.836 134.449  0.00  0.00    +0.000 C 
BRANCH  25  26
ATOM     26  C   UNL     1      -7.127   5.904 135.959  0.00  0.00    +0.000 A 
ATOM     27  C   UNL     1      -8.218   6.555 136.530  0.00  0.00    +0.000 A 
ATOM     28  C   UNL     1      -8.281   6.721 137.917  0.00  0.00    +0.000 A 
ATOM     29  C   UNL     1      -7.315   6.156 138.753  0.00  0.00    +0.000 A 
ATOM     30  C   UNL     1      -6.246   5.477 138.205  0.00  0.00    +0.000 A 
ATOM     31  C   UNL     1      -6.149   5.381 136.827  0.00  0.00    +0.000 A 
ENDBRANCH  25  26
ENDBRANCH   6  25
TORSDOF 5
ENDMDL
MODEL 3
REMARK VINA RESULT:      -8.5      9.674     12.560
REMARK  Name = Bendroflumethiazide
REMARK  5 active torsions:
REMARK  status: ('A' for Active; 'I' for Inactive)
REMARK    1  A    between atoms: N_1  and  S_2
REMARK    2  A    between atoms: S_2  and  C_5
REMARK    3  A    between atoms: C_10  and  C_11
REMARK    4  A    between atoms: C_11  and  C_12
REMARK    5  A    between atoms: C_23  and  C_24
REMARK                            x       y       z     vdW  Elec       q    Type
REMARK                         _______ _______ _______ _____ _____    ______ ____
ROOT
ATOM      1  C   UNL     1     -10.494   6.754 129.628  0.00  0.00    +0.000 A 
ATOM      2  C   UNL     1      -9.248   6.160 129.869  0.00  0.00    +0.000 A 
ATOM      3  C   UNL     1      -8.844   5.872 131.174  0.00  0.00    +0.000 A 
ATOM      4  C   UNL     1      -9.641   6.084 132.291  0.00  0.00    +0.000 A 
ATOM      5  N   UNL     1      -9.350   5.612 133.558  0.00  0.00    +0.000 N 
ATOM      6  C   UNL     1      -8.129   4.911 133.907  0.00  0.00    +0.000 C 
ATOM      7  N   UNL     1      -7.659   4.185 132.744  0.00  0.00    +0.000 NA
ATOM      8  S   UNL     1      -7.291   5.130 131.414  0.00  0.00    +0.000 S 
ATOM      9  O   UNL     1      -7.028   4.216 130.326  0.00  0.00    +0.000 OA
ATOM     10  O   UNL     1      -6.364   6.189 131.738  0.00  0.00    +0.000 OA
ATOM     11  C   UNL     1     -10.872   6.687 132.037  0.00  0.00    +0.000 A 
ATOM     12  C   UNL     1     -11.324   7.037 130.722  0.00  0.00    +0.000 A 
ATOM     13  H   UNL     1      -9.902   5.944 134.344  0.00  0.00    +0.000 HD
ATOM     14  H   UNL     1      -8.241   3.390 132.494  0.00  0.00    +0.000 HD
ENDROOT
BRANCH  12  15
ATOM     15  C   UNL     1     -12.686   7.681 130.694  0.00  0.00    +0.000 C 
ATOM     16  F   UNL     1     -13.606   6.853 130.118  0.00  0.00    +0.000 F 
ATOM     17  F   UNL     1     -13.138   7.898 131.962  0.00  0.00    +0.000 F 
ATOM     18  F   UNL     1     -12.830   8.847 130.048  0.00  0.00    +0.000 F 
ENDBRANCH  12  15
BRANCH   1  19
ATOM     19  S   UNL     1     -10.876   6.968 127.896  0.00  0.00    +0.000 S 
ATOM     20  O   UNL     1     -12.239   6.632 127.568  0.00  0.00    +0.000 OA
ATOM     21  O   UNL     1      -9.762   6.463 127.138  0.00  0.00    +0.000 OA
BRANCH  19  22
ATOM     22  N   UNL     1     -10.855   8.640 127.727  0.00  0.00    +0.000 NA
ATOM     23  H   UNL     1     -10.184   9.004 128.410  0.00  0.00    +0.000 HD
ATOM     24  H   UNL     1     -11.768   9.076 127.827  0.00  0.00    +0.000 HD
ENDBRANCH  19  22
ENDBRANCH   1  19
BRANCH   6  25
ATOM     25  C   UNL     1      -7.062   5.823 134.548  0.00  0.00    +0.000 C 
BRANCH  25  26
ATOM     26  C   UNL     1      -7.186   5.923 136.058  0.00  0.00    +0.000 A 
ATOM     27  C   UNL     1      -8.229   6.646 136.633  0.00  0.00    +0.000 A 
ATOM     28  C   UNL     1      -8.263   6.837 138.018  0.00  0.00    +0.000 A 
ATOM     29  C   UNL     1      -7.320   6.230 138.850  0.00  0.00    +0.000 A 
ATOM     30  C   UNL     1      -6.299   5.482 138.299  0.00  0.00    +0.000 A 
ATOM     31  C   UNL     1      -6.228   5.359 136.922  0.00  0.00    +0.000 A 
ENDBRANCH  25  26
ENDBRANCH   6  25
TORSDOF 5
ENDMDL
MODEL 4
REMARK VINA RESULT:      -8.2      3.987      4.658
REMARK  Name = Bendroflumethiazide
REMARK  5 active torsions:
REMARK  status: ('A' for Active; 'I' for Inactive)
REMARK    1  A    between atoms: N_1  and  S_2
REMARK    2  A    between atoms: S_2  and  C_5
REMARK    3  A    between atoms: C_10  and  C_11
REMARK    4  A    between atoms: C_11  and  C_12
REMARK    5  A    between atoms: C_23  and  C_24
REMARK                            x       y       z     vdW  Elec       q    Type
REMARK                         _______ _______ _______ _____ _____    ______ ____
ROOT
ATOM      1  C   UNL     1      -8.194   3.191 129.304  0.00  0.00    +0.000 A 
ATOM      2  C   UNL     1      -8.208   4.131 128.266  0.00  0.00    +0.000 A 
ATOM      3  C   UNL     1      -7.862   3.754 126.967  0.00  0.00    +0.000 A 
ATOM      4  C   UNL     1      -7.551   2.451 126.601  0.00  0.00    +0.000 A 
ATOM      5  N   UNL     1      -7.417   2.018 125.294  0.00  0.00    +0.000 N 
ATOM      6  C   UNL     1      -7.495   2.887 124.135  0.00  0.00    +0.000 C 
ATOM      7  N   UNL     1      -8.381   3.993 124.439  0.00  0.00    +0.000 NA
ATOM      8  S   UNL     1      -7.903   4.961 125.717  0.00  0.00    +0.000 S 
ATOM      9  O   UNL     1      -8.996   5.870 125.971  0.00  0.00    +0.000 OA
ATOM     10  O   UNL     1      -6.552   5.446 125.556  0.00  0.00    +0.000 OA
ATOM     11  C   UNL     1      -7.529   1.529 127.647  0.00  0.00    +0.000 A 
ATOM     12  C   UNL     1      -7.840   1.868 129.005  0.00  0.00    +0.000 A 
ATOM     13  H   UNL     1      -7.036   1.093 125.121  0.00  0.00    +0.000 HD
ATOM     14  H   UNL     1      -9.359   3.726 124.513  0.00  0.00    +0.000 HD
ENDROOT
BRANCH  12  15
ATOM     15  C   UNL     1      -7.746   0.707 129.962  0.00  0.00    +0.000 C 
ATOM     16  F   UNL     1      -8.929   0.516 130.615  0.00  0.00    +0.000 F 
ATOM     17  F   UNL     1      -7.515  -0.453 129.284  0.00  0.00    +0.000 F 
ATOM     18  F   UNL     1      -6.825   0.753 130.935  0.00  0.00    +0.000 F 
ENDBRANCH  12  15
BRANCH   1  19
ATOM     19  S   UNL     1      -8.748   3.834 130.877  0.00  0.00    +0.000 S 
ATOM     20  O   UNL     1      -7.784   3.658 131.934  0.00  0.00    +0.000 OA
ATOM     21  O   UNL     1     -10.129   3.467 131.035  0.00  0.00    +0.000 OA
BRANCH  19  22
ATOM     22  N   UNL     1      -8.716   5.494 130.618  0.00  0.00    +0.000 NA
ATOM     23  H   UNL     1      -8.193   5.911 131.395  0.00  0.00    +0.000 HD
ATOM     24  H   UNL     1      -9.637   5.913 130.516  0.00  0.00    +0.000 HD
ENDBRANCH  19  22
ENDBRANCH   1  19
BRANCH   6  25
ATOM     25  C   UNL     1      -6.114   3.321 123.603  0.00  0.00    +0.000 C 
BRANCH  25  26
ATOM     26  C   UNL     1      -6.141   3.769 122.152  0.00  0.00    +0.000 A 
ATOM     27  C   UNL     1      -5.046   4.428 121.597  0.00  0.00    +0.000 A 
ATOM     28  C   UNL     1      -5.130   4.946 120.302  0.00  0.00    +0.000 A 
ATOM     29  C   UNL     1      -6.260   4.728 119.511  0.00  0.00    +0.000 A 
ATOM     30  C   UNL     1      -7.341   4.046 120.034  0.00  0.00    +0.000 A 
ATOM     31  C   UNL     1      -7.282   3.601 121.344  0.00  0.00    +0.000 A 
ENDBRANCH  25  26
ENDBRANCH   6  25
TORSDOF 5
ENDMDL
MODEL 5
REMARK VINA RESULT:      -8.0      4.421      6.110
REMARK  Name = Bendroflumethiazide
REMARK  5 active torsions:
REMARK  status: ('A' for Active; 'I' for Inactive)
REMARK    1  A    between atoms: N_1  and  S_2
REMARK    2  A    between atoms: S_2  and  C_5
REMARK    3  A    between atoms: C_10  and  C_11
REMARK    4  A    between atoms: C_11  and  C_12
REMARK    5  A    between atoms: C_23  and  C_24
REMARK                            x       y       z     vdW  Elec       q    Type
REMARK                         _______ _______ _______ _____ _____    ______ ____
ROOT
ATOM      1  C   UNL     1      -7.484  -1.017 124.379  0.00  0.00    +0.000 A 
ATOM      2  C   UNL     1      -7.692   0.300 124.812  0.00  0.00    +0.000 A 
ATOM      3  C   UNL     1      -6.694   0.978 125.515  0.00  0.00    +0.000 A 
ATOM      4  C   UNL     1      -5.439   0.445 125.775  0.00  0.00    +0.000 A 
ATOM      5  N   UNL     1      -4.372   1.169 126.276  0.00  0.00    +0.000 N 
ATOM      6  C   UNL     1      -4.448   2.560 126.680  0.00  0.00    +0.000 C 
ATOM      7  N   UNL     1      -5.456   3.225 125.876  0.00  0.00    +0.000 NA
ATOM      8  S   UNL     1      -7.004   2.611 126.022  0.00  0.00    +0.000 S 
ATOM      9  O   UNL     1      -7.803   3.276 125.018  0.00  0.00    +0.000 OA
ATOM     10  O   UNL     1      -7.438   2.549 127.398  0.00  0.00    +0.000 OA
ATOM     11  C   UNL     1      -5.251  -0.870 125.350  0.00  0.00    +0.000 A 
ATOM     12  C   UNL     1      -6.253  -1.626 124.656  0.00  0.00    +0.000 A 
ATOM     13  H   UNL     1      -3.542   0.670 126.583  0.00  0.00    +0.000 HD
ATOM     14  H   UNL     1      -5.188   3.348 124.903  0.00  0.00    +0.000 HD
ENDROOT
BRANCH  12  15
ATOM     15  C   UNL     1      -5.824  -3.026 124.299  0.00  0.00    +0.000 C 
ATOM     16  F   UNL     1      -5.299  -3.070 123.040  0.00  0.00    +0.000 F 
ATOM     17  F   UNL     1      -4.823  -3.444 125.125  0.00  0.00    +0.000 F 
ATOM     18  F   UNL     1      -6.744  -4.001 124.317  0.00  0.00    +0.000 F 
ENDBRANCH  12  15
BRANCH   1  19
ATOM     19  S   UNL     1      -8.834  -1.691 123.423  0.00  0.00    +0.000 S 
ATOM     20  O   UNL     1      -9.689  -2.567 124.184  0.00  0.00    +0.000 OA
ATOM     21  O   UNL     1      -8.313  -2.063 122.135  0.00  0.00    +0.000 OA
BRANCH  19  22
ATOM     22  N   UNL     1      -9.809  -0.343 123.177  0.00  0.00    +0.000 NA
ATOM     23  H   UNL     1      -9.950   0.098 124.091  0.00  0.00    +0.000 HD
ATOM     24  H   UNL     1     -10.692  -0.552 122.719  0.00  0.00    +0.000 HD
ENDBRANCH  19  22
ENDBRANCH   1  19
BRANCH   6  25
ATOM     25  C   UNL     1      -4.638   2.746 128.199  0.00  0.00    +0.000 C 
BRANCH  25  26
ATOM     26  C   UNL     1      -3.771   3.847 128.783  0.00  0.00    +0.000 A 
ATOM     27  C   UNL     1      -3.623   3.970 130.163  0.00  0.00    +0.000 A 
ATOM     28  C   UNL     1      -2.927   5.060 130.694  0.00  0.00    +0.000 A 
ATOM     29  C   UNL     1      -2.287   5.979 129.860  0.00  0.00    +0.000 A 
ATOM     30  C   UNL     1      -2.394   5.852 128.489  0.00  0.00    +0.000 A 
ATOM     31  C   UNL     1      -3.148   4.814 127.970  0.00  0.00    +0.000 A 
ENDBRANCH  25  26
ENDBRANCH   6  25
TORSDOF 5
ENDMDL
MODEL 6
REMARK VINA RESULT:      -7.9      4.523      6.089
REMARK  Name = Bendroflumethiazide
REMARK  5 active torsions:
REMARK  status: ('A' for Active; 'I' for Inactive)
REMARK    1  A    between atoms: N_1  and  S_2
REMARK    2  A    between atoms: S_2  and  C_5
REMARK    3  A    between atoms: C_10  and  C_11
REMARK    4  A    between atoms: C_11  and  C_12
REMARK    5  A    between atoms: C_23  and  C_24
REMARK                            x       y       z     vdW  Elec       q    Type
REMARK                         _______ _______ _______ _____ _____    ______ ____
ROOT
ATOM      1  C   UNL     1      -7.372  -1.934 125.048  0.00  0.00    +0.000 A 
ATOM      2  C   UNL     1      -7.805  -0.938 125.933  0.00  0.00    +0.000 A 
ATOM      3  C   UNL     1      -6.905   0.011 126.423  0.00  0.00    +0.000 A 
ATOM      4  C   UNL     1      -5.574   0.080 126.036  0.00  0.00    +0.000 A 
ATOM      5  N   UNL     1      -4.726   1.130 126.339  0.00  0.00    +0.000 N 
ATOM      6  C   UNL     1      -5.091   2.257 127.178  0.00  0.00    +0.000 C 
ATOM      7  N   UNL     1      -6.515   2.496 127.044  0.00  0.00    +0.000 NA
ATOM      8  S   UNL     1      -7.499   1.228 127.513  0.00  0.00    +0.000 S 
ATOM      9  O   UNL     1      -8.844   1.592 127.131  0.00  0.00    +0.000 OA
ATOM     10  O   UNL     1      -7.202   0.775 128.852  0.00  0.00    +0.000 OA
ATOM     11  C   UNL     1      -5.154  -0.925 125.166  0.00  0.00    +0.000 A 
ATOM     12  C   UNL     1      -6.025  -1.946 124.659  0.00  0.00    +0.000 A 
ATOM     13  H   UNL     1      -3.733   1.028 126.155  0.00  0.00    +0.000 HD
ATOM     14  H   UNL     1      -6.784   2.869 126.138  0.00  0.00    +0.000 HD
ENDROOT
BRANCH  12  15
ATOM     15  C   UNL     1      -5.348  -2.925 123.736  0.00  0.00    +0.000 C 
ATOM     16  F   UNL     1      -5.786  -2.770 122.453  0.00  0.00    +0.000 F 
ATOM     17  F   UNL     1      -4.006  -2.690 123.692  0.00  0.00    +0.000 F 
ATOM     18  F   UNL     1      -5.483  -4.236 123.984  0.00  0.00    +0.000 F 
ENDBRANCH  12  15
BRANCH   1  19
ATOM     19  S   UNL     1      -8.677  -3.004 124.461  0.00  0.00    +0.000 S 
ATOM     20  O   UNL     1      -8.408  -4.403 124.680  0.00  0.00    +0.000 OA
ATOM     21  O   UNL     1      -9.111  -2.501 123.185  0.00  0.00    +0.000 OA
BRANCH  19  22
ATOM     22  N   UNL     1      -9.918  -2.689 125.551  0.00  0.00    +0.000 NA
ATOM     23  H   UNL     1     -10.436  -3.564 125.679  0.00  0.00    +0.000 HD
ATOM     24  H   UNL     1     -10.529  -1.927 125.270  0.00  0.00    +0.000 HD
ENDBRANCH  19  22
ENDBRANCH   1  19
BRANCH   6  25
ATOM     25  C   UNL     1      -4.616   2.112 128.638  0.00  0.00    +0.000 C 
BRANCH  25  26
ATOM     26  C   UNL     1      -3.839   3.316 129.140  0.00  0.00    +0.000 A 
ATOM     27  C   UNL     1      -3.787   3.602 130.503  0.00  0.00    +0.000 A 
ATOM     28  C   UNL     1      -3.177   4.780 130.943  0.00  0.00    +0.000 A 
ATOM     29  C   UNL     1      -2.525   5.631 130.048  0.00  0.00    +0.000 A 
ATOM     30  C   UNL     1      -2.537   5.344 128.697  0.00  0.00    +0.000 A 
ATOM     31  C   UNL     1      -3.209   4.215 128.259  0.00  0.00    +0.000 A 
ENDBRANCH  25  26
ENDBRANCH   6  25
TORSDOF 5
ENDMDL
MODEL 7
REMARK VINA RESULT:      -7.8      7.953      8.748
REMARK  Name = Bendroflumethiazide
REMARK  5 active torsions:
REMARK  status: ('A' for Active; 'I' for Inactive)
REMARK    1  A    between atoms: N_1  and  S_2
REMARK    2  A    between atoms: S_2  and  C_5
REMARK    3  A    between atoms: C_10  and  C_11
REMARK    4  A    between atoms: C_11  and  C_12
REMARK    5  A    between atoms: C_23  and  C_24
REMARK                            x       y       z     vdW  Elec       q    Type
REMARK                         _______ _______ _______ _____ _____    ______ ____
ROOT
ATOM      1  C   UNL     1      -7.002   1.729 133.212  0.00  0.00    +0.000 A 
ATOM      2  C   UNL     1      -7.033   3.084 133.567  0.00  0.00    +0.000 A 
ATOM      3  C   UNL     1      -7.958   3.947 132.976  0.00  0.00    +0.000 A 
ATOM      4  C   UNL     1      -8.927   3.534 132.072  0.00  0.00    +0.000 A 
ATOM      5  N   UNL     1      -9.980   4.322 131.642  0.00  0.00    +0.000 N 
ATOM      6  C   UNL     1     -10.161   5.714 132.011  0.00  0.00    +0.000 C 
ATOM      7  N   UNL     1      -9.595   5.925 133.328  0.00  0.00    +0.000 NA
ATOM      8  S   UNL     1      -7.956   5.617 133.459  0.00  0.00    +0.000 S 
ATOM      9  O   UNL     1      -7.636   5.704 134.865  0.00  0.00    +0.000 OA
ATOM     10  O   UNL     1      -7.186   6.339 132.474  0.00  0.00    +0.000 OA
ATOM     11  C   UNL     1      -8.876   2.187 131.719  0.00  0.00    +0.000 A 
ATOM     12  C   UNL     1      -7.925   1.263 132.266  0.00  0.00    +0.000 A 
ATOM     13  H   UNL     1     -10.549   3.999 130.866  0.00  0.00    +0.000 HD
ATOM     14  H   UNL     1     -10.124   5.485 134.077  0.00  0.00    +0.000 HD
ENDROOT
BRANCH  12  15
ATOM     15  C   UNL     1      -8.059  -0.141 131.733  0.00  0.00    +0.000 C 
ATOM     16  F   UNL     1      -8.565  -0.978 132.683  0.00  0.00    +0.000 F 
ATOM     17  F   UNL     1      -8.952  -0.177 130.703  0.00  0.00    +0.000 F 
ATOM     18  F   UNL     1      -6.958  -0.762 131.285  0.00  0.00    +0.000 F 
ENDBRANCH  12  15
BRANCH   1  19
ATOM     19  S   UNL     1      -5.813   0.763 134.132  0.00  0.00    +0.000 S 
ATOM     20  O   UNL     1      -4.668   0.373 133.348  0.00  0.00    +0.000 OA
ATOM     21  O   UNL     1      -6.546  -0.181 134.933  0.00  0.00    +0.000 OA
BRANCH  19  22
ATOM     22  N   UNL     1      -5.169   1.898 135.192  0.00  0.00    +0.000 NA
ATOM     23  H   UNL     1      -5.211   2.807 134.721  0.00  0.00    +0.000 HD
ATOM     24  H   UNL     1      -4.228   1.679 135.507  0.00  0.00    +0.000 HD
ENDBRANCH  19  22
ENDBRANCH   1  19
BRANCH   6  25
ATOM     25  C   UNL     1      -9.645   6.701 130.943  0.00  0.00    +0.000 C 
BRANCH  25  26
ATOM     26  C   UNL     1     -10.733   7.197 130.007  0.00  0.00    +0.000 A 
ATOM     27  C   UNL     1     -10.405   7.954 128.884  0.00  0.00    +0.000 A 
ATOM     28  C   UNL     1     -11.419   8.511 128.100  0.00  0.00    +0.000 A 
ATOM     29  C   UNL     1     -12.763   8.239 128.364  0.00  0.00    +0.000 A 
ATOM     30  C   UNL     1     -13.105   7.463 129.453  0.00  0.00    +0.000 A 
ATOM     31  C   UNL     1     -12.098   6.976 130.270  0.00  0.00    +0.000 A 
ENDBRANCH  25  26
ENDBRANCH   6  25
TORSDOF 5
ENDMDL
MODEL 8
REMARK VINA RESULT:      -7.8      9.556     10.488
REMARK  Name = Bendroflumethiazide
REMARK  5 active torsions:
REMARK  status: ('A' for Active; 'I' for Inactive)
REMARK    1  A    between atoms: N_1  and  S_2
REMARK    2  A    between atoms: S_2  and  C_5
REMARK    3  A    between atoms: C_10  and  C_11
REMARK    4  A    between atoms: C_11  and  C_12
REMARK    5  A    between atoms: C_23  and  C_24
REMARK                            x       y       z     vdW  Elec       q    Type
REMARK                         _______ _______ _______ _____ _____    ______ ____
ROOT
ATOM      1  C   UNL     1      -5.341   6.141 132.720  0.00  0.00    +0.000 A 
ATOM      2  C   UNL     1      -6.603   5.667 133.102  0.00  0.00    +0.000 A 
ATOM      3  C   UNL     1      -7.719   5.902 132.296  0.00  0.00    +0.000 A 
ATOM      4  C   UNL     1      -7.658   6.544 131.067  0.00  0.00    +0.000 A 
ATOM      5  N   UNL     1      -8.703   6.597 130.162  0.00  0.00    +0.000 N 
ATOM      6  C   UNL     1     -10.030   6.067 130.415  0.00  0.00    +0.000 C 
ATOM      7  N   UNL     1      -9.916   4.938 131.318  0.00  0.00    +0.000 NA
ATOM      8  S   UNL     1      -9.259   5.285 132.815  0.00  0.00    +0.000 S 
ATOM      9  O   UNL     1      -9.063   4.017 133.478  0.00  0.00    +0.000 OA
ATOM     10  O   UNL     1      -9.947   6.371 133.474  0.00  0.00    +0.000 OA
ATOM     11  C   UNL     1      -6.399   7.021 130.706  0.00  0.00    +0.000 A 
ATOM     12  C   UNL     1      -5.226   6.840 131.511  0.00  0.00    +0.000 A 
ATOM     13  H   UNL     1      -8.627   7.217 129.361  0.00  0.00    +0.000 HD
ATOM     14  H   UNL     1      -9.487   4.118 130.897  0.00  0.00    +0.000 HD
ENDROOT
BRANCH  12  15
ATOM     15  C   UNL     1      -3.979   7.445 130.919  0.00  0.00    +0.000 C 
ATOM     16  F   UNL     1      -4.270   8.168 129.799  0.00  0.00    +0.000 F 
ATOM     17  F   UNL     1      -3.419   8.333 131.789  0.00  0.00    +0.000 F 
ATOM     18  F   UNL     1      -2.986   6.625 130.544  0.00  0.00    +0.000 F 
ENDBRANCH  12  15
BRANCH   1  19
ATOM     19  S   UNL     1      -4.021   5.671 133.829  0.00  0.00    +0.000 S 
ATOM     20  O   UNL     1      -3.320   6.799 134.389  0.00  0.00    +0.000 OA
ATOM     21  O   UNL     1      -3.327   4.561 133.234  0.00  0.00    +0.000 OA
BRANCH  19  22
ATOM     22  N   UNL     1      -4.861   5.062 135.151  0.00  0.00    +0.000 NA
ATOM     23  H   UNL     1      -4.191   4.976 135.921  0.00  0.00    +0.000 HD
ATOM     24  H   UNL     1      -5.338   4.183 134.966  0.00  0.00    +0.000 HD
ENDBRANCH  19  22
ENDBRANCH   1  19
BRANCH   6  25
ATOM     25  C   UNL     1     -11.039   7.138 130.877  0.00  0.00    +0.000 C 
BRANCH  25  26
ATOM     26  C   UNL     1     -12.078   7.481 129.824  0.00  0.00    +0.000 A 
ATOM     27  C   UNL     1     -12.689   6.471 129.083  0.00  0.00    +0.000 A 
ATOM     28  C   UNL     1     -13.549   6.803 128.033  0.00  0.00    +0.000 A 
ATOM     29  C   UNL     1     -13.887   8.133 127.773  0.00  0.00    +0.000 A 
ATOM     30  C   UNL     1     -13.318   9.144 128.521  0.00  0.00    +0.000 A 
ATOM     31  C   UNL     1     -12.408   8.813 129.511  0.00  0.00    +0.000 A 
ENDBRANCH  25  26
ENDBRANCH   6  25
TORSDOF 5
ENDMDL
MODEL 9
REMARK VINA RESULT:      -7.5      4.332      8.753
REMARK  Name = Bendroflumethiazide
REMARK  5 active torsions:
REMARK  status: ('A' for Active; 'I' for Inactive)
REMARK    1  A    between atoms: N_1  and  S_2
REMARK    2  A    between atoms: S_2  and  C_5
REMARK    3  A    between atoms: C_10  and  C_11
REMARK    4  A    between atoms: C_11  and  C_12
REMARK    5  A    between atoms: C_23  and  C_24
REMARK                            x       y       z     vdW  Elec       q    Type
REMARK                         _______ _______ _______ _____ _____    ______ ____
ROOT
ATOM      1  C   UNL     1      -7.888  -0.823 125.069  0.00  0.00    +0.000 A 
ATOM      2  C   UNL     1      -8.078  -0.726 126.454  0.00  0.00    +0.000 A 
ATOM      3  C   UNL     1      -7.218  -1.387 127.333  0.00  0.00    +0.000 A 
ATOM      4  C   UNL     1      -6.109  -2.113 126.922  0.00  0.00    +0.000 A 
ATOM      5  N   UNL     1      -5.130  -2.593 127.775  0.00  0.00    +0.000 N 
ATOM      6  C   UNL     1      -5.180  -2.477 129.220  0.00  0.00    +0.000 C 
ATOM      7  N   UNL     1      -5.911  -1.274 129.567  0.00  0.00    +0.000 NA
ATOM      8  S   UNL     1      -7.498  -1.226 129.041  0.00  0.00    +0.000 S 
ATOM      9  O   UNL     1      -7.980   0.107 129.319  0.00  0.00    +0.000 OA
ATOM     10  O   UNL     1      -8.245  -2.390 129.456  0.00  0.00    +0.000 OA
ATOM     11  C   UNL     1      -5.939  -2.212 125.542  0.00  0.00    +0.000 A 
ATOM     12  C   UNL     1      -6.812  -1.584 124.592  0.00  0.00    +0.000 A 
ATOM     13  H   UNL     1      -4.441  -3.245 127.413  0.00  0.00    +0.000 HD
ATOM     14  H   UNL     1      -5.414  -0.415 129.348  0.00  0.00    +0.000 HD
ENDROOT
BRANCH  12  15
ATOM     15  C   UNL     1      -6.432  -1.833 123.155  0.00  0.00    +0.000 C 
ATOM     16  F   UNL     1      -7.426  -2.496 122.496  0.00  0.00    +0.000 F 
ATOM     17  F   UNL     1      -6.280  -0.652 122.490  0.00  0.00    +0.000 F 
ATOM     18  F   UNL     1      -5.324  -2.543 122.900  0.00  0.00    +0.000 F 
ENDBRANCH  12  15
BRANCH   1  19
ATOM     19  S   UNL     1      -9.029   0.158 124.106  0.00  0.00    +0.000 S 
ATOM     20  O   UNL     1      -9.780  -0.617 123.151  0.00  0.00    +0.000 OA
ATOM     21  O   UNL     1      -8.357   1.376 123.741  0.00  0.00    +0.000 OA
BRANCH  19  22
ATOM     22  N   UNL     1     -10.195   0.574 125.244  0.00  0.00    +0.000 NA
ATOM     23  H   UNL     1     -10.992  -0.055 125.104  0.00  0.00    +0.000 HD
ATOM     24  H   UNL     1     -10.475   1.550 125.209  0.00  0.00    +0.000 HD
ENDBRANCH  19  22
ENDBRANCH   1  19
BRANCH   6  25
ATOM     25  C   UNL     1      -5.703  -3.750 129.918  0.00  0.00    +0.000 C 
BRANCH  25  26
ATOM     26  C   UNL     1      -4.992  -4.055 131.224  0.00  0.00    +0.000 A 
ATOM     27  C   UNL     1      -5.340  -5.180 131.969  0.00  0.00    +0.000 A 
ATOM     28  C   UNL     1      -4.768  -5.384 133.228  0.00  0.00    +0.000 A 
ATOM     29  C   UNL     1      -3.776  -4.531 133.714  0.00  0.00    +0.000 A 
ATOM     30  C   UNL     1      -3.394  -3.430 132.973  0.00  0.00    +0.000 A 
ATOM     31  C   UNL     1      -4.018  -3.192 131.760  0.00  0.00    +0.000 A 
ENDBRANCH  25  26
ENDBRANCH   6  25
TORSDOF 5
ENDMDL
