MODEL 1
REMARK VINA RESULT:      -8.8      0.000      0.000
REMARK  Name = Benfotiamine
REMARK  14 active torsions:
REMARK  status: ('A' for Active; 'I' for Inactive)
REMARK    1  A    between atoms: C_1  and  C_2
REMARK    2  A    between atoms: C_2  and  N_3
REMARK    3  A    between atoms: N_3  and  C_4
REMARK    4  A    between atoms: C_4  and  C_5
REMARK    5  A    between atoms: C_8  and  C_9
REMARK    6  A    between atoms: C_15  and  C_16
REMARK    7  A    between atoms: C_15  and  S_23
REMARK    8  A    between atoms: C_16  and  C_17
REMARK    9  A    between atoms: C_17  and  O_18
REMARK   10  A    between atoms: O_18  and  P_19
REMARK   11  A    between atoms: P_19  and  O_20
REMARK   12  A    between atoms: P_19  and  O_21
REMARK   13  A    between atoms: S_23  and  C_24
REMARK   14  A    between atoms: C_24  and  C_26
REMARK                            x       y       z     vdW  Elec       q    Type
REMARK                         _______ _______ _______ _____ _____    ______ ____
ROOT
ATOM      1  C   UNL     1      -7.742   0.061 128.501  0.00  0.00    +0.000 C 
ATOM      2  C   UNL     1      -8.001   1.243 127.532  0.00  0.00    +0.000 C 
ATOM      3  C   UNL     1      -7.840   2.596 127.949  0.00  0.00    +0.000 C 
ENDROOT
BRANCH   2   4
ATOM      4  N   UNL     1      -8.430   0.757 126.253  0.00  0.00    +0.000 N 
ATOM      5  C   UNL     1      -9.767   0.653 125.823  0.00  0.00    +0.000 C 
ATOM      6  O   UNL     1     -10.139   0.225 124.732  0.00  0.00    +0.000 OA
BRANCH   4   7
ATOM      7  C   UNL     1      -7.568   0.426 125.133  0.00  0.00    +0.000 C 
BRANCH   7   8
ATOM      8  C   UNL     1      -6.883  -0.863 125.216  0.00  0.00    +0.000 A 
ATOM      9  C   UNL     1      -7.423  -2.028 124.500  0.00  0.00    +0.000 A 
ATOM     10  N   UNL     1      -6.839  -3.186 124.017  0.00  0.00    +0.000 NA
ATOM     11  C   UNL     1      -5.568  -3.130 124.200  0.00  0.00    +0.000 A 
ATOM     12  C   UNL     1      -4.505  -4.390 123.673  0.00  0.00    +0.000 C 
ATOM     13  N   UNL     1      -5.115  -1.950 124.997  0.00  0.00    +0.000 NA
ATOM     14  C   UNL     1      -5.616  -0.868 125.595  0.00  0.00    +0.000 A 
ATOM     15  N   UNL     1      -4.816   0.175 126.098  0.00  0.00    +0.000 N 
ATOM     16  H   UNL     1      -3.796   0.120 126.053  0.00  0.00    +0.000 HD
ATOM     17  H   UNL     1      -5.124   1.118 126.325  0.00  0.00    +0.000 HD
ENDBRANCH   7   8
ENDBRANCH   4   7
ENDBRANCH   2   4
BRANCH   3  18
ATOM     18  C   UNL     1      -7.937   3.115 129.403  0.00  0.00    +0.000 C 
BRANCH  18  19
ATOM     19  C   UNL     1      -9.352   3.376 129.666  0.00  0.00    +0.000 C 
BRANCH  19  20
ATOM     20  O   UNL     1      -9.799   4.589 129.278  0.00  0.00    +0.000 OA
BRANCH  20  21
ATOM     21  P   UNL     1     -10.848   5.361 130.416  0.00  0.00    +0.000 P 
ATOM     22  O   UNL     1     -11.788   6.053 131.434  0.00  0.00    +0.000 OA
BRANCH  21  23
ATOM     23  O   UNL     1     -12.021   5.577 129.305  0.00  0.00    +0.000 OA
ATOM     24  H   UNL     1     -12.350   4.993 128.627  0.00  0.00    +0.000 HD
ENDBRANCH  21  23
BRANCH  21  25
ATOM     25  O   UNL     1     -11.309   3.833 130.787  0.00  0.00    +0.000 OA
ATOM     26  H   UNL     1     -10.726   3.172 130.380  0.00  0.00    +0.000 HD
ENDBRANCH  21  25
ENDBRANCH  20  21
ENDBRANCH  19  20
ENDBRANCH  18  19
ENDBRANCH   3  18
BRANCH   3  27
ATOM     27  S   UNL     1      -6.631   3.848 126.993  0.00  0.00    +0.000 S 
BRANCH  27  28
ATOM     28  C   UNL     1      -7.410   4.059 125.108  0.00  0.00    +0.000 C 
ATOM     29  O   UNL     1      -8.589   4.231 125.251  0.00  0.00    +0.000 OA
BRANCH  28  30
ATOM     30  C   UNL     1      -6.571   3.730 123.425  0.00  0.00    +0.000 A 
ATOM     31  C   UNL     1      -5.374   4.348 123.305  0.00  0.00    +0.000 A 
ATOM     32  C   UNL     1      -4.830   4.556 121.989  0.00  0.00    +0.000 A 
ATOM     33  C   UNL     1      -5.384   4.161 120.723  0.00  0.00    +0.000 A 
ATOM     34  C   UNL     1      -6.630   3.646 120.649  0.00  0.00    +0.000 A 
ATOM     35  C   UNL     1      -7.175   3.455 121.914  0.00  0.00    +0.000 A 
ENDBRANCH  28  30
ENDBRANCH  27  28
ENDBRANCH   3  27
TORSDOF 12
ENDMDL
MODEL 2
REMARK VINA RESULT:      -8.5      3.249      6.044
REMARK  Name = Benfotiamine
REMARK  14 active torsions:
REMARK  status: ('A' for Active; 'I' for Inactive)
REMARK    1  A    between atoms: C_1  and  C_2
REMARK    2  A    between atoms: C_2  and  N_3
REMARK    3  A    between atoms: N_3  and  C_4
REMARK    4  A    between atoms: C_4  and  C_5
REMARK    5  A    between atoms: C_8  and  C_9
REMARK    6  A    between atoms: C_15  and  C_16
REMARK    7  A    between atoms: C_15  and  S_23
REMARK    8  A    between atoms: C_16  and  C_17
REMARK    9  A    between atoms: C_17  and  O_18
REMARK   10  A    between atoms: O_18  and  P_19
REMARK   11  A    between atoms: P_19  and  O_20
REMARK   12  A    between atoms: P_19  and  O_21
REMARK   13  A    between atoms: S_23  and  C_24
REMARK   14  A    between atoms: C_24  and  C_26
REMARK                            x       y       z     vdW  Elec       q    Type
REMARK                         _______ _______ _______ _____ _____    ______ ____
ROOT
ATOM      1  C   UNL     1      -5.399  -0.770 126.089  0.00  0.00    +0.000 C 
ATOM      2  C   UNL     1      -6.794  -0.176 126.417  0.00  0.00    +0.000 C 
ATOM      3  C   UNL     1      -7.368   0.857 125.622  0.00  0.00    +0.000 C 
ENDROOT
BRANCH   2   4
ATOM      4  N   UNL     1      -7.336  -0.791 127.594  0.00  0.00    +0.000 N 
ATOM      5  C   UNL     1      -7.420  -2.177 127.827  0.00  0.00    +0.000 C 
ATOM      6  O   UNL     1      -7.896  -2.708 128.830  0.00  0.00    +0.000 OA
BRANCH   4   7
ATOM      7  C   UNL     1      -7.754  -0.102 128.801  0.00  0.00    +0.000 C 
BRANCH   7   8
ATOM      8  C   UNL     1      -6.837   0.922 129.299  0.00  0.00    +0.000 A 
ATOM      9  C   UNL     1      -5.407   0.616 129.448  0.00  0.00    +0.000 A 
ATOM     10  N   UNL     1      -4.273   1.410 129.450  0.00  0.00    +0.000 NA
ATOM     11  C   UNL     1      -4.604   2.625 129.193  0.00  0.00    +0.000 A 
ATOM     12  C   UNL     1      -3.431   3.892 129.065  0.00  0.00    +0.000 C 
ATOM     13  N   UNL     1      -6.078   2.859 129.129  0.00  0.00    +0.000 NA
ATOM     14  C   UNL     1      -7.224   2.185 129.234  0.00  0.00    +0.000 A 
ATOM     15  N   UNL     1      -8.475   2.734 128.894  0.00  0.00    +0.000 N 
ATOM     16  H   UNL     1      -8.552   3.703 128.580  0.00  0.00    +0.000 HD
ATOM     17  H   UNL     1      -9.331   2.216 128.707  0.00  0.00    +0.000 HD
ENDBRANCH   7   8
ENDBRANCH   4   7
ENDBRANCH   2   4
BRANCH   3  18
ATOM     18  C   UNL     1      -6.588   1.871 124.750  0.00  0.00    +0.000 C 
BRANCH  18  19
ATOM     19  C   UNL     1      -5.634   2.543 125.632  0.00  0.00    +0.000 C 
BRANCH  19  20
ATOM     20  O   UNL     1      -5.785   3.880 125.736  0.00  0.00    +0.000 OA
BRANCH  20  21
ATOM     21  P   UNL     1      -7.427   4.421 125.656  0.00  0.00    +0.000 P 
ATOM     22  O   UNL     1      -8.896   4.905 125.585  0.00  0.00    +0.000 OA
BRANCH  21  23
ATOM     23  O   UNL     1      -7.411   4.940 127.201  0.00  0.00    +0.000 OA
ATOM     24  H   UNL     1      -7.346   5.821 127.560  0.00  0.00    +0.000 HD
ENDBRANCH  21  23
BRANCH  21  25
ATOM     25  O   UNL     1      -6.776   5.799 125.056  0.00  0.00    +0.000 OA
ATOM     26  H   UNL     1      -5.807   5.789 125.099  0.00  0.00    +0.000 HD
ENDBRANCH  21  25
ENDBRANCH  20  21
ENDBRANCH  19  20
ENDBRANCH  18  19
ENDBRANCH   3  18
BRANCH   3  27
ATOM     27  S   UNL     1      -9.153   0.657 124.776  0.00  0.00    +0.000 S 
BRANCH  27  28
ATOM     28  C   UNL     1      -8.948  -0.812 123.362  0.00  0.00    +0.000 C 
ATOM     29  O   UNL     1      -9.958  -0.796 122.714  0.00  0.00    +0.000 OA
BRANCH  28  30
ATOM     30  C   UNL     1      -7.620  -2.178 123.242  0.00  0.00    +0.000 A 
ATOM     31  C   UNL     1      -7.776  -3.147 124.173  0.00  0.00    +0.000 A 
ATOM     32  C   UNL     1      -6.653  -3.988 124.493  0.00  0.00    +0.000 A 
ATOM     33  C   UNL     1      -5.334  -3.970 123.923  0.00  0.00    +0.000 A 
ATOM     34  C   UNL     1      -4.968  -2.988 123.072  0.00  0.00    +0.000 A 
ATOM     35  C   UNL     1      -6.039  -2.156 122.766  0.00  0.00    +0.000 A 
ENDBRANCH  28  30
ENDBRANCH  27  28
ENDBRANCH   3  27
TORSDOF 12
ENDMDL
MODEL 3
REMARK VINA RESULT:      -8.3      5.845      8.644
REMARK  Name = Benfotiamine
REMARK  14 active torsions:
REMARK  status: ('A' for Active; 'I' for Inactive)
REMARK    1  A    between atoms: C_1  and  C_2
REMARK    2  A    between atoms: C_2  and  N_3
REMARK    3  A    between atoms: N_3  and  C_4
REMARK    4  A    between atoms: C_4  and  C_5
REMARK    5  A    between atoms: C_8  and  C_9
REMARK    6  A    between atoms: C_15  and  C_16
REMARK    7  A    between atoms: C_15  and  S_23
REMARK    8  A    between atoms: C_16  and  C_17
REMARK    9  A    between atoms: C_17  and  O_18
REMARK   10  A    between atoms: O_18  and  P_19
REMARK   11  A    between atoms: P_19  and  O_20
REMARK   12  A    between atoms: P_19  and  O_21
REMARK   13  A    between atoms: S_23  and  C_24
REMARK   14  A    between atoms: C_24  and  C_26
REMARK                            x       y       z     vdW  Elec       q    Type
REMARK                         _______ _______ _______ _____ _____    ______ ____
ROOT
ATOM      1  C   UNL     1      -6.271   2.368 130.944  0.00  0.00    +0.000 C 
ATOM      2  C   UNL     1      -7.354   3.450 131.197  0.00  0.00    +0.000 C 
ATOM      3  C   UNL     1      -8.302   3.801 130.195  0.00  0.00    +0.000 C 
ENDROOT
BRANCH   2   4
ATOM      4  N   UNL     1      -7.208   4.005 132.512  0.00  0.00    +0.000 N 
ATOM      5  C   UNL     1      -6.984   3.268 133.690  0.00  0.00    +0.000 C 
ATOM      6  O   UNL     1      -6.872   3.739 134.821  0.00  0.00    +0.000 OA
BRANCH   4   7
ATOM      7  C   UNL     1      -7.122   5.416 132.837  0.00  0.00    +0.000 C 
BRANCH   7   8
ATOM      8  C   UNL     1      -6.151   6.189 132.064  0.00  0.00    +0.000 A 
ATOM      9  C   UNL     1      -4.737   5.788 132.054  0.00  0.00    +0.000 A 
ATOM     10  N   UNL     1      -3.711   5.991 131.147  0.00  0.00    +0.000 NA
ATOM     11  C   UNL     1      -4.175   6.585 130.105  0.00  0.00    +0.000 A 
ATOM     12  C   UNL     1      -3.181   6.956 128.738  0.00  0.00    +0.000 C 
ATOM     13  N   UNL     1      -5.599   7.019 130.230  0.00  0.00    +0.000 NA
ATOM     14  C   UNL     1      -6.608   6.974 131.102  0.00  0.00    +0.000 A 
ATOM     15  N   UNL     1      -7.929   7.326 130.771  0.00  0.00    +0.000 N 
ATOM     16  H   UNL     1      -8.159   7.673 129.838  0.00  0.00    +0.000 HD
ATOM     17  H   UNL     1      -8.769   7.079 131.289  0.00  0.00    +0.000 HD
ENDBRANCH   7   8
ENDBRANCH   4   7
ENDBRANCH   2   4
BRANCH   3  18
ATOM     18  C   UNL     1      -8.113   3.636 128.668  0.00  0.00    +0.000 C 
BRANCH  18  19
ATOM     19  C   UNL     1      -6.841   4.271 128.327  0.00  0.00    +0.000 C 
BRANCH  19  20
ATOM     20  O   UNL     1      -6.817   4.921 127.144  0.00  0.00    +0.000 OA
BRANCH  20  21
ATOM     21  P   UNL     1      -7.910   4.289 125.961  0.00  0.00    +0.000 P 
ATOM     22  O   UNL     1      -8.888   3.723 124.903  0.00  0.00    +0.000 OA
BRANCH  21  23
ATOM     23  O   UNL     1      -8.886   5.590 126.055  0.00  0.00    +0.000 OA
ATOM     24  H   UNL     1      -9.098   6.256 125.407  0.00  0.00    +0.000 HD
ENDBRANCH  21  23
BRANCH  21  25
ATOM     25  O   UNL     1      -6.889   4.978 124.881  0.00  0.00    +0.000 OA
ATOM     26  H   UNL     1      -7.232   5.823 124.549  0.00  0.00    +0.000 HD
ENDBRANCH  21  25
ENDBRANCH  20  21
ENDBRANCH  19  20
ENDBRANCH  18  19
ENDBRANCH   3  18
BRANCH   3  27
ATOM     27  S   UNL     1     -10.258   3.703 130.525  0.00  0.00    +0.000 S 
BRANCH  27  28
ATOM     28  C   UNL     1     -10.841   5.599 131.041  0.00  0.00    +0.000 C 
ATOM     29  O   UNL     1     -10.374   5.809 132.126  0.00  0.00    +0.000 OA
BRANCH  28  30
ATOM     30  C   UNL     1     -12.126   6.726 130.191  0.00  0.00    +0.000 A 
ATOM     31  C   UNL     1     -12.657   6.172 129.077  0.00  0.00    +0.000 A 
ATOM     32  C   UNL     1     -13.291   7.029 128.111  0.00  0.00    +0.000 A 
ATOM     33  C   UNL     1     -13.479   8.453 128.169  0.00  0.00    +0.000 A 
ATOM     34  C   UNL     1     -12.902   9.181 129.149  0.00  0.00    +0.000 A 
ATOM     35  C   UNL     1     -12.271   8.366 130.082  0.00  0.00    +0.000 A 
ENDBRANCH  28  30
ENDBRANCH  27  28
ENDBRANCH   3  27
TORSDOF 12
ENDMDL
MODEL 4
REMARK VINA RESULT:      -8.3      4.492      7.671
REMARK  Name = Benfotiamine
REMARK  14 active torsions:
REMARK  status: ('A' for Active; 'I' for Inactive)
REMARK    1  A    between atoms: C_1  and  C_2
REMARK    2  A    between atoms: C_2  and  N_3
REMARK    3  A    between atoms: N_3  and  C_4
REMARK    4  A    between atoms: C_4  and  C_5
REMARK    5  A    between atoms: C_8  and  C_9
REMARK    6  A    between atoms: C_15  and  C_16
REMARK    7  A    between atoms: C_15  and  S_23
REMARK    8  A    between atoms: C_16  and  C_17
REMARK    9  A    between atoms: C_17  and  O_18
REMARK   10  A    between atoms: O_18  and  P_19
REMARK   11  A    between atoms: P_19  and  O_20
REMARK   12  A    between atoms: P_19  and  O_21
REMARK   13  A    between atoms: S_23  and  C_24
REMARK   14  A    between atoms: C_24  and  C_26
REMARK                            x       y       z     vdW  Elec       q    Type
REMARK                         _______ _______ _______ _____ _____    ______ ____
ROOT
ATOM      1  C   UNL     1      -5.808   3.534 131.175  0.00  0.00    +0.000 C 
ATOM      2  C   UNL     1      -6.965   2.869 130.384  0.00  0.00    +0.000 C 
ATOM      3  C   UNL     1      -6.784   2.402 129.051  0.00  0.00    +0.000 C 
ENDROOT
BRANCH   2   4
ATOM      4  N   UNL     1      -8.162   2.845 131.175  0.00  0.00    +0.000 N 
ATOM      5  C   UNL     1      -8.247   2.427 132.517  0.00  0.00    +0.000 C 
ATOM      6  O   UNL     1      -9.273   2.393 133.194  0.00  0.00    +0.000 OA
BRANCH   4   7
ATOM      7  C   UNL     1      -9.453   3.380 130.784  0.00  0.00    +0.000 C 
BRANCH   7   8
ATOM      8  C   UNL     1      -9.475   4.800 130.437  0.00  0.00    +0.000 A 
ATOM      9  C   UNL     1      -9.297   5.216 129.039  0.00  0.00    +0.000 A 
ATOM     10  N   UNL     1      -9.690   6.344 128.339  0.00  0.00    +0.000 NA
ATOM     11  C   UNL     1     -10.405   7.092 129.101  0.00  0.00    +0.000 A 
ATOM     12  C   UNL     1     -11.111   8.569 128.543  0.00  0.00    +0.000 C 
ATOM     13  N   UNL     1     -10.473   6.632 130.521  0.00  0.00    +0.000 NA
ATOM     14  C   UNL     1     -10.032   5.639 131.295  0.00  0.00    +0.000 A 
ATOM     15  N   UNL     1     -10.495   5.420 132.606  0.00  0.00    +0.000 N 
ATOM     16  H   UNL     1     -11.175   6.052 133.033  0.00  0.00    +0.000 HD
ATOM     17  H   UNL     1     -10.401   4.562 133.146  0.00  0.00    +0.000 HD
ENDBRANCH   7   8
ENDBRANCH   4   7
ENDBRANCH   2   4
BRANCH   3  18
ATOM     18  C   UNL     1      -5.728   2.918 128.044  0.00  0.00    +0.000 C 
BRANCH  18  19
ATOM     19  C   UNL     1      -6.213   4.202 127.542  0.00  0.00    +0.000 C 
BRANCH  19  20
ATOM     20  O   UNL     1      -6.002   4.426 126.227  0.00  0.00    +0.000 OA
BRANCH  20  21
ATOM     21  P   UNL     1      -7.360   4.069 125.216  0.00  0.00    +0.000 P 
ATOM     22  O   UNL     1      -8.575   3.750 124.312  0.00  0.00    +0.000 OA
BRANCH  21  23
ATOM     23  O   UNL     1      -8.137   5.435 125.646  0.00  0.00    +0.000 OA
ATOM     24  H   UNL     1      -9.053   5.588 125.859  0.00  0.00    +0.000 HD
ENDBRANCH  21  23
BRANCH  21  25
ATOM     25  O   UNL     1      -6.475   4.793 124.044  0.00  0.00    +0.000 OA
ATOM     26  H   UNL     1      -6.862   4.658 123.164  0.00  0.00    +0.000 HD
ENDBRANCH  21  25
ENDBRANCH  20  21
ENDBRANCH  19  20
ENDBRANCH  18  19
ENDBRANCH   3  18
BRANCH   3  27
ATOM     27  S   UNL     1      -7.164   0.522 128.540  0.00  0.00    +0.000 S 
BRANCH  27  28
ATOM     28  C   UNL     1      -8.532   0.615 127.016  0.00  0.00    +0.000 C 
ATOM     29  O   UNL     1      -9.165   1.617 127.195  0.00  0.00    +0.000 OA
BRANCH  28  30
ATOM     30  C   UNL     1      -8.990  -0.730 125.740  0.00  0.00    +0.000 A 
ATOM     31  C   UNL     1      -8.874  -1.984 126.232  0.00  0.00    +0.000 A 
ATOM     32  C   UNL     1      -8.762  -3.083 125.310  0.00  0.00    +0.000 A 
ATOM     33  C   UNL     1      -8.786  -3.048 123.873  0.00  0.00    +0.000 A 
ATOM     34  C   UNL     1      -8.770  -1.869 123.216  0.00  0.00    +0.000 A 
ATOM     35  C   UNL     1      -8.861  -0.796 124.096  0.00  0.00    +0.000 A 
ENDBRANCH  28  30
ENDBRANCH  27  28
ENDBRANCH   3  27
TORSDOF 12
ENDMDL
MODEL 5
REMARK VINA RESULT:      -8.2      3.893      7.044
REMARK  Name = Benfotiamine
REMARK  14 active torsions:
REMARK  status: ('A' for Active; 'I' for Inactive)
REMARK    1  A    between atoms: C_1  and  C_2
REMARK    2  A    between atoms: C_2  and  N_3
REMARK    3  A    between atoms: N_3  and  C_4
REMARK    4  A    between atoms: C_4  and  C_5
REMARK    5  A    between atoms: C_8  and  C_9
REMARK    6  A    between atoms: C_15  and  C_16
REMARK    7  A    between atoms: C_15  and  S_23
REMARK    8  A    between atoms: C_16  and  C_17
REMARK    9  A    between atoms: C_17  and  O_18
REMARK   10  A    between atoms: O_18  and  P_19
REMARK   11  A    between atoms: P_19  and  O_20
REMARK   12  A    between atoms: P_19  and  O_21
REMARK   13  A    between atoms: S_23  and  C_24
REMARK   14  A    between atoms: C_24  and  C_26
REMARK                            x       y       z     vdW  Elec       q    Type
REMARK                         _______ _______ _______ _____ _____    ______ ____
ROOT
ATOM      1  C   UNL     1      -5.563  -0.493 128.266  0.00  0.00    +0.000 C 
ATOM      2  C   UNL     1      -6.753   0.478 128.055  0.00  0.00    +0.000 C 
ATOM      3  C   UNL     1      -7.099   0.960 126.760  0.00  0.00    +0.000 C 
ENDROOT
BRANCH   2   4
ATOM      4  N   UNL     1      -7.368   0.796 129.311  0.00  0.00    +0.000 N 
ATOM      5  C   UNL     1      -8.057  -0.112 130.138  0.00  0.00    +0.000 C 
ATOM      6  O   UNL     1      -8.596   0.160 131.210  0.00  0.00    +0.000 OA
BRANCH   4   7
ATOM      7  C   UNL     1      -7.266   2.061 130.015  0.00  0.00    +0.000 C 
BRANCH   7   8
ATOM      8  C   UNL     1      -8.070   3.157 129.476  0.00  0.00    +0.000 A 
ATOM      9  C   UNL     1      -9.432   3.383 129.980  0.00  0.00    +0.000 A 
ATOM     10  N   UNL     1     -10.240   4.507 130.030  0.00  0.00    +0.000 NA
ATOM     11  C   UNL     1      -9.580   5.524 129.604  0.00  0.00    +0.000 A 
ATOM     12  C   UNL     1     -10.261   7.115 129.570  0.00  0.00    +0.000 C 
ATOM     13  N   UNL     1      -8.235   5.193 129.045  0.00  0.00    +0.000 NA
ATOM     14  C   UNL     1      -7.442   4.138 128.850  0.00  0.00    +0.000 A 
ATOM     15  N   UNL     1      -6.093   4.249 128.463  0.00  0.00    +0.000 N 
ATOM     16  H   UNL     1      -5.676   5.163 128.278  0.00  0.00    +0.000 HD
ATOM     17  H   UNL     1      -5.379   3.528 128.544  0.00  0.00    +0.000 HD
ENDBRANCH   7   8
ENDBRANCH   4   7
ENDBRANCH   2   4
BRANCH   3  18
ATOM     18  C   UNL     1      -6.142   1.078 125.550  0.00  0.00    +0.000 C 
BRANCH  18  19
ATOM     19  C   UNL     1      -5.400   2.326 125.716  0.00  0.00    +0.000 C 
BRANCH  19  20
ATOM     20  O   UNL     1      -6.061   3.445 125.352  0.00  0.00    +0.000 OA
BRANCH  20  21
ATOM     21  P   UNL     1      -6.649   3.430 123.726  0.00  0.00    +0.000 P 
ATOM     22  O   UNL     1      -7.177   3.416 122.270  0.00  0.00    +0.000 OA
BRANCH  21  23
ATOM     23  O   UNL     1      -8.092   4.050 124.161  0.00  0.00    +0.000 OA
ATOM     24  H   UNL     1      -8.439   4.935 124.079  0.00  0.00    +0.000 HD
ENDBRANCH  21  23
BRANCH  21  25
ATOM     25  O   UNL     1      -5.915   4.890 123.615  0.00  0.00    +0.000 OA
ATOM     26  H   UNL     1      -4.998   4.810 123.307  0.00  0.00    +0.000 HD
ENDBRANCH  21  25
ENDBRANCH  20  21
ENDBRANCH  19  20
ENDBRANCH  18  19
ENDBRANCH   3  18
BRANCH   3  27
ATOM     27  S   UNL     1      -8.920   0.719 126.006  0.00  0.00    +0.000 S 
BRANCH  27  28
ATOM     28  C   UNL     1      -8.974  -1.187 125.255  0.00  0.00    +0.000 C 
ATOM     29  O   UNL     1      -9.967  -1.694 125.699  0.00  0.00    +0.000 OA
BRANCH  28  30
ATOM     30  C   UNL     1      -7.611  -2.141 124.319  0.00  0.00    +0.000 A 
ATOM     31  C   UNL     1      -6.711  -2.719 125.145  0.00  0.00    +0.000 A 
ATOM     32  C   UNL     1      -5.424  -3.093 124.619  0.00  0.00    +0.000 A 
ATOM     33  C   UNL     1      -4.940  -2.961 123.272  0.00  0.00    +0.000 A 
ATOM     34  C   UNL     1      -5.660  -2.292 122.347  0.00  0.00    +0.000 A 
ATOM     35  C   UNL     1      -6.899  -1.910 122.847  0.00  0.00    +0.000 A 
ENDBRANCH  28  30
ENDBRANCH  27  28
ENDBRANCH   3  27
TORSDOF 12
ENDMDL
MODEL 6
REMARK VINA RESULT:      -8.2      4.587      7.694
REMARK  Name = Benfotiamine
REMARK  14 active torsions:
REMARK  status: ('A' for Active; 'I' for Inactive)
REMARK    1  A    between atoms: C_1  and  C_2
REMARK    2  A    between atoms: C_2  and  N_3
REMARK    3  A    between atoms: N_3  and  C_4
REMARK    4  A    between atoms: C_4  and  C_5
REMARK    5  A    between atoms: C_8  and  C_9
REMARK    6  A    between atoms: C_15  and  C_16
REMARK    7  A    between atoms: C_15  and  S_23
REMARK    8  A    between atoms: C_16  and  C_17
REMARK    9  A    between atoms: C_17  and  O_18
REMARK   10  A    between atoms: O_18  and  P_19
REMARK   11  A    between atoms: P_19  and  O_20
REMARK   12  A    between atoms: P_19  and  O_21
REMARK   13  A    between atoms: S_23  and  C_24
REMARK   14  A    between atoms: C_24  and  C_26
REMARK                            x       y       z     vdW  Elec       q    Type
REMARK                         _______ _______ _______ _____ _____    ______ ____
ROOT
ATOM      1  C   UNL     1      -6.176   2.373 129.598  0.00  0.00    +0.000 C 
ATOM      2  C   UNL     1      -7.004   1.065 129.708  0.00  0.00    +0.000 C 
ATOM      3  C   UNL     1      -7.133   0.172 128.607  0.00  0.00    +0.000 C 
ENDROOT
BRANCH   2   4
ATOM      4  N   UNL     1      -7.591   0.954 131.011  0.00  0.00    +0.000 N 
ATOM      5  C   UNL     1      -6.931   0.504 132.170  0.00  0.00    +0.000 C 
ATOM      6  O   UNL     1      -7.435   0.395 133.287  0.00  0.00    +0.000 OA
BRANCH   4   7
ATOM      7  C   UNL     1      -8.912   1.417 131.394  0.00  0.00    +0.000 C 
BRANCH   7   8
ATOM      8  C   UNL     1      -9.140   2.857 131.279  0.00  0.00    +0.000 A 
ATOM      9  C   UNL     1      -9.866   3.394 130.118  0.00  0.00    +0.000 A 
ATOM     10  N   UNL     1     -10.604   4.549 129.926  0.00  0.00    +0.000 NA
ATOM     11  C   UNL     1     -10.690   5.189 131.037  0.00  0.00    +0.000 A 
ATOM     12  C   UNL     1     -11.586   6.662 131.184  0.00  0.00    +0.000 C 
ATOM     13  N   UNL     1      -9.866   4.613 132.142  0.00  0.00    +0.000 NA
ATOM     14  C   UNL     1      -9.043   3.589 132.375  0.00  0.00    +0.000 A 
ATOM     15  N   UNL     1      -8.594   3.239 133.663  0.00  0.00    +0.000 N 
ATOM     16  H   UNL     1      -8.861   3.794 134.478  0.00  0.00    +0.000 HD
ATOM     17  H   UNL     1      -8.189   2.348 133.940  0.00  0.00    +0.000 HD
ENDBRANCH   7   8
ENDBRANCH   4   7
ENDBRANCH   2   4
BRANCH   3  18
ATOM     18  C   UNL     1      -6.995   0.547 127.112  0.00  0.00    +0.000 C 
BRANCH  18  19
ATOM     19  C   UNL     1      -8.315   0.986 126.661  0.00  0.00    +0.000 C 
BRANCH  19  20
ATOM     20  O   UNL     1      -8.454   2.317 126.486  0.00  0.00    +0.000 OA
BRANCH  20  21
ATOM     21  P   UNL     1      -8.484   2.820 124.832  0.00  0.00    +0.000 P 
ATOM     22  O   UNL     1      -8.510   3.270 123.350  0.00  0.00    +0.000 OA
BRANCH  21  23
ATOM     23  O   UNL     1      -9.975   2.207 124.591  0.00  0.00    +0.000 OA
ATOM     24  H   UNL     1     -10.254   1.401 124.166  0.00  0.00    +0.000 HD
ENDBRANCH  21  23
BRANCH  21  25
ATOM     25  O   UNL     1      -9.030   4.240 125.439  0.00  0.00    +0.000 OA
ATOM     26  H   UNL     1      -9.157   4.196 126.400  0.00  0.00    +0.000 HD
ENDBRANCH  21  25
ENDBRANCH  20  21
ENDBRANCH  19  20
ENDBRANCH  18  19
ENDBRANCH   3  18
BRANCH   3  27
ATOM     27  S   UNL     1      -6.621  -1.742 128.747  0.00  0.00    +0.000 S 
BRANCH  27  28
ATOM     28  C   UNL     1      -8.034  -2.784 127.689  0.00  0.00    +0.000 C 
ATOM     29  O   UNL     1      -8.703  -3.359 128.502  0.00  0.00    +0.000 OA
BRANCH  28  30
ATOM     30  C   UNL     1      -8.128  -3.098 125.809  0.00  0.00    +0.000 A 
ATOM     31  C   UNL     1      -7.080  -2.574 125.135  0.00  0.00    +0.000 A 
ATOM     32  C   UNL     1      -7.208  -2.346 123.719  0.00  0.00    +0.000 A 
ATOM     33  C   UNL     1      -8.330  -2.635 122.869  0.00  0.00    +0.000 A 
ATOM     34  C   UNL     1      -9.503  -3.044 123.396  0.00  0.00    +0.000 A 
ATOM     35  C   UNL     1      -9.399  -3.252 124.767  0.00  0.00    +0.000 A 
ENDBRANCH  28  30
ENDBRANCH  27  28
ENDBRANCH   3  27
TORSDOF 12
ENDMDL
MODEL 7
REMARK VINA RESULT:      -8.1      4.984      8.371
REMARK  Name = Benfotiamine
REMARK  14 active torsions:
REMARK  status: ('A' for Active; 'I' for Inactive)
REMARK    1  A    between atoms: C_1  and  C_2
REMARK    2  A    between atoms: C_2  and  N_3
REMARK    3  A    between atoms: N_3  and  C_4
REMARK    4  A    between atoms: C_4  and  C_5
REMARK    5  A    between atoms: C_8  and  C_9
REMARK    6  A    between atoms: C_15  and  C_16
REMARK    7  A    between atoms: C_15  and  S_23
REMARK    8  A    between atoms: C_16  and  C_17
REMARK    9  A    between atoms: C_17  and  O_18
REMARK   10  A    between atoms: O_18  and  P_19
REMARK   11  A    between atoms: P_19  and  O_20
REMARK   12  A    between atoms: P_19  and  O_21
REMARK   13  A    between atoms: S_23  and  C_24
REMARK   14  A    between atoms: C_24  and  C_26
REMARK                            x       y       z     vdW  Elec       q    Type
REMARK                         _______ _______ _______ _____ _____    ______ ____
ROOT
ATOM      1  C   UNL     1      -6.049   4.778 131.341  0.00  0.00    +0.000 C 
ATOM      2  C   UNL     1      -6.835   3.460 131.116  0.00  0.00    +0.000 C 
ATOM      3  C   UNL     1      -6.311   2.411 130.308  0.00  0.00    +0.000 C 
ENDROOT
BRANCH   2   4
ATOM      4  N   UNL     1      -8.098   3.508 131.793  0.00  0.00    +0.000 N 
ATOM      5  C   UNL     1      -8.284   3.411 133.185  0.00  0.00    +0.000 C 
ATOM      6  O   UNL     1      -9.366   3.439 133.769  0.00  0.00    +0.000 OA
BRANCH   4   7
ATOM      7  C   UNL     1      -9.381   3.810 131.185  0.00  0.00    +0.000 C 
BRANCH   7   8
ATOM      8  C   UNL     1      -9.527   5.159 130.642  0.00  0.00    +0.000 A 
ATOM      9  C   UNL     1      -9.249   5.412 129.221  0.00  0.00    +0.000 A 
ATOM     10  N   UNL     1      -9.689   6.382 128.337  0.00  0.00    +0.000 NA
ATOM     11  C   UNL     1     -10.562   7.124 128.920  0.00  0.00    +0.000 A 
ATOM     12  C   UNL     1     -11.368   8.417 128.098  0.00  0.00    +0.000 C 
ATOM     13  N   UNL     1     -10.730   6.845 130.378  0.00  0.00    +0.000 NA
ATOM     14  C   UNL     1     -10.264   6.023 131.320  0.00  0.00    +0.000 A 
ATOM     15  N   UNL     1     -10.837   5.917 132.601  0.00  0.00    +0.000 N 
ATOM     16  H   UNL     1     -11.626   6.507 132.871  0.00  0.00    +0.000 HD
ATOM     17  H   UNL     1     -10.705   5.154 133.262  0.00  0.00    +0.000 HD
ENDBRANCH   7   8
ENDBRANCH   4   7
ENDBRANCH   2   4
BRANCH   3  18
ATOM     18  C   UNL     1      -5.275   2.572 129.170  0.00  0.00    +0.000 C 
BRANCH  18  19
ATOM     19  C   UNL     1      -5.998   3.091 128.009  0.00  0.00    +0.000 C 
BRANCH  19  20
ATOM     20  O   UNL     1      -6.448   2.159 127.143  0.00  0.00    +0.000 OA
BRANCH  20  21
ATOM     21  P   UNL     1      -7.779   2.676 126.166  0.00  0.00    +0.000 P 
ATOM     22  O   UNL     1      -8.969   3.138 125.291  0.00  0.00    +0.000 OA
BRANCH  21  23
ATOM     23  O   UNL     1      -7.841   1.257 125.365  0.00  0.00    +0.000 OA
ATOM     24  H   UNL     1      -8.517   0.891 124.802  0.00  0.00    +0.000 HD
ENDBRANCH  21  23
BRANCH  21  25
ATOM     25  O   UNL     1      -8.696   2.152 127.418  0.00  0.00    +0.000 OA
ATOM     26  H   UNL     1      -8.851   2.854 128.070  0.00  0.00    +0.000 HD
ENDBRANCH  21  25
ENDBRANCH  20  21
ENDBRANCH  19  20
ENDBRANCH  18  19
ENDBRANCH   3  18
BRANCH   3  27
ATOM     27  S   UNL     1      -6.082   0.566 131.008  0.00  0.00    +0.000 S 
BRANCH  27  28
ATOM     28  C   UNL     1      -7.715  -0.491 130.361  0.00  0.00    +0.000 C 
ATOM     29  O   UNL     1      -8.597  -0.252 131.136  0.00  0.00    +0.000 OA
BRANCH  28  30
ATOM     30  C   UNL     1      -7.803  -1.849 129.022  0.00  0.00    +0.000 A 
ATOM     31  C   UNL     1      -7.780  -1.352 127.765  0.00  0.00    +0.000 A 
ATOM     32  C   UNL     1      -8.261  -2.172 126.685  0.00  0.00    +0.000 A 
ATOM     33  C   UNL     1      -8.761  -3.518 126.742  0.00  0.00    +0.000 A 
ATOM     34  C   UNL     1      -8.970  -4.122 127.931  0.00  0.00    +0.000 A 
ATOM     35  C   UNL     1      -8.525  -3.333 128.986  0.00  0.00    +0.000 A 
ENDBRANCH  28  30
ENDBRANCH  27  28
ENDBRANCH   3  27
TORSDOF 12
ENDMDL
MODEL 8
REMARK VINA RESULT:      -8.1      4.932      8.183
REMARK  Name = Benfotiamine
REMARK  14 active torsions:
REMARK  status: ('A' for Active; 'I' for Inactive)
REMARK    1  A    between atoms: C_1  and  C_2
REMARK    2  A    between atoms: C_2  and  N_3
REMARK    3  A    between atoms: N_3  and  C_4
REMARK    4  A    between atoms: C_4  and  C_5
REMARK    5  A    between atoms: C_8  and  C_9
REMARK    6  A    between atoms: C_15  and  C_16
REMARK    7  A    between atoms: C_15  and  S_23
REMARK    8  A    between atoms: C_16  and  C_17
REMARK    9  A    between atoms: C_17  and  O_18
REMARK   10  A    between atoms: O_18  and  P_19
REMARK   11  A    between atoms: P_19  and  O_20
REMARK   12  A    between atoms: P_19  and  O_21
REMARK   13  A    between atoms: S_23  and  C_24
REMARK   14  A    between atoms: C_24  and  C_26
REMARK                            x       y       z     vdW  Elec       q    Type
REMARK                         _______ _______ _______ _____ _____    ______ ____
ROOT
ATOM      1  C   UNL     1      -4.442   4.639 131.755  0.00  0.00    +0.000 C 
ATOM      2  C   UNL     1      -5.764   3.981 131.282  0.00  0.00    +0.000 C 
ATOM      3  C   UNL     1      -6.755   4.723 130.579  0.00  0.00    +0.000 C 
ENDROOT
BRANCH   2   4
ATOM      4  N   UNL     1      -5.809   2.604 131.682  0.00  0.00    +0.000 N 
ATOM      5  C   UNL     1      -4.771   1.668 131.509  0.00  0.00    +0.000 C 
ATOM      6  O   UNL     1      -4.810   0.484 131.840  0.00  0.00    +0.000 OA
BRANCH   4   7
ATOM      7  C   UNL     1      -6.861   1.975 132.459  0.00  0.00    +0.000 C 
BRANCH   7   8
ATOM      8  C   UNL     1      -7.286   2.697 133.657  0.00  0.00    +0.000 A 
ATOM      9  C   UNL     1      -6.280   3.261 134.569  0.00  0.00    +0.000 A 
ATOM     10  N   UNL     1      -6.315   4.310 135.471  0.00  0.00    +0.000 NA
ATOM     11  C   UNL     1      -7.451   4.905 135.388  0.00  0.00    +0.000 A 
ATOM     12  C   UNL     1      -7.832   6.300 136.339  0.00  0.00    +0.000 C 
ATOM     13  N   UNL     1      -8.436   4.225 134.494  0.00  0.00    +0.000 NA
ATOM     14  C   UNL     1      -8.524   3.160 133.695  0.00  0.00    +0.000 A 
ATOM     15  N   UNL     1      -9.600   2.946 132.813  0.00  0.00    +0.000 N 
ATOM     16  H   UNL     1     -10.387   3.596 132.781  0.00  0.00    +0.000 HD
ATOM     17  H   UNL     1      -9.611   2.314 132.015  0.00  0.00    +0.000 HD
ENDBRANCH   7   8
ENDBRANCH   4   7
ENDBRANCH   2   4
BRANCH   3  18
ATOM     18  C   UNL     1      -6.961   6.256 130.650  0.00  0.00    +0.000 C 
BRANCH  18  19
ATOM     19  C   UNL     1      -8.136   6.487 131.489  0.00  0.00    +0.000 C 
BRANCH  19  20
ATOM     20  O   UNL     1      -9.092   5.537 131.422  0.00  0.00    +0.000 OA
BRANCH  20  21
ATOM     21  P   UNL     1     -10.709   6.151 131.387  0.00  0.00    +0.000 P 
ATOM     22  O   UNL     1     -12.156   6.701 131.354  0.00  0.00    +0.000 OA
BRANCH  21  23
ATOM     23  O   UNL     1     -11.325   4.719 130.911  0.00  0.00    +0.000 OA
ATOM     24  H   UNL     1     -11.967   4.512 130.238  0.00  0.00    +0.000 HD
ENDBRANCH  21  23
BRANCH  21  25
ATOM     25  O   UNL     1     -10.719   5.768 132.979  0.00  0.00    +0.000 OA
ATOM     26  H   UNL     1     -11.181   6.438 133.508  0.00  0.00    +0.000 HD
ENDBRANCH  21  25
ENDBRANCH  20  21
ENDBRANCH  19  20
ENDBRANCH  18  19
ENDBRANCH   3  18
BRANCH   3  27
ATOM     27  S   UNL     1      -7.419   4.157 128.796  0.00  0.00    +0.000 S 
BRANCH  27  28
ATOM     28  C   UNL     1      -8.472   2.426 129.107  0.00  0.00    +0.000 C 
ATOM     29  O   UNL     1      -9.544   2.758 129.530  0.00  0.00    +0.000 OA
BRANCH  28  30
ATOM     30  C   UNL     1      -7.842   0.624 129.078  0.00  0.00    +0.000 A 
ATOM     31  C   UNL     1      -7.801   0.101 127.832  0.00  0.00    +0.000 A 
ATOM     32  C   UNL     1      -7.769  -1.330 127.680  0.00  0.00    +0.000 A 
ATOM     33  C   UNL     1      -7.745  -2.335 128.708  0.00  0.00    +0.000 A 
ATOM     34  C   UNL     1      -7.908  -1.995 130.004  0.00  0.00    +0.000 A 
ATOM     35  C   UNL     1      -7.958  -0.614 130.164  0.00  0.00    +0.000 A 
ENDBRANCH  28  30
ENDBRANCH  27  28
ENDBRANCH   3  27
TORSDOF 12
ENDMDL
MODEL 9
REMARK VINA RESULT:      -8.0      4.695      8.358
REMARK  Name = Benfotiamine
REMARK  14 active torsions:
REMARK  status: ('A' for Active; 'I' for Inactive)
REMARK    1  A    between atoms: C_1  and  C_2
REMARK    2  A    between atoms: C_2  and  N_3
REMARK    3  A    between atoms: N_3  and  C_4
REMARK    4  A    between atoms: C_4  and  C_5
REMARK    5  A    between atoms: C_8  and  C_9
REMARK    6  A    between atoms: C_15  and  C_16
REMARK    7  A    between atoms: C_15  and  S_23
REMARK    8  A    between atoms: C_16  and  C_17
REMARK    9  A    between atoms: C_17  and  O_18
REMARK   10  A    between atoms: O_18  and  P_19
REMARK   11  A    between atoms: P_19  and  O_20
REMARK   12  A    between atoms: P_19  and  O_21
REMARK   13  A    between atoms: S_23  and  C_24
REMARK   14  A    between atoms: C_24  and  C_26
REMARK                            x       y       z     vdW  Elec       q    Type
REMARK                         _______ _______ _______ _____ _____    ______ ____
ROOT
ATOM      1  C   UNL     1      -5.615   2.681 130.829  0.00  0.00    +0.000 C 
ATOM      2  C   UNL     1      -7.014   2.760 130.165  0.00  0.00    +0.000 C 
ATOM      3  C   UNL     1      -7.173   2.667 128.753  0.00  0.00    +0.000 C 
ENDROOT
BRANCH   2   4
ATOM      4  N   UNL     1      -8.029   2.960 131.158  0.00  0.00    +0.000 N 
ATOM      5  C   UNL     1      -7.855   2.808 132.547  0.00  0.00    +0.000 C 
ATOM      6  O   UNL     1      -8.726   2.967 133.402  0.00  0.00    +0.000 OA
BRANCH   4   7
ATOM      7  C   UNL     1      -9.359   3.491 130.924  0.00  0.00    +0.000 C 
BRANCH   7   8
ATOM      8  C   UNL     1      -9.423   4.897 130.529  0.00  0.00    +0.000 A 
ATOM      9  C   UNL     1      -9.299   5.267 129.111  0.00  0.00    +0.000 A 
ATOM     10  N   UNL     1      -9.737   6.360 128.385  0.00  0.00    +0.000 NA
ATOM     11  C   UNL     1     -10.444   7.120 129.144  0.00  0.00    +0.000 A 
ATOM     12  C   UNL     1     -11.199   8.563 128.558  0.00  0.00    +0.000 C 
ATOM     13  N   UNL     1     -10.457   6.710 130.581  0.00  0.00    +0.000 NA
ATOM     14  C   UNL     1      -9.970   5.754 131.374  0.00  0.00    +0.000 A 
ATOM     15  N   UNL     1     -10.386   5.574 132.707  0.00  0.00    +0.000 N 
ATOM     16  H   UNL     1     -11.065   6.207 133.133  0.00  0.00    +0.000 HD
ATOM     17  H   UNL     1     -10.256   4.737 133.272  0.00  0.00    +0.000 HD
ENDBRANCH   7   8
ENDBRANCH   4   7
ENDBRANCH   2   4
BRANCH   3  18
ATOM     18  C   UNL     1      -6.101   3.015 127.693  0.00  0.00    +0.000 C 
BRANCH  18  19
ATOM     19  C   UNL     1      -5.989   4.472 127.666  0.00  0.00    +0.000 C 
BRANCH  19  20
ATOM     20  O   UNL     1      -6.145   5.042 126.452  0.00  0.00    +0.000 OA
BRANCH  20  21
ATOM     21  P   UNL     1      -7.411   4.351 125.497  0.00  0.00    +0.000 P 
ATOM     22  O   UNL     1      -8.545   3.733 124.643  0.00  0.00    +0.000 OA
BRANCH  21  23
ATOM     23  O   UNL     1      -8.340   5.684 125.624  0.00  0.00    +0.000 OA
ATOM     24  H   UNL     1      -8.424   6.440 125.049  0.00  0.00    +0.000 HD
ENDBRANCH  21  23
BRANCH  21  25
ATOM     25  O   UNL     1      -6.549   4.921 124.227  0.00  0.00    +0.000 OA
ATOM     26  H   UNL     1      -6.095   4.208 123.750  0.00  0.00    +0.000 HD
ENDBRANCH  21  25
ENDBRANCH  20  21
ENDBRANCH  19  20
ENDBRANCH  18  19
ENDBRANCH   3  18
BRANCH   3  27
ATOM     27  S   UNL     1      -8.352   1.302 127.921  0.00  0.00    +0.000 S 
BRANCH  27  28
ATOM     28  C   UNL     1      -7.112  -0.197 127.273  0.00  0.00    +0.000 C 
ATOM     29  O   UNL     1      -6.817   0.077 126.144  0.00  0.00    +0.000 OA
BRANCH  28  30
ATOM     30  C   UNL     1      -6.731  -1.873 128.104  0.00  0.00    +0.000 A 
ATOM     31  C   UNL     1      -7.798  -2.395 128.750  0.00  0.00    +0.000 A 
ATOM     32  C   UNL     1      -7.577  -3.398 129.758  0.00  0.00    +0.000 A 
ATOM     33  C   UNL     1      -6.331  -3.976 130.182  0.00  0.00    +0.000 A 
ATOM     34  C   UNL     1      -5.158  -3.483 129.731  0.00  0.00    +0.000 A 
ATOM     35  C   UNL     1      -5.357  -2.501 128.768  0.00  0.00    +0.000 A 
ENDBRANCH  28  30
ENDBRANCH  27  28
ENDBRANCH   3  27
TORSDOF 12
ENDMDL
