MODEL 1
REMARK VINA RESULT:      -7.8      0.000      0.000
REMARK  Name = Benoxaprofen
REMARK  5 active torsions:
REMARK  status: ('A' for Active; 'I' for Inactive)
REMARK    1  A    between atoms: C_1  and  C_2
REMARK    2  A    between atoms: C_2  and  C_3
REMARK    3  A    between atoms: C_2  and  C_6
REMARK    4  A    between atoms: C_3  and  O_4
REMARK    5  A    between atoms: C_11  and  C_13
REMARK                            x       y       z     vdW  Elec       q    Type
REMARK                         _______ _______ _______ _____ _____    ______ ____
ROOT
ATOM      1  C   UNL     1     -11.445   7.302 129.574  0.00  0.00    +0.000 A 
ATOM      2  C   UNL     1     -10.073   7.541 129.354  0.00  0.00    +0.000 A 
ATOM      3  C   UNL     1      -9.160   7.121 130.332  0.00  0.00    +0.000 A 
ATOM      4  C   UNL     1      -9.627   6.506 131.482  0.00  0.00    +0.000 A 
ATOM      5  O   UNL     1      -8.545   6.165 132.245  0.00  0.00    +0.000 OA
ATOM      6  C   UNL     1      -7.479   6.605 131.502  0.00  0.00    +0.000 A 
ATOM      7  N   UNL     1      -7.796   7.203 130.370  0.00  0.00    +0.000 NA
ATOM      8  C   UNL     1     -10.967   6.278 131.761  0.00  0.00    +0.000 A 
ATOM      9  C   UNL     1     -11.862   6.660 130.760  0.00  0.00    +0.000 A 
ENDROOT
BRANCH   6  10
ATOM     10  C   UNL     1      -6.154   6.406 132.066  0.00  0.00    +0.000 A 
ATOM     11  C   UNL     1      -5.002   6.866 131.413  0.00  0.00    +0.000 A 
ATOM     12  C   UNL     1      -3.746   6.724 132.015  0.00  0.00    +0.000 A 
ATOM     13  C   UNL     1      -3.638   6.114 133.265  0.00  0.00    +0.000 A 
ATOM     14 CL   UNL     1      -2.092   5.919 133.993  0.00  0.00    +0.000 Cl
ATOM     15  C   UNL     1      -4.776   5.662 133.928  0.00  0.00    +0.000 A 
ATOM     16  C   UNL     1      -6.031   5.814 133.331  0.00  0.00    +0.000 A 
ENDBRANCH   6  10
BRANCH   1  18
ATOM     17  C   UNL     1     -12.949   9.089 128.760  0.00  0.00    +0.000 C 
ATOM     18  C   UNL     1     -12.470   7.654 128.502  0.00  0.00    +0.000 C 
BRANCH  18  19
ATOM     19  C   UNL     1     -12.009   7.521 127.049  0.00  0.00    +0.000 C 
ATOM     20  O   UNL     1     -11.178   8.281 126.554  0.00  0.00    +0.000 OA
BRANCH  19  21
ATOM     21  O   UNL     1     -12.547   6.535 126.300  0.00  0.00    +0.000 OA
ATOM     22  H   UNL     1     -13.061   6.806 125.518  0.00  0.00    +0.000 HD
ENDBRANCH  19  21
ENDBRANCH  18  19
ENDBRANCH   1  18
TORSDOF 4
ENDMDL
MODEL 2
REMARK VINA RESULT:      -7.7      1.127      1.387
REMARK  Name = Benoxaprofen
REMARK  5 active torsions:
REMARK  status: ('A' for Active; 'I' for Inactive)
REMARK    1  A    between atoms: C_1  and  C_2
REMARK    2  A    between atoms: C_2  and  C_3
REMARK    3  A    between atoms: C_2  and  C_6
REMARK    4  A    between atoms: C_3  and  O_4
REMARK    5  A    between atoms: C_11  and  C_13
REMARK                            x       y       z     vdW  Elec       q    Type
REMARK                         _______ _______ _______ _____ _____    ______ ____
ROOT
ATOM      1  C   UNL     1     -11.768   7.298 129.588  0.00  0.00    +0.000 A 
ATOM      2  C   UNL     1     -10.360   7.215 129.599  0.00  0.00    +0.000 A 
ATOM      3  C   UNL     1      -9.728   6.789 130.776  0.00  0.00    +0.000 A 
ATOM      4  C   UNL     1     -10.494   6.484 131.890  0.00  0.00    +0.000 A 
ATOM      5  O   UNL     1      -9.648   6.065 132.879  0.00  0.00    +0.000 OA
ATOM      6  C   UNL     1      -8.409   6.149 132.296  0.00  0.00    +0.000 A 
ATOM      7  N   UNL     1      -8.404   6.600 131.057  0.00  0.00    +0.000 NA
ATOM      8  C   UNL     1     -11.877   6.582 131.941  0.00  0.00    +0.000 A 
ATOM      9  C   UNL     1     -12.497   6.963 130.750  0.00  0.00    +0.000 A 
ENDROOT
BRANCH   6  10
ATOM     10  C   UNL     1      -7.267   5.784 133.119  0.00  0.00    +0.000 A 
ATOM     11  C   UNL     1      -5.951   5.980 132.675  0.00  0.00    +0.000 A 
ATOM     12  C   UNL     1      -4.873   5.687 133.518  0.00  0.00    +0.000 A 
ATOM     13  C   UNL     1      -5.106   5.187 134.799  0.00  0.00    +0.000 A 
ATOM     14 CL   UNL     1      -3.779   4.804 135.825  0.00  0.00    +0.000 Cl
ATOM     15  C   UNL     1      -6.409   4.997 135.254  0.00  0.00    +0.000 A 
ATOM     16  C   UNL     1      -7.485   5.301 134.417  0.00  0.00    +0.000 A 
ENDBRANCH   6  10
BRANCH   1  18
ATOM     17  C   UNL     1     -13.019   9.105 128.453  0.00  0.00    +0.000 C 
ATOM     18  C   UNL     1     -12.508   7.665 128.308  0.00  0.00    +0.000 C 
BRANCH  18  19
ATOM     19  C   UNL     1     -11.720   7.531 127.004  0.00  0.00    +0.000 C 
ATOM     20  O   UNL     1     -10.875   8.356 126.660  0.00  0.00    +0.000 OA
BRANCH  19  21
ATOM     21  O   UNL     1     -11.978   6.467 126.213  0.00  0.00    +0.000 OA
ATOM     22  H   UNL     1     -12.820   6.476 125.722  0.00  0.00    +0.000 HD
ENDBRANCH  19  21
ENDBRANCH  18  19
ENDBRANCH   1  18
TORSDOF 4
ENDMDL
MODEL 3
REMARK VINA RESULT:      -7.7      0.288      1.291
REMARK  Name = Benoxaprofen
REMARK  5 active torsions:
REMARK  status: ('A' for Active; 'I' for Inactive)
REMARK    1  A    between atoms: C_1  and  C_2
REMARK    2  A    between atoms: C_2  and  C_3
REMARK    3  A    between atoms: C_2  and  C_6
REMARK    4  A    between atoms: C_3  and  O_4
REMARK    5  A    between atoms: C_11  and  C_13
REMARK                            x       y       z     vdW  Elec       q    Type
REMARK                         _______ _______ _______ _____ _____    ______ ____
ROOT
ATOM      1  C   UNL     1     -11.375   7.345 129.742  0.00  0.00    +0.000 A 
ATOM      2  C   UNL     1     -10.016   7.621 129.489  0.00  0.00    +0.000 A 
ATOM      3  C   UNL     1      -9.064   7.175 130.418  0.00  0.00    +0.000 A 
ATOM      4  C   UNL     1      -9.482   6.502 131.554  0.00  0.00    +0.000 A 
ATOM      5  O   UNL     1      -8.369   6.149 132.265  0.00  0.00    +0.000 OA
ATOM      6  C   UNL     1      -7.335   6.642 131.509  0.00  0.00    +0.000 A 
ATOM      7  N   UNL     1      -7.701   7.283 130.415  0.00  0.00    +0.000 NA
ATOM      8  C   UNL     1     -10.807   6.236 131.865  0.00  0.00    +0.000 A 
ATOM      9  C   UNL     1     -11.741   6.644 130.911  0.00  0.00    +0.000 A 
ENDROOT
BRANCH   6  10
ATOM     10  C   UNL     1      -5.989   6.444 132.021  0.00  0.00    +0.000 A 
ATOM     11  C   UNL     1      -5.753   5.739 133.209  0.00  0.00    +0.000 A 
ATOM     12  C   UNL     1      -4.442   5.502 133.639  0.00  0.00    +0.000 A 
ATOM     13  C   UNL     1      -3.367   5.978 132.889  0.00  0.00    +0.000 A 
ATOM     14 CL   UNL     1      -1.757   5.706 133.431  0.00  0.00    +0.000 Cl
ATOM     15  C   UNL     1      -3.589   6.672 131.702  0.00  0.00    +0.000 A 
ATOM     16  C   UNL     1      -4.897   6.898 131.268  0.00  0.00    +0.000 A 
ENDBRANCH   6  10
BRANCH   1  18
ATOM     17  C   UNL     1     -12.823   9.191 128.958  0.00  0.00    +0.000 C 
ATOM     18  C   UNL     1     -12.441   7.724 128.721  0.00  0.00    +0.000 C 
BRANCH  18  19
ATOM     19  C   UNL     1     -12.075   7.522 127.249  0.00  0.00    +0.000 C 
ATOM     20  O   UNL     1     -12.584   6.636 126.563  0.00  0.00    +0.000 OA
BRANCH  19  21
ATOM     21  O   UNL     1     -11.158   8.348 126.703  0.00  0.00    +0.000 OA
ATOM     22  H   UNL     1     -10.410   8.612 127.269  0.00  0.00    +0.000 HD
ENDBRANCH  19  21
ENDBRANCH  18  19
ENDBRANCH   1  18
TORSDOF 4
ENDMDL
MODEL 4
REMARK VINA RESULT:      -7.4      4.384      4.981
REMARK  Name = Benoxaprofen
REMARK  5 active torsions:
REMARK  status: ('A' for Active; 'I' for Inactive)
REMARK    1  A    between atoms: C_1  and  C_2
REMARK    2  A    between atoms: C_2  and  C_3
REMARK    3  A    between atoms: C_2  and  C_6
REMARK    4  A    between atoms: C_3  and  O_4
REMARK    5  A    between atoms: C_11  and  C_13
REMARK                            x       y       z     vdW  Elec       q    Type
REMARK                         _______ _______ _______ _____ _____    ______ ____
ROOT
ATOM      1  C   UNL     1     -10.918   7.294 129.425  0.00  0.00    +0.000 A 
ATOM      2  C   UNL     1     -10.150   6.251 128.867  0.00  0.00    +0.000 A 
ATOM      3  C   UNL     1      -9.930   5.101 129.639  0.00  0.00    +0.000 A 
ATOM      4  C   UNL     1     -10.452   5.029 130.921  0.00  0.00    +0.000 A 
ATOM      5  O   UNL     1     -10.130   3.805 131.437  0.00  0.00    +0.000 OA
ATOM      6  C   UNL     1      -9.420   3.208 130.425  0.00  0.00    +0.000 A 
ATOM      7  N   UNL     1      -9.253   3.950 129.348  0.00  0.00    +0.000 NA
ATOM      8  C   UNL     1     -11.184   6.039 131.527  0.00  0.00    +0.000 A 
ATOM      9  C   UNL     1     -11.434   7.160 130.732  0.00  0.00    +0.000 A 
ENDROOT
BRANCH   6  10
ATOM     10  C   UNL     1      -8.906   1.872 130.679  0.00  0.00    +0.000 A 
ATOM     11  C   UNL     1      -9.260   1.157 131.831  0.00  0.00    +0.000 A 
ATOM     12  C   UNL     1      -8.807  -0.155 132.013  0.00  0.00    +0.000 A 
ATOM     13  C   UNL     1      -7.992  -0.750 131.050  0.00  0.00    +0.000 A 
ATOM     14 CL   UNL     1      -7.416  -2.354 131.286  0.00  0.00    +0.000 Cl
ATOM     15  C   UNL     1      -7.641  -0.053 129.897  0.00  0.00    +0.000 A 
ATOM     16  C   UNL     1      -8.103   1.253 129.710  0.00  0.00    +0.000 A 
ENDBRANCH   6  10
BRANCH   1  18
ATOM     17  C   UNL     1     -10.915   8.222 127.133  0.00  0.00    +0.000 C 
ATOM     18  C   UNL     1     -11.265   8.524 128.596  0.00  0.00    +0.000 C 
BRANCH  18  19
ATOM     19  C   UNL     1     -12.709   9.021 128.686  0.00  0.00    +0.000 C 
ATOM     20  O   UNL     1     -13.656   8.364 128.254  0.00  0.00    +0.000 OA
BRANCH  19  21
ATOM     21  O   UNL     1     -12.932  10.224 129.255  0.00  0.00    +0.000 OA
ATOM     22  H   UNL     1     -12.153  10.789 129.413  0.00  0.00    +0.000 HD
ENDBRANCH  19  21
ENDBRANCH  18  19
ENDBRANCH   1  18
TORSDOF 4
ENDMDL
MODEL 5
REMARK VINA RESULT:      -7.2     10.038     10.494
REMARK  Name = Benoxaprofen
REMARK  5 active torsions:
REMARK  status: ('A' for Active; 'I' for Inactive)
REMARK    1  A    between atoms: C_1  and  C_2
REMARK    2  A    between atoms: C_2  and  C_3
REMARK    3  A    between atoms: C_2  and  C_6
REMARK    4  A    between atoms: C_3  and  O_4
REMARK    5  A    between atoms: C_11  and  C_13
REMARK                            x       y       z     vdW  Elec       q    Type
REMARK                         _______ _______ _______ _____ _____    ______ ____
ROOT
ATOM      1  C   UNL     1      -8.226  -1.744 124.991  0.00  0.00    +0.000 A 
ATOM      2  C   UNL     1      -7.241  -1.532 125.977  0.00  0.00    +0.000 A 
ATOM      3  C   UNL     1      -7.341  -2.247 127.180  0.00  0.00    +0.000 A 
ATOM      4  C   UNL     1      -8.402  -3.118 127.370  0.00  0.00    +0.000 A 
ATOM      5  O   UNL     1      -8.245  -3.709 128.593  0.00  0.00    +0.000 OA
ATOM      6  C   UNL     1      -7.089  -3.147 129.074  0.00  0.00    +0.000 A 
ATOM      7  N   UNL     1      -6.531  -2.254 128.281  0.00  0.00    +0.000 NA
ATOM      8  C   UNL     1      -9.413  -3.336 126.446  0.00  0.00    +0.000 A 
ATOM      9  C   UNL     1      -9.278  -2.652 125.235  0.00  0.00    +0.000 A 
ENDROOT
BRANCH   6  10
ATOM     10  C   UNL     1      -6.655  -3.563 130.398  0.00  0.00    +0.000 A 
ATOM     11  C   UNL     1      -7.200  -2.998 131.559  0.00  0.00    +0.000 A 
ATOM     12  C   UNL     1      -6.814  -3.469 132.820  0.00  0.00    +0.000 A 
ATOM     13  C   UNL     1      -5.877  -4.497 132.922  0.00  0.00    +0.000 A 
ATOM     14 CL   UNL     1      -5.386  -5.059 134.472  0.00  0.00    +0.000 Cl
ATOM     15  C   UNL     1      -5.336  -5.073 131.775  0.00  0.00    +0.000 A 
ATOM     16  C   UNL     1      -5.729  -4.610 130.517  0.00  0.00    +0.000 A 
ENDBRANCH   6  10
BRANCH   1  18
ATOM     17  C   UNL     1      -8.031  -2.158 122.560  0.00  0.00    +0.000 C 
ATOM     18  C   UNL     1      -8.113  -1.063 123.632  0.00  0.00    +0.000 C 
BRANCH  18  19
ATOM     19  C   UNL     1      -9.225  -0.076 123.271  0.00  0.00    +0.000 C 
ATOM     20  O   UNL     1     -10.176  -0.392 122.557  0.00  0.00    +0.000 OA
BRANCH  19  21
ATOM     21  O   UNL     1      -9.140   1.181 123.756  0.00  0.00    +0.000 OA
ATOM     22  H   UNL     1      -8.349   1.398 124.284  0.00  0.00    +0.000 HD
ENDBRANCH  19  21
ENDBRANCH  18  19
ENDBRANCH   1  18
TORSDOF 4
ENDMDL
MODEL 6
REMARK VINA RESULT:      -7.2      4.916      7.916
REMARK  Name = Benoxaprofen
REMARK  5 active torsions:
REMARK  status: ('A' for Active; 'I' for Inactive)
REMARK    1  A    between atoms: C_1  and  C_2
REMARK    2  A    between atoms: C_2  and  C_3
REMARK    3  A    between atoms: C_2  and  C_6
REMARK    4  A    between atoms: C_3  and  O_4
REMARK    5  A    between atoms: C_11  and  C_13
REMARK                            x       y       z     vdW  Elec       q    Type
REMARK                         _______ _______ _______ _____ _____    ______ ____
ROOT
ATOM      1  C   UNL     1      -8.850   1.640 131.959  0.00  0.00    +0.000 A 
ATOM      2  C   UNL     1      -9.604   2.222 130.920  0.00  0.00    +0.000 A 
ATOM      3  C   UNL     1     -10.006   3.559 131.060  0.00  0.00    +0.000 A 
ATOM      4  C   UNL     1      -9.672   4.256 132.210  0.00  0.00    +0.000 A 
ATOM      5  O   UNL     1     -10.145   5.532 132.079  0.00  0.00    +0.000 OA
ATOM      6  C   UNL     1     -10.748   5.525 130.847  0.00  0.00    +0.000 A 
ATOM      7  N   UNL     1     -10.714   4.368 130.215  0.00  0.00    +0.000 NA
ATOM      8  C   UNL     1      -8.962   3.719 133.273  0.00  0.00    +0.000 A 
ATOM      9  C   UNL     1      -8.528   2.402 133.103  0.00  0.00    +0.000 A 
ENDROOT
BRANCH   6  10
ATOM     10  C   UNL     1     -11.383   6.760 130.416  0.00  0.00    +0.000 A 
ATOM     11  C   UNL     1     -11.025   7.388 129.215  0.00  0.00    +0.000 A 
ATOM     12  C   UNL     1     -11.704   8.536 128.790  0.00  0.00    +0.000 A 
ATOM     13  C   UNL     1     -12.733   9.064 129.570  0.00  0.00    +0.000 A 
ATOM     14 CL   UNL     1     -13.551  10.489 129.059  0.00  0.00    +0.000 Cl
ATOM     15  C   UNL     1     -13.104   8.444 130.761  0.00  0.00    +0.000 A 
ATOM     16  C   UNL     1     -12.433   7.292 131.178  0.00  0.00    +0.000 A 
ENDBRANCH   6  10
BRANCH   1  18
ATOM     17  C   UNL     1      -7.969  -0.007 130.339  0.00  0.00    +0.000 C 
ATOM     18  C   UNL     1      -8.309   0.222 131.817  0.00  0.00    +0.000 C 
BRANCH  18  19
ATOM     19  C   UNL     1      -7.099  -0.135 132.683  0.00  0.00    +0.000 C 
ATOM     20  O   UNL     1      -7.212  -0.741 133.747  0.00  0.00    +0.000 OA
BRANCH  19  21
ATOM     21  O   UNL     1      -5.877   0.241 132.251  0.00  0.00    +0.000 OA
ATOM     22  H   UNL     1      -5.575   1.133 132.503  0.00  0.00    +0.000 HD
ENDBRANCH  19  21
ENDBRANCH  18  19
ENDBRANCH   1  18
TORSDOF 4
ENDMDL
MODEL 7
REMARK VINA RESULT:      -7.1      3.659      8.047
REMARK  Name = Benoxaprofen
REMARK  5 active torsions:
REMARK  status: ('A' for Active; 'I' for Inactive)
REMARK    1  A    between atoms: C_1  and  C_2
REMARK    2  A    between atoms: C_2  and  C_3
REMARK    3  A    between atoms: C_2  and  C_6
REMARK    4  A    between atoms: C_3  and  O_4
REMARK    5  A    between atoms: C_11  and  C_13
REMARK                            x       y       z     vdW  Elec       q    Type
REMARK                         _______ _______ _______ _____ _____    ______ ____
ROOT
ATOM      1  C   UNL     1      -4.939   6.266 132.810  0.00  0.00    +0.000 A 
ATOM      2  C   UNL     1      -5.453   6.819 131.619  0.00  0.00    +0.000 A 
ATOM      3  C   UNL     1      -6.838   6.767 131.407  0.00  0.00    +0.000 A 
ATOM      4  C   UNL     1      -7.652   6.165 132.353  0.00  0.00    +0.000 A 
ATOM      5  O   UNL     1      -8.946   6.281 131.928  0.00  0.00    +0.000 OA
ATOM      6  C   UNL     1      -8.832   6.949 130.734  0.00  0.00    +0.000 A 
ATOM      7  N   UNL     1      -7.597   7.236 130.371  0.00  0.00    +0.000 NA
ATOM      8  C   UNL     1      -7.193   5.578 133.522  0.00  0.00    +0.000 A 
ATOM      9  C   UNL     1      -5.817   5.675 133.744  0.00  0.00    +0.000 A 
ENDROOT
BRANCH   6  10
ATOM     10  C   UNL     1     -10.062   7.212 130.005  0.00  0.00    +0.000 A 
ATOM     11  C   UNL     1     -10.098   8.106 128.926  0.00  0.00    +0.000 A 
ATOM     12  C   UNL     1     -11.280   8.284 128.197  0.00  0.00    +0.000 A 
ATOM     13  C   UNL     1     -12.429   7.577 128.551  0.00  0.00    +0.000 A 
ATOM     14 CL   UNL     1     -13.887   7.815 127.669  0.00  0.00    +0.000 Cl
ATOM     15  C   UNL     1     -12.403   6.679 129.615  0.00  0.00    +0.000 A 
ATOM     16  C   UNL     1     -11.220   6.493 130.335  0.00  0.00    +0.000 A 
ENDBRANCH   6  10
BRANCH   1  18
ATOM     17  C   UNL     1      -2.841   7.416 132.184  0.00  0.00    +0.000 C 
ATOM     18  C   UNL     1      -3.454   6.378 133.132  0.00  0.00    +0.000 C 
BRANCH  18  19
ATOM     19  C   UNL     1      -3.096   6.731 134.578  0.00  0.00    +0.000 C 
ATOM     20  O   UNL     1      -3.185   7.877 135.014  0.00  0.00    +0.000 OA
BRANCH  19  21
ATOM     21  O   UNL     1      -2.663   5.738 135.385  0.00  0.00    +0.000 OA
ATOM     22  H   UNL     1      -2.315   5.999 136.257  0.00  0.00    +0.000 HD
ENDBRANCH  19  21
ENDBRANCH  18  19
ENDBRANCH   1  18
TORSDOF 4
ENDMDL
MODEL 8
REMARK VINA RESULT:      -7.1      8.505      9.258
REMARK  Name = Benoxaprofen
REMARK  5 active torsions:
REMARK  status: ('A' for Active; 'I' for Inactive)
REMARK    1  A    between atoms: C_1  and  C_2
REMARK    2  A    between atoms: C_2  and  C_3
REMARK    3  A    between atoms: C_2  and  C_6
REMARK    4  A    between atoms: C_3  and  O_4
REMARK    5  A    between atoms: C_11  and  C_13
REMARK                            x       y       z     vdW  Elec       q    Type
REMARK                         _______ _______ _______ _____ _____    ______ ____
ROOT
ATOM      1  C   UNL     1      -7.400  -1.263 123.984  0.00  0.00    +0.000 A 
ATOM      2  C   UNL     1      -6.370  -1.034 124.919  0.00  0.00    +0.000 A 
ATOM      3  C   UNL     1      -6.011   0.292 125.201  0.00  0.00    +0.000 A 
ATOM      4  C   UNL     1      -6.658   1.328 124.547  0.00  0.00    +0.000 A 
ATOM      5  O   UNL     1      -6.153   2.505 125.024  0.00  0.00    +0.000 OA
ATOM      6  C   UNL     1      -5.217   2.103 125.944  0.00  0.00    +0.000 A 
ATOM      7  N   UNL     1      -5.079   0.797 126.064  0.00  0.00    +0.000 NA
ATOM      8  C   UNL     1      -7.653   1.155 123.596  0.00  0.00    +0.000 A 
ATOM      9  C   UNL     1      -8.033  -0.167 123.357  0.00  0.00    +0.000 A 
ENDROOT
BRANCH   6  10
ATOM     10  C   UNL     1      -4.471   3.147 126.626  0.00  0.00    +0.000 A 
ATOM     11  C   UNL     1      -5.120   4.194 127.296  0.00  0.00    +0.000 A 
ATOM     12  C   UNL     1      -4.376   5.144 128.005  0.00  0.00    +0.000 A 
ATOM     13  C   UNL     1      -2.985   5.057 128.038  0.00  0.00    +0.000 A 
ATOM     14 CL   UNL     1      -2.071   6.240 128.890  0.00  0.00    +0.000 Cl
ATOM     15  C   UNL     1      -2.329   4.016 127.384  0.00  0.00    +0.000 A 
ATOM     16  C   UNL     1      -3.072   3.062 126.685  0.00  0.00    +0.000 A 
ENDBRANCH   6  10
BRANCH   1  18
ATOM     17  C   UNL     1      -6.944  -3.654 124.421  0.00  0.00    +0.000 C 
ATOM     18  C   UNL     1      -7.892  -2.679 123.711  0.00  0.00    +0.000 C 
BRANCH  18  19
ATOM     19  C   UNL     1      -9.337  -2.987 124.110  0.00  0.00    +0.000 C 
ATOM     20  O   UNL     1     -10.126  -3.534 123.342  0.00  0.00    +0.000 OA
BRANCH  19  21
ATOM     21  O   UNL     1      -9.741  -2.633 125.349  0.00  0.00    +0.000 OA
ATOM     22  H   UNL     1     -10.687  -2.427 125.462  0.00  0.00    +0.000 HD
ENDBRANCH  19  21
ENDBRANCH  18  19
ENDBRANCH   1  18
TORSDOF 4
ENDMDL
MODEL 9
REMARK VINA RESULT:      -7.0      5.481      7.657
REMARK  Name = Benoxaprofen
REMARK  5 active torsions:
REMARK  status: ('A' for Active; 'I' for Inactive)
REMARK    1  A    between atoms: C_1  and  C_2
REMARK    2  A    between atoms: C_2  and  C_3
REMARK    3  A    between atoms: C_2  and  C_6
REMARK    4  A    between atoms: C_3  and  O_4
REMARK    5  A    between atoms: C_11  and  C_13
REMARK                            x       y       z     vdW  Elec       q    Type
REMARK                         _______ _______ _______ _____ _____    ______ ____
ROOT
ATOM      1  C   UNL     1      -8.274   0.994 130.368  0.00  0.00    +0.000 A 
ATOM      2  C   UNL     1      -8.381   2.120 129.526  0.00  0.00    +0.000 A 
ATOM      3  C   UNL     1      -9.248   3.154 129.908  0.00  0.00    +0.000 A 
ATOM      4  C   UNL     1      -9.981   3.034 131.078  0.00  0.00    +0.000 A 
ATOM      5  O   UNL     1     -10.709   4.179 131.236  0.00  0.00    +0.000 OA
ATOM      6  C   UNL     1     -10.373   4.928 130.136  0.00  0.00    +0.000 A 
ATOM      7  N   UNL     1      -9.527   4.349 129.305  0.00  0.00    +0.000 NA
ATOM      8  C   UNL     1      -9.936   1.933 131.921  0.00  0.00    +0.000 A 
ATOM      9  C   UNL     1      -9.036   0.931 131.554  0.00  0.00    +0.000 A 
ENDROOT
BRANCH   6  10
ATOM     10  C   UNL     1     -11.014   6.225 129.998  0.00  0.00    +0.000 A 
ATOM     11  C   UNL     1     -10.687   7.097 128.950  0.00  0.00    +0.000 A 
ATOM     12  C   UNL     1     -11.373   8.308 128.802  0.00  0.00    +0.000 A 
ATOM     13  C   UNL     1     -12.378   8.654 129.704  0.00  0.00    +0.000 A 
ATOM     14 CL   UNL     1     -13.204  10.154 129.534  0.00  0.00    +0.000 Cl
ATOM     15  C   UNL     1     -12.719   7.792 130.743  0.00  0.00    +0.000 A 
ATOM     16  C   UNL     1     -12.042   6.578 130.885  0.00  0.00    +0.000 A 
ENDBRANCH   6  10
BRANCH   1  18
ATOM     17  C   UNL     1      -7.763  -1.398 130.734  0.00  0.00    +0.000 C 
ATOM     18  C   UNL     1      -7.278  -0.115 130.048  0.00  0.00    +0.000 C 
BRANCH  18  19
ATOM     19  C   UNL     1      -7.022  -0.392 128.565  0.00  0.00    +0.000 C 
ATOM     20  O   UNL     1      -7.819  -1.019 127.868  0.00  0.00    +0.000 OA
BRANCH  19  21
ATOM     21  O   UNL     1      -5.874   0.068 128.022  0.00  0.00    +0.000 OA
ATOM     22  H   UNL     1      -5.477  -0.466 127.311  0.00  0.00    +0.000 HD
ENDBRANCH  19  21
ENDBRANCH  18  19
ENDBRANCH   1  18
TORSDOF 4
ENDMDL
