MODEL 1
REMARK VINA RESULT:      -7.2      0.000      0.000
REMARK  Name = Benorilate
REMARK  8 active torsions:
REMARK  status: ('A' for Active; 'I' for Inactive)
REMARK    1  A    between atoms: C_1  and  C_2
REMARK    2  A    between atoms: N_4  and  C_5
REMARK    3  A    between atoms: C_8  and  O_9
REMARK    4  A    between atoms: O_9  and  C_10
REMARK    5  A    between atoms: C_10  and  C_12
REMARK    6  A    between atoms: C_17  and  O_18
REMARK    7  A    between atoms: O_18  and  C_19
REMARK    8  A    between atoms: C_19  and  C_20
REMARK                            x       y       z     vdW  Elec       q    Type
REMARK                         _______ _______ _______ _____ _____    ______ ____
ROOT
ATOM      1  O   UNL     1      -9.494   4.358 129.221  0.00  0.00    +0.000 OA
ENDROOT
BRANCH   1   5
ATOM      2  C   UNL     1      -8.796   0.662 131.356  0.00  0.00    +0.000 A 
ATOM      3  C   UNL     1      -9.676   1.588 131.913  0.00  0.00    +0.000 A 
ATOM      4  C   UNL     1      -9.971   2.772 131.191  0.00  0.00    +0.000 A 
ATOM      5  C   UNL     1      -9.345   3.037 129.924  0.00  0.00    +0.000 A 
ATOM      6  C   UNL     1      -8.331   2.194 129.517  0.00  0.00    +0.000 A 
ATOM      7  C   UNL     1      -8.081   1.015 130.211  0.00  0.00    +0.000 A 
BRANCH   2  11
ATOM      8  C   UNL     1      -7.588  -2.486 133.034  0.00  0.00    +0.000 C 
ATOM      9  C   UNL     1      -7.732  -1.012 132.790  0.00  0.00    +0.000 C 
ATOM     10  O   UNL     1      -7.045  -0.220 133.433  0.00  0.00    +0.000 OA
ATOM     11  N   UNL     1      -8.690  -0.652 131.859  0.00  0.00    +0.000 N 
ATOM     12  H   UNL     1      -9.286  -1.355 131.437  0.00  0.00    +0.000 HD
ENDBRANCH   2  11
ENDBRANCH   1   5
BRANCH   1  13
ATOM     13  C   UNL     1      -9.184   5.653 129.785  0.00  0.00    +0.000 C 
ATOM     14  O   UNL     1      -8.066   5.984 130.182  0.00  0.00    +0.000 OA
BRANCH  13  15
ATOM     15  C   UNL     1     -10.358   6.603 130.157  0.00  0.00    +0.000 A 
ATOM     16  C   UNL     1     -10.820   6.299 131.453  0.00  0.00    +0.000 A 
ATOM     17  C   UNL     1     -12.014   6.828 131.962  0.00  0.00    +0.000 A 
ATOM     18  C   UNL     1     -12.769   7.729 131.218  0.00  0.00    +0.000 A 
ATOM     19  C   UNL     1     -12.397   8.028 129.913  0.00  0.00    +0.000 A 
ATOM     20  C   UNL     1     -11.223   7.461 129.364  0.00  0.00    +0.000 A 
BRANCH  20  21
ATOM     21  O   UNL     1     -11.155   7.892 127.938  0.00  0.00    +0.000 OA
BRANCH  21  22
ATOM     22  C   UNL     1     -11.101   7.258 126.661  0.00  0.00    +0.000 C 
ATOM     23  C   UNL     1     -12.459   7.158 126.190  0.00  0.00    +0.000 C 
ATOM     24  O   UNL     1     -10.181   6.677 126.156  0.00  0.00    +0.000 OA
ENDBRANCH  21  22
ENDBRANCH  20  21
ENDBRANCH  13  15
ENDBRANCH   1  13
TORSDOF 6
ENDMDL
MODEL 2
REMARK VINA RESULT:      -7.2      7.399     10.221
REMARK  Name = Benorilate
REMARK  8 active torsions:
REMARK  status: ('A' for Active; 'I' for Inactive)
REMARK    1  A    between atoms: C_1  and  C_2
REMARK    2  A    between atoms: N_4  and  C_5
REMARK    3  A    between atoms: C_8  and  O_9
REMARK    4  A    between atoms: O_9  and  C_10
REMARK    5  A    between atoms: C_10  and  C_12
REMARK    6  A    between atoms: C_17  and  O_18
REMARK    7  A    between atoms: O_18  and  C_19
REMARK    8  A    between atoms: C_19  and  C_20
REMARK                            x       y       z     vdW  Elec       q    Type
REMARK                         _______ _______ _______ _____ _____    ______ ____
ROOT
ATOM      1  O   UNL     1      -7.033  -1.558 130.776  0.00  0.00    +0.000 OA
ENDROOT
BRANCH   1   5
ATOM      2  C   UNL     1      -8.659  -2.766 126.955  0.00  0.00    +0.000 A 
ATOM      3  C   UNL     1      -8.688  -3.685 128.002  0.00  0.00    +0.000 A 
ATOM      4  C   UNL     1      -8.225  -3.280 129.279  0.00  0.00    +0.000 A 
ATOM      5  C   UNL     1      -7.696  -1.959 129.488  0.00  0.00    +0.000 A 
ATOM      6  C   UNL     1      -7.498  -1.163 128.377  0.00  0.00    +0.000 A 
ATOM      7  C   UNL     1      -7.995  -1.553 127.139  0.00  0.00    +0.000 A 
BRANCH   2  11
ATOM      8  C   UNL     1      -9.587  -3.390 123.358  0.00  0.00    +0.000 C 
ATOM      9  C   UNL     1      -8.751  -3.444 124.603  0.00  0.00    +0.000 C 
ATOM     10  O   UNL     1      -7.613  -3.907 124.553  0.00  0.00    +0.000 OA
ATOM     11  N   UNL     1      -9.369  -2.990 125.755  0.00  0.00    +0.000 N 
ATOM     12  H   UNL     1     -10.344  -2.710 125.740  0.00  0.00    +0.000 HD
ENDBRANCH   2  11
ENDBRANCH   1   5
BRANCH   1  13
ATOM     13  C   UNL     1      -7.456  -1.957 132.101  0.00  0.00    +0.000 C 
ATOM     14  O   UNL     1      -8.007  -1.204 132.906  0.00  0.00    +0.000 OA
BRANCH  13  15
ATOM     15  C   UNL     1      -6.973  -3.327 132.656  0.00  0.00    +0.000 A 
ATOM     16  C   UNL     1      -7.564  -3.563 133.913  0.00  0.00    +0.000 A 
ATOM     17  C   UNL     1      -7.139  -4.600 134.754  0.00  0.00    +0.000 A 
ATOM     18  C   UNL     1      -6.139  -5.482 134.350  0.00  0.00    +0.000 A 
ATOM     19  C   UNL     1      -5.480  -5.270 133.146  0.00  0.00    +0.000 A 
ATOM     20  C   UNL     1      -5.861  -4.196 132.309  0.00  0.00    +0.000 A 
BRANCH  20  21
ATOM     21  O   UNL     1      -4.911  -4.180 131.159  0.00  0.00    +0.000 OA
BRANCH  21  22
ATOM     22  C   UNL     1      -3.998  -3.251 130.576  0.00  0.00    +0.000 C 
ATOM     23  C   UNL     1      -4.222  -3.287 129.153  0.00  0.00    +0.000 C 
ATOM     24  O   UNL     1      -3.049  -2.722 131.083  0.00  0.00    +0.000 OA
ENDBRANCH  21  22
ENDBRANCH  20  21
ENDBRANCH  13  15
ENDBRANCH   1  13
TORSDOF 6
ENDMDL
MODEL 3
REMARK VINA RESULT:      -7.1      7.036      9.159
REMARK  Name = Benorilate
REMARK  8 active torsions:
REMARK  status: ('A' for Active; 'I' for Inactive)
REMARK    1  A    between atoms: C_1  and  C_2
REMARK    2  A    between atoms: N_4  and  C_5
REMARK    3  A    between atoms: C_8  and  O_9
REMARK    4  A    between atoms: O_9  and  C_10
REMARK    5  A    between atoms: C_10  and  C_12
REMARK    6  A    between atoms: C_17  and  O_18
REMARK    7  A    between atoms: O_18  and  C_19
REMARK    8  A    between atoms: C_19  and  C_20
REMARK                            x       y       z     vdW  Elec       q    Type
REMARK                         _______ _______ _______ _____ _____    ______ ____
ROOT
ATOM      1  O   UNL     1      -9.762  -2.845 125.591  0.00  0.00    +0.000 OA
ENDROOT
BRANCH   1   5
ATOM      2  C   UNL     1      -7.241  -2.446 129.083  0.00  0.00    +0.000 A 
ATOM      3  C   UNL     1      -8.029  -3.589 128.967  0.00  0.00    +0.000 A 
ATOM      4  C   UNL     1      -8.806  -3.768 127.795  0.00  0.00    +0.000 A 
ATOM      5  C   UNL     1      -8.816  -2.773 126.757  0.00  0.00    +0.000 A 
ATOM      6  C   UNL     1      -8.185  -1.572 127.012  0.00  0.00    +0.000 A 
ATOM      7  C   UNL     1      -7.392  -1.424 128.145  0.00  0.00    +0.000 A 
BRANCH   2  11
ATOM      8  C   UNL     1      -4.061  -2.856 131.059  0.00  0.00    +0.000 C 
ATOM      9  C   UNL     1      -4.944  -2.813 129.846  0.00  0.00    +0.000 C 
ATOM     10  O   UNL     1      -4.491  -3.147 128.752  0.00  0.00    +0.000 OA
ATOM     11  N   UNL     1      -6.228  -2.343 130.060  0.00  0.00    +0.000 N 
ATOM     12  H   UNL     1      -6.502  -1.994 130.971  0.00  0.00    +0.000 HD
ENDBRANCH   2  11
ENDBRANCH   1   5
BRANCH   1  13
ATOM     13  C   UNL     1      -9.383  -3.058 124.211  0.00  0.00    +0.000 C 
ATOM     14  O   UNL     1     -10.117  -3.569 123.364  0.00  0.00    +0.000 OA
BRANCH  13  15
ATOM     15  C   UNL     1      -7.891  -2.875 123.812  0.00  0.00    +0.000 A 
ATOM     16  C   UNL     1      -7.152  -4.003 124.219  0.00  0.00    +0.000 A 
ATOM     17  C   UNL     1      -5.750  -4.021 124.205  0.00  0.00    +0.000 A 
ATOM     18  C   UNL     1      -5.027  -2.930 123.731  0.00  0.00    +0.000 A 
ATOM     19  C   UNL     1      -5.694  -1.768 123.366  0.00  0.00    +0.000 A 
ATOM     20  C   UNL     1      -7.107  -1.714 123.425  0.00  0.00    +0.000 A 
BRANCH  20  21
ATOM     21  O   UNL     1      -7.506  -0.321 123.071  0.00  0.00    +0.000 OA
BRANCH  21  22
ATOM     22  C   UNL     1      -8.544   0.588 123.435  0.00  0.00    +0.000 C 
ATOM     23  C   UNL     1      -8.071   1.318 124.585  0.00  0.00    +0.000 C 
ATOM     24  O   UNL     1      -9.684   0.604 123.065  0.00  0.00    +0.000 OA
ENDBRANCH  21  22
ENDBRANCH  20  21
ENDBRANCH  13  15
ENDBRANCH   1  13
TORSDOF 6
ENDMDL
MODEL 4
REMARK VINA RESULT:      -7.1      6.834      9.937
REMARK  Name = Benorilate
REMARK  8 active torsions:
REMARK  status: ('A' for Active; 'I' for Inactive)
REMARK    1  A    between atoms: C_1  and  C_2
REMARK    2  A    between atoms: N_4  and  C_5
REMARK    3  A    between atoms: C_8  and  O_9
REMARK    4  A    between atoms: O_9  and  C_10
REMARK    5  A    between atoms: C_10  and  C_12
REMARK    6  A    between atoms: C_17  and  O_18
REMARK    7  A    between atoms: O_18  and  C_19
REMARK    8  A    between atoms: C_19  and  C_20
REMARK                            x       y       z     vdW  Elec       q    Type
REMARK                         _______ _______ _______ _____ _____    ______ ____
ROOT
ATOM      1  O   UNL     1      -6.290   0.274 126.367  0.00  0.00    +0.000 OA
ENDROOT
BRANCH   1   5
ATOM      2  C   UNL     1      -6.878   3.101 123.148  0.00  0.00    +0.000 A 
ATOM      3  C   UNL     1      -6.048   3.471 124.204  0.00  0.00    +0.000 A 
ATOM      4  C   UNL     1      -5.788   2.528 125.231  0.00  0.00    +0.000 A 
ATOM      5  C   UNL     1      -6.399   1.227 125.209  0.00  0.00    +0.000 A 
ATOM      6  C   UNL     1      -7.369   0.986 124.257  0.00  0.00    +0.000 A 
ATOM      7  C   UNL     1      -7.584   1.901 123.231  0.00  0.00    +0.000 A 
BRANCH   2  11
ATOM      8  C   UNL     1      -6.094   4.707 119.832  0.00  0.00    +0.000 C 
ATOM      9  C   UNL     1      -6.056   3.665 120.911  0.00  0.00    +0.000 C 
ATOM     10  O   UNL     1      -5.297   2.703 120.801  0.00  0.00    +0.000 OA
ATOM     11  N   UNL     1      -6.940   3.858 121.958  0.00  0.00    +0.000 N 
ATOM     12  H   UNL     1      -7.604   4.624 121.935  0.00  0.00    +0.000 HD
ENDBRANCH   2  11
ENDBRANCH   1   5
BRANCH   1  13
ATOM     13  C   UNL     1      -7.288   0.082 127.398  0.00  0.00    +0.000 C 
ATOM     14  O   UNL     1      -7.452   0.844 128.351  0.00  0.00    +0.000 OA
BRANCH  13  15
ATOM     15  C   UNL     1      -8.032  -1.282 127.468  0.00  0.00    +0.000 A 
ATOM     16  C   UNL     1      -7.768  -1.901 128.706  0.00  0.00    +0.000 A 
ATOM     17  C   UNL     1      -8.110  -3.236 128.960  0.00  0.00    +0.000 A 
ATOM     18  C   UNL     1      -8.781  -3.995 128.005  0.00  0.00    +0.000 A 
ATOM     19  C   UNL     1      -9.021  -3.461 126.745  0.00  0.00    +0.000 A 
ATOM     20  C   UNL     1      -8.635  -2.131 126.454  0.00  0.00    +0.000 A 
BRANCH  20  21
ATOM     21  O   UNL     1      -8.936  -1.894 125.013  0.00  0.00    +0.000 OA
BRANCH  21  22
ATOM     22  C   UNL     1      -9.013  -2.678 123.823  0.00  0.00    +0.000 C 
ATOM     23  C   UNL     1      -7.804  -2.426 123.081  0.00  0.00    +0.000 C 
ATOM     24  O   UNL     1      -9.968  -3.240 123.362  0.00  0.00    +0.000 OA
ENDBRANCH  21  22
ENDBRANCH  20  21
ENDBRANCH  13  15
ENDBRANCH   1  13
TORSDOF 6
ENDMDL
MODEL 5
REMARK VINA RESULT:      -7.0      5.973      8.718
REMARK  Name = Benorilate
REMARK  8 active torsions:
REMARK  status: ('A' for Active; 'I' for Inactive)
REMARK    1  A    between atoms: C_1  and  C_2
REMARK    2  A    between atoms: N_4  and  C_5
REMARK    3  A    between atoms: C_8  and  O_9
REMARK    4  A    between atoms: O_9  and  C_10
REMARK    5  A    between atoms: C_10  and  C_12
REMARK    6  A    between atoms: C_17  and  O_18
REMARK    7  A    between atoms: O_18  and  C_19
REMARK    8  A    between atoms: C_19  and  C_20
REMARK                            x       y       z     vdW  Elec       q    Type
REMARK                         _______ _______ _______ _____ _____    ______ ____
ROOT
ATOM      1  O   UNL     1      -8.292  -3.533 126.954  0.00  0.00    +0.000 OA
ENDROOT
BRANCH   1   5
ATOM      2  C   UNL     1      -7.308  -1.181 130.447  0.00  0.00    +0.000 A 
ATOM      3  C   UNL     1      -7.653  -2.519 130.630  0.00  0.00    +0.000 A 
ATOM      4  C   UNL     1      -7.908  -3.321 129.490  0.00  0.00    +0.000 A 
ATOM      5  C   UNL     1      -7.853  -2.761 128.166  0.00  0.00    +0.000 A 
ATOM      6  C   UNL     1      -7.712  -1.393 128.052  0.00  0.00    +0.000 A 
ATOM      7  C   UNL     1      -7.420  -0.623 129.173  0.00  0.00    +0.000 A 
BRANCH   2  11
ATOM      8  C   UNL     1      -6.786   1.292 133.239  0.00  0.00    +0.000 C 
ATOM      9  C   UNL     1      -7.534   0.342 132.351  0.00  0.00    +0.000 C 
ATOM     10  O   UNL     1      -8.756   0.251 132.450  0.00  0.00    +0.000 OA
ATOM     11  N   UNL     1      -6.753  -0.411 131.492  0.00  0.00    +0.000 N 
ATOM     12  H   UNL     1      -5.742  -0.352 131.531  0.00  0.00    +0.000 HD
ENDBRANCH   2  11
ENDBRANCH   1   5
BRANCH   1  13
ATOM     13  C   UNL     1      -8.818  -2.959 125.734  0.00  0.00    +0.000 C 
ATOM     14  O   UNL     1     -10.015  -2.763 125.522  0.00  0.00    +0.000 OA
BRANCH  13  15
ATOM     15  C   UNL     1      -7.867  -2.811 124.512  0.00  0.00    +0.000 A 
ATOM     16  C   UNL     1      -6.583  -3.282 124.852  0.00  0.00    +0.000 A 
ATOM     17  C   UNL     1      -5.467  -3.061 124.034  0.00  0.00    +0.000 A 
ATOM     18  C   UNL     1      -5.595  -2.405 122.813  0.00  0.00    +0.000 A 
ATOM     19  C   UNL     1      -6.823  -1.868 122.446  0.00  0.00    +0.000 A 
ATOM     20  C   UNL     1      -7.949  -2.036 123.284  0.00  0.00    +0.000 A 
BRANCH  20  21
ATOM     21  O   UNL     1      -9.071  -1.271 122.668  0.00  0.00    +0.000 OA
BRANCH  21  22
ATOM     22  C   UNL     1      -9.733  -0.029 122.898  0.00  0.00    +0.000 C 
ATOM     23  C   UNL     1      -9.086   0.583 124.031  0.00  0.00    +0.000 C 
ATOM     24  O   UNL     1     -10.776   0.354 122.445  0.00  0.00    +0.000 OA
ENDBRANCH  21  22
ENDBRANCH  20  21
ENDBRANCH  13  15
ENDBRANCH   1  13
TORSDOF 6
ENDMDL
MODEL 6
REMARK VINA RESULT:      -7.0      6.378      7.957
REMARK  Name = Benorilate
REMARK  8 active torsions:
REMARK  status: ('A' for Active; 'I' for Inactive)
REMARK    1  A    between atoms: C_1  and  C_2
REMARK    2  A    between atoms: N_4  and  C_5
REMARK    3  A    between atoms: C_8  and  O_9
REMARK    4  A    between atoms: O_9  and  C_10
REMARK    5  A    between atoms: C_10  and  C_12
REMARK    6  A    between atoms: C_17  and  O_18
REMARK    7  A    between atoms: O_18  and  C_19
REMARK    8  A    between atoms: C_19  and  C_20
REMARK                            x       y       z     vdW  Elec       q    Type
REMARK                         _______ _______ _______ _____ _____    ______ ____
ROOT
ATOM      1  O   UNL     1      -7.999   2.038 126.461  0.00  0.00    +0.000 OA
ENDROOT
BRANCH   1   5
ATOM      2  C   UNL     1      -6.012  -1.734 125.739  0.00  0.00    +0.000 A 
ATOM      3  C   UNL     1      -7.405  -1.717 125.755  0.00  0.00    +0.000 A 
ATOM      4  C   UNL     1      -8.071  -0.476 125.919  0.00  0.00    +0.000 A 
ATOM      5  C   UNL     1      -7.329   0.741 126.106  0.00  0.00    +0.000 A 
ATOM      6  C   UNL     1      -5.964   0.641 126.288  0.00  0.00    +0.000 A 
ATOM      7  C   UNL     1      -5.318  -0.573 126.084  0.00  0.00    +0.000 A 
BRANCH   2  11
ATOM      8  C   UNL     1      -4.606  -4.530 123.643  0.00  0.00    +0.000 C 
ATOM      9  C   UNL     1      -5.185  -3.179 123.943  0.00  0.00    +0.000 C 
ATOM     10  O   UNL     1      -5.491  -2.429 123.018  0.00  0.00    +0.000 OA
ATOM     11  N   UNL     1      -5.292  -2.860 125.286  0.00  0.00    +0.000 N 
ATOM     12  H   UNL     1      -4.931  -3.490 125.994  0.00  0.00    +0.000 HD
ENDBRANCH   2  11
ENDBRANCH   1   5
BRANCH   1  13
ATOM     13  C   UNL     1      -7.896   3.273 125.713  0.00  0.00    +0.000 C 
ATOM     14  O   UNL     1      -8.372   4.347 126.083  0.00  0.00    +0.000 OA
BRANCH  13  15
ATOM     15  C   UNL     1      -7.385   3.213 124.246  0.00  0.00    +0.000 A 
ATOM     16  C   UNL     1      -6.181   3.938 124.134  0.00  0.00    +0.000 A 
ATOM     17  C   UNL     1      -5.614   4.254 122.892  0.00  0.00    +0.000 A 
ATOM     18  C   UNL     1      -6.198   3.814 121.708  0.00  0.00    +0.000 A 
ATOM     19  C   UNL     1      -7.413   3.143 121.747  0.00  0.00    +0.000 A 
ATOM     20  C   UNL     1      -8.027   2.860 122.990  0.00  0.00    +0.000 A 
BRANCH  20  21
ATOM     21  O   UNL     1      -9.346   2.231 122.693  0.00  0.00    +0.000 OA
BRANCH  21  22
ATOM     22  C   UNL     1     -10.148   1.187 123.243  0.00  0.00    +0.000 C 
ATOM     23  C   UNL     1      -9.854  -0.005 122.487  0.00  0.00    +0.000 C 
ATOM     24  O   UNL     1     -11.075   1.279 123.998  0.00  0.00    +0.000 OA
ENDBRANCH  21  22
ENDBRANCH  20  21
ENDBRANCH  13  15
ENDBRANCH   1  13
TORSDOF 6
ENDMDL
MODEL 7
REMARK VINA RESULT:      -7.0      6.677      8.879
REMARK  Name = Benorilate
REMARK  8 active torsions:
REMARK  status: ('A' for Active; 'I' for Inactive)
REMARK    1  A    between atoms: C_1  and  C_2
REMARK    2  A    between atoms: N_4  and  C_5
REMARK    3  A    between atoms: C_8  and  O_9
REMARK    4  A    between atoms: O_9  and  C_10
REMARK    5  A    between atoms: C_10  and  C_12
REMARK    6  A    between atoms: C_17  and  O_18
REMARK    7  A    between atoms: O_18  and  C_19
REMARK    8  A    between atoms: C_19  and  C_20
REMARK                            x       y       z     vdW  Elec       q    Type
REMARK                         _______ _______ _______ _____ _____    ______ ____
ROOT
ATOM      1  O   UNL     1      -6.900   1.004 125.279  0.00  0.00    +0.000 OA
ENDROOT
BRANCH   1   5
ATOM      2  C   UNL     1      -3.777   3.700 126.574  0.00  0.00    +0.000 A 
ATOM      3  C   UNL     1      -4.536   4.059 125.462  0.00  0.00    +0.000 A 
ATOM      4  C   UNL     1      -5.610   3.221 125.069  0.00  0.00    +0.000 A 
ATOM      5  C   UNL     1      -5.891   2.001 125.776  0.00  0.00    +0.000 A 
ATOM      6  C   UNL     1      -4.986   1.589 126.734  0.00  0.00    +0.000 A 
ATOM      7  C   UNL     1      -3.963   2.439 127.140  0.00  0.00    +0.000 A 
BRANCH   2  11
ATOM      8  C   UNL     1      -2.310   6.735 128.255  0.00  0.00    +0.000 C 
ATOM      9  C   UNL     1      -3.363   5.739 127.866  0.00  0.00    +0.000 C 
ATOM     10  O   UNL     1      -4.535   5.939 128.179  0.00  0.00    +0.000 OA
ATOM     11  N   UNL     1      -2.904   4.616 127.199  0.00  0.00    +0.000 N 
ATOM     12  H   UNL     1      -1.910   4.472 127.058  0.00  0.00    +0.000 HD
ENDBRANCH   2  11
ENDBRANCH   1   5
BRANCH   1  13
ATOM     13  C   UNL     1      -8.196   0.750 125.871  0.00  0.00    +0.000 C 
ATOM     14  O   UNL     1      -9.002   1.630 126.175  0.00  0.00    +0.000 OA
BRANCH  13  15
ATOM     15  C   UNL     1      -8.506  -0.681 126.396  0.00  0.00    +0.000 A 
ATOM     16  C   UNL     1      -7.883  -0.871 127.646  0.00  0.00    +0.000 A 
ATOM     17  C   UNL     1      -7.791  -2.133 128.249  0.00  0.00    +0.000 A 
ATOM     18  C   UNL     1      -8.366  -3.252 127.654  0.00  0.00    +0.000 A 
ATOM     19  C   UNL     1      -8.946  -3.142 126.397  0.00  0.00    +0.000 A 
ATOM     20  C   UNL     1      -9.001  -1.885 125.749  0.00  0.00    +0.000 A 
BRANCH  20  21
ATOM     21  O   UNL     1      -9.585  -2.115 124.397  0.00  0.00    +0.000 OA
BRANCH  21  22
ATOM     22  C   UNL     1      -9.398  -1.596 123.081  0.00  0.00    +0.000 C 
ATOM     23  C   UNL     1      -8.088  -2.016 122.651  0.00  0.00    +0.000 C 
ATOM     24  O   UNL     1     -10.047  -0.766 122.509  0.00  0.00    +0.000 OA
ENDBRANCH  21  22
ENDBRANCH  20  21
ENDBRANCH  13  15
ENDBRANCH   1  13
TORSDOF 6
ENDMDL
MODEL 8
REMARK VINA RESULT:      -6.9      7.239      8.843
REMARK  Name = Benorilate
REMARK  8 active torsions:
REMARK  status: ('A' for Active; 'I' for Inactive)
REMARK    1  A    between atoms: C_1  and  C_2
REMARK    2  A    between atoms: N_4  and  C_5
REMARK    3  A    between atoms: C_8  and  O_9
REMARK    4  A    between atoms: O_9  and  C_10
REMARK    5  A    between atoms: C_10  and  C_12
REMARK    6  A    between atoms: C_17  and  O_18
REMARK    7  A    between atoms: O_18  and  C_19
REMARK    8  A    between atoms: C_19  and  C_20
REMARK                            x       y       z     vdW  Elec       q    Type
REMARK                         _______ _______ _______ _____ _____    ______ ____
ROOT
ATOM      1  O   UNL     1      -8.428  -3.428 127.074  0.00  0.00    +0.000 OA
ENDROOT
BRANCH   1   5
ATOM      2  C   UNL     1      -5.612  -1.935 129.998  0.00  0.00    +0.000 A 
ATOM      3  C   UNL     1      -5.650  -1.322 128.747  0.00  0.00    +0.000 A 
ATOM      4  C   UNL     1      -6.616  -1.752 127.804  0.00  0.00    +0.000 A 
ATOM      5  C   UNL     1      -7.518  -2.829 128.110  0.00  0.00    +0.000 A 
ATOM      6  C   UNL     1      -7.303  -3.537 129.276  0.00  0.00    +0.000 A 
ATOM      7  C   UNL     1      -6.382  -3.079 130.212  0.00  0.00    +0.000 A 
BRANCH   2  11
ATOM      8  C   UNL     1      -3.056  -1.220 132.669  0.00  0.00    +0.000 C 
ATOM      9  C   UNL     1      -3.586  -1.711 131.354  0.00  0.00    +0.000 C 
ATOM     10  O   UNL     1      -2.847  -2.335 130.595  0.00  0.00    +0.000 OA
ATOM     11  N   UNL     1      -4.899  -1.371 131.077  0.00  0.00    +0.000 N 
ATOM     12  H   UNL     1      -5.419  -0.772 131.708  0.00  0.00    +0.000 HD
ENDBRANCH   2  11
ENDBRANCH   1   5
BRANCH   1  13
ATOM     13  C   UNL     1      -8.896  -2.763 125.878  0.00  0.00    +0.000 C 
ATOM     14  O   UNL     1     -10.080  -2.517 125.642  0.00  0.00    +0.000 OA
BRANCH  13  15
ATOM     15  C   UNL     1      -7.902  -2.568 124.698  0.00  0.00    +0.000 A 
ATOM     16  C   UNL     1      -6.945  -3.601 124.710  0.00  0.00    +0.000 A 
ATOM     17  C   UNL     1      -5.793  -3.560 123.913  0.00  0.00    +0.000 A 
ATOM     18  C   UNL     1      -5.574  -2.507 123.029  0.00  0.00    +0.000 A 
ATOM     19  C   UNL     1      -6.451  -1.430 123.009  0.00  0.00    +0.000 A 
ATOM     20  C   UNL     1      -7.592  -1.431 123.845  0.00  0.00    +0.000 A 
BRANCH  20  21
ATOM     21  O   UNL     1      -8.267  -0.114 123.665  0.00  0.00    +0.000 OA
BRANCH  21  22
ATOM     22  C   UNL     1      -9.440   0.375 123.017  0.00  0.00    +0.000 C 
ATOM     23  C   UNL     1      -9.443   1.806 123.187  0.00  0.00    +0.000 C 
ATOM     24  O   UNL     1     -10.389  -0.246 122.626  0.00  0.00    +0.000 OA
ENDBRANCH  21  22
ENDBRANCH  20  21
ENDBRANCH  13  15
ENDBRANCH   1  13
TORSDOF 6
ENDMDL
MODEL 9
REMARK VINA RESULT:      -6.5      1.577      1.921
REMARK  Name = Benorilate
REMARK  8 active torsions:
REMARK  status: ('A' for Active; 'I' for Inactive)
REMARK    1  A    between atoms: C_1  and  C_2
REMARK    2  A    between atoms: N_4  and  C_5
REMARK    3  A    between atoms: C_8  and  O_9
REMARK    4  A    between atoms: O_9  and  C_10
REMARK    5  A    between atoms: C_10  and  C_12
REMARK    6  A    between atoms: C_17  and  O_18
REMARK    7  A    between atoms: O_18  and  C_19
REMARK    8  A    between atoms: C_19  and  C_20
REMARK                            x       y       z     vdW  Elec       q    Type
REMARK                         _______ _______ _______ _____ _____    ______ ____
ROOT
ATOM      1  O   UNL     1      -8.130   5.775 130.181  0.00  0.00    +0.000 OA
ENDROOT
BRANCH   1   5
ATOM      2  C   UNL     1      -6.817   1.839 131.400  0.00  0.00    +0.000 A 
ATOM      3  C   UNL     1      -5.847   2.788 131.084  0.00  0.00    +0.000 A 
ATOM      4  C   UNL     1      -6.259   4.103 130.753  0.00  0.00    +0.000 A 
ATOM      5  C   UNL     1      -7.654   4.448 130.702  0.00  0.00    +0.000 A 
ATOM      6  C   UNL     1      -8.575   3.426 130.819  0.00  0.00    +0.000 A 
ATOM      7  C   UNL     1      -8.160   2.150 131.186  0.00  0.00    +0.000 A 
BRANCH   2  11
ATOM      8  C   UNL     1      -5.758  -0.788 133.882  0.00  0.00    +0.000 C 
ATOM      9  C   UNL     1      -6.360   0.497 133.396  0.00  0.00    +0.000 C 
ATOM     10  O   UNL     1      -6.739   1.337 134.211  0.00  0.00    +0.000 OA
ATOM     11  N   UNL     1      -6.482   0.618 132.023  0.00  0.00    +0.000 N 
ATOM     12  H   UNL     1      -6.235  -0.155 131.415  0.00  0.00    +0.000 HD
ENDBRANCH   2  11
ENDBRANCH   1   5
BRANCH   1  13
ATOM     13  C   UNL     1      -9.276   5.982 129.322  0.00  0.00    +0.000 C 
ATOM     14  O   UNL     1      -9.302   5.693 128.124  0.00  0.00    +0.000 OA
BRANCH  13  15
ATOM     15  C   UNL     1     -10.456   6.845 129.850  0.00  0.00    +0.000 A 
ATOM     16  C   UNL     1     -10.860   6.371 131.114  0.00  0.00    +0.000 A 
ATOM     17  C   UNL     1     -12.045   6.800 131.727  0.00  0.00    +0.000 A 
ATOM     18  C   UNL     1     -12.851   7.764 131.127  0.00  0.00    +0.000 A 
ATOM     19  C   UNL     1     -12.537   8.231 129.857  0.00  0.00    +0.000 A 
ATOM     20  C   UNL     1     -11.373   7.769 129.201  0.00  0.00    +0.000 A 
BRANCH  20  21
ATOM     21  O   UNL     1     -11.371   8.373 127.837  0.00  0.00    +0.000 OA
BRANCH  21  22
ATOM     22  C   UNL     1     -11.483   7.908 126.493  0.00  0.00    +0.000 C 
ATOM     23  C   UNL     1     -12.577   6.971 126.467  0.00  0.00    +0.000 C 
ATOM     24  O   UNL     1     -10.699   8.035 125.594  0.00  0.00    +0.000 OA
ENDBRANCH  21  22
ENDBRANCH  20  21
ENDBRANCH  13  15
ENDBRANCH   1  13
TORSDOF 6
ENDMDL
