MODEL 1
REMARK VINA RESULT:      -8.7      0.000      0.000
REMARK  Name = Benperidol
REMARK  7 active torsions:
REMARK  status: ('A' for Active; 'I' for Inactive)
REMARK    1  A    between atoms: O_1  and  C_2
REMARK    2  A    between atoms: N_10  and  C_11
REMARK    3  A    between atoms: N_14  and  C_15
REMARK    4  A    between atoms: C_15  and  C_16
REMARK    5  A    between atoms: C_16  and  C_17
REMARK    6  A    between atoms: C_17  and  C_18
REMARK    7  A    between atoms: C_18  and  C_20
REMARK                            x       y       z     vdW  Elec       q    Type
REMARK                         _______ _______ _______ _____ _____    ______ ____
ROOT
ATOM      1  C   UNL     1      -8.705   6.241 130.762  0.00  0.00    +0.000 C 
ATOM      2  C   UNL     1      -8.304   5.161 129.731  0.00  0.00    +0.000 C 
ATOM      3  C   UNL     1      -6.932   4.608 130.223  0.00  0.00    +0.000 C 
ATOM      4  N   UNL     1      -5.914   5.676 130.311  0.00  0.00    +0.000 NA
ATOM      5  C   UNL     1      -6.348   6.749 131.221  0.00  0.00    +0.000 C 
ATOM      6  C   UNL     1      -7.663   7.346 130.780  0.00  0.00    +0.000 C 
ENDROOT
BRANCH   1  15
ATOM      7  C   UNL     1     -10.987   6.242 131.884  0.00  0.00    +0.000 A 
ATOM      8  N   UNL     1     -12.223   6.521 131.547  0.00  0.00    +0.000 NA
ATOM      9  C   UNL     1     -12.122   7.202 130.351  0.00  0.00    +0.000 A 
ATOM     10  C   UNL     1     -13.112   7.757 129.516  0.00  0.00    +0.000 A 
ATOM     11  C   UNL     1     -12.727   8.380 128.315  0.00  0.00    +0.000 A 
ATOM     12  C   UNL     1     -11.391   8.412 127.922  0.00  0.00    +0.000 A 
ATOM     13  C   UNL     1     -10.401   7.861 128.731  0.00  0.00    +0.000 A 
ATOM     14  C   UNL     1     -10.791   7.307 129.959  0.00  0.00    +0.000 A 
ATOM     15  N   UNL     1     -10.060   6.715 130.984  0.00  0.00    +0.000 N 
BRANCH   7  16
ATOM     16  O   UNL     1     -10.693   5.506 132.940  0.00  0.00    +0.000 OA
ATOM     17  H   UNL     1     -10.355   4.678 132.550  0.00  0.00    +0.000 HD
ENDBRANCH   7  16
ENDBRANCH   1  15
BRANCH   4  18
ATOM     18  C   UNL     1      -4.612   5.141 130.752  0.00  0.00    +0.000 C 
BRANCH  18  19
ATOM     19  C   UNL     1      -3.528   6.227 130.752  0.00  0.00    +0.000 C 
BRANCH  19  20
ATOM     20  C   UNL     1      -2.292   5.821 129.963  0.00  0.00    +0.000 C 
BRANCH  20  21
ATOM     21  C   UNL     1      -2.487   6.121 128.487  0.00  0.00    +0.000 C 
ATOM     22  O   UNL     1      -2.093   7.158 127.941  0.00  0.00    +0.000 OA
BRANCH  21  23
ATOM     23  C   UNL     1      -3.081   5.064 127.644  0.00  0.00    +0.000 A 
ATOM     24  C   UNL     1      -4.361   5.204 127.097  0.00  0.00    +0.000 A 
ATOM     25  C   UNL     1      -4.956   4.113 126.464  0.00  0.00    +0.000 A 
ATOM     26  C   UNL     1      -4.232   2.935 126.295  0.00  0.00    +0.000 A 
ATOM     27  F   UNL     1      -4.818   1.880 125.718  0.00  0.00    +0.000 F 
ATOM     28  C   UNL     1      -2.913   2.836 126.725  0.00  0.00    +0.000 A 
ATOM     29  C   UNL     1      -2.346   3.890 127.437  0.00  0.00    +0.000 A 
ENDBRANCH  21  23
ENDBRANCH  20  21
ENDBRANCH  19  20
ENDBRANCH  18  19
ENDBRANCH   4  18
TORSDOF 7
ENDMDL
MODEL 2
REMARK VINA RESULT:      -8.6      2.532      3.827
REMARK  Name = Benperidol
REMARK  7 active torsions:
REMARK  status: ('A' for Active; 'I' for Inactive)
REMARK    1  A    between atoms: O_1  and  C_2
REMARK    2  A    between atoms: N_10  and  C_11
REMARK    3  A    between atoms: N_14  and  C_15
REMARK    4  A    between atoms: C_15  and  C_16
REMARK    5  A    between atoms: C_16  and  C_17
REMARK    6  A    between atoms: C_17  and  C_18
REMARK    7  A    between atoms: C_18  and  C_20
REMARK                            x       y       z     vdW  Elec       q    Type
REMARK                         _______ _______ _______ _____ _____    ______ ____
ROOT
ATOM      1  C   UNL     1      -8.865   5.941 130.616  0.00  0.00    +0.000 C 
ATOM      2  C   UNL     1      -7.603   5.957 131.509  0.00  0.00    +0.000 C 
ATOM      3  C   UNL     1      -6.422   5.584 130.564  0.00  0.00    +0.000 C 
ATOM      4  N   UNL     1      -6.623   4.260 129.938  0.00  0.00    +0.000 NA
ATOM      5  C   UNL     1      -7.877   4.222 129.168  0.00  0.00    +0.000 C 
ATOM      6  C   UNL     1      -9.067   4.551 130.038  0.00  0.00    +0.000 C 
ENDROOT
BRANCH   1  15
ATOM      7  C   UNL     1     -11.041   6.314 131.877  0.00  0.00    +0.000 A 
ATOM      8  N   UNL     1     -12.232   6.797 131.618  0.00  0.00    +0.000 NA
ATOM      9  C   UNL     1     -12.094   7.458 130.414  0.00  0.00    +0.000 A 
ATOM     10  C   UNL     1     -13.028   8.175 129.640  0.00  0.00    +0.000 A 
ATOM     11  C   UNL     1     -12.620   8.732 128.414  0.00  0.00    +0.000 A 
ATOM     12  C   UNL     1     -11.325   8.544 127.939  0.00  0.00    +0.000 A 
ATOM     13  C   UNL     1     -10.392   7.831 128.687  0.00  0.00    +0.000 A 
ATOM     14  C   UNL     1     -10.791   7.343 129.940  0.00  0.00    +0.000 A 
ATOM     15  N   UNL     1     -10.106   6.632 130.919  0.00  0.00    +0.000 N 
BRANCH   7  16
ATOM     16  O   UNL     1     -10.808   5.533 132.917  0.00  0.00    +0.000 OA
ATOM     17  H   UNL     1     -11.344   4.741 132.727  0.00  0.00    +0.000 HD
ENDBRANCH   7  16
ENDBRANCH   1  15
BRANCH   4  18
ATOM     18  C   UNL     1      -5.489   3.901 129.065  0.00  0.00    +0.000 C 
BRANCH  18  19
ATOM     19  C   UNL     1      -4.143   4.196 129.740  0.00  0.00    +0.000 C 
BRANCH  19  20
ATOM     20  C   UNL     1      -3.199   4.982 128.844  0.00  0.00    +0.000 C 
BRANCH  20  21
ATOM     21  C   UNL     1      -3.262   6.462 129.182  0.00  0.00    +0.000 C 
ATOM     22  O   UNL     1      -3.845   7.300 128.484  0.00  0.00    +0.000 OA
BRANCH  21  23
ATOM     23  C   UNL     1      -2.690   6.896 130.472  0.00  0.00    +0.000 A 
ATOM     24  C   UNL     1      -3.341   7.840 131.275  0.00  0.00    +0.000 A 
ATOM     25  C   UNL     1      -2.683   8.358 132.390  0.00  0.00    +0.000 A 
ATOM     26  C   UNL     1      -1.433   7.858 132.747  0.00  0.00    +0.000 A 
ATOM     27  F   UNL     1      -0.790   8.382 133.797  0.00  0.00    +0.000 F 
ATOM     28  C   UNL     1      -0.839   6.829 132.024  0.00  0.00    +0.000 A 
ATOM     29  C   UNL     1      -1.451   6.372 130.859  0.00  0.00    +0.000 A 
ENDBRANCH  21  23
ENDBRANCH  20  21
ENDBRANCH  19  20
ENDBRANCH  18  19
ENDBRANCH   4  18
TORSDOF 7
ENDMDL
MODEL 3
REMARK VINA RESULT:      -8.5      3.372      4.767
REMARK  Name = Benperidol
REMARK  7 active torsions:
REMARK  status: ('A' for Active; 'I' for Inactive)
REMARK    1  A    between atoms: O_1  and  C_2
REMARK    2  A    between atoms: N_10  and  C_11
REMARK    3  A    between atoms: N_14  and  C_15
REMARK    4  A    between atoms: C_15  and  C_16
REMARK    5  A    between atoms: C_16  and  C_17
REMARK    6  A    between atoms: C_17  and  C_18
REMARK    7  A    between atoms: C_18  and  C_20
REMARK                            x       y       z     vdW  Elec       q    Type
REMARK                         _______ _______ _______ _____ _____    ______ ____
ROOT
ATOM      1  C   UNL     1      -8.850   6.011 130.883  0.00  0.00    +0.000 C 
ATOM      2  C   UNL     1      -8.505   4.991 129.774  0.00  0.00    +0.000 C 
ATOM      3  C   UNL     1      -7.307   4.164 130.330  0.00  0.00    +0.000 C 
ATOM      4  N   UNL     1      -6.150   5.028 130.649  0.00  0.00    +0.000 NA
ATOM      5  C   UNL     1      -6.514   6.059 131.635  0.00  0.00    +0.000 C 
ATOM      6  C   UNL     1      -7.657   6.914 131.140  0.00  0.00    +0.000 C 
ENDROOT
BRANCH   1  15
ATOM      7  C   UNL     1     -11.153   6.388 131.895  0.00  0.00    +0.000 A 
ATOM      8  N   UNL     1     -12.320   6.828 131.491  0.00  0.00    +0.000 NA
ATOM      9  C   UNL     1     -12.071   7.435 130.277  0.00  0.00    +0.000 A 
ATOM     10  C   UNL     1     -12.934   8.091 129.377  0.00  0.00    +0.000 A 
ATOM     11  C   UNL     1     -12.413   8.601 128.174  0.00  0.00    +0.000 A 
ATOM     12  C   UNL     1     -11.072   8.423 127.844  0.00  0.00    +0.000 A 
ATOM     13  C   UNL     1     -10.207   7.771 128.717  0.00  0.00    +0.000 A 
ATOM     14  C   UNL     1     -10.724   7.331 129.945  0.00  0.00    +0.000 A 
ATOM     15  N   UNL     1     -10.130   6.684 131.023  0.00  0.00    +0.000 N 
BRANCH   7  16
ATOM     16  O   UNL     1     -11.013   5.663 132.990  0.00  0.00    +0.000 OA
ATOM     17  H   UNL     1     -10.234   6.057 133.424  0.00  0.00    +0.000 HD
ENDBRANCH   7  16
ENDBRANCH   1  15
BRANCH   4  18
ATOM     18  C   UNL     1      -5.011   4.236 131.151  0.00  0.00    +0.000 C 
BRANCH  18  19
ATOM     19  C   UNL     1      -4.640   4.629 132.587  0.00  0.00    +0.000 C 
BRANCH  19  20
ATOM     20  C   UNL     1      -4.519   3.426 133.510  0.00  0.00    +0.000 C 
BRANCH  20  21
ATOM     21  C   UNL     1      -5.737   3.329 134.412  0.00  0.00    +0.000 C 
ATOM     22  O   UNL     1      -5.771   3.767 135.568  0.00  0.00    +0.000 OA
BRANCH  21  23
ATOM     23  C   UNL     1      -6.980   2.782 133.830  0.00  0.00    +0.000 A 
ATOM     24  C   UNL     1      -6.984   1.567 133.137  0.00  0.00    +0.000 A 
ATOM     25  C   UNL     1      -8.133   1.177 132.448  0.00  0.00    +0.000 A 
ATOM     26  C   UNL     1      -9.288   1.950 132.543  0.00  0.00    +0.000 A 
ATOM     27  F   UNL     1     -10.377   1.590 131.853  0.00  0.00    +0.000 F 
ATOM     28  C   UNL     1      -9.324   3.091 133.336  0.00  0.00    +0.000 A 
ATOM     29  C   UNL     1      -8.156   3.532 133.952  0.00  0.00    +0.000 A 
ENDBRANCH  21  23
ENDBRANCH  20  21
ENDBRANCH  19  20
ENDBRANCH  18  19
ENDBRANCH   4  18
TORSDOF 7
ENDMDL
MODEL 4
REMARK VINA RESULT:      -8.3      5.395      9.483
REMARK  Name = Benperidol
REMARK  7 active torsions:
REMARK  status: ('A' for Active; 'I' for Inactive)
REMARK    1  A    between atoms: O_1  and  C_2
REMARK    2  A    between atoms: N_10  and  C_11
REMARK    3  A    between atoms: N_14  and  C_15
REMARK    4  A    between atoms: C_15  and  C_16
REMARK    5  A    between atoms: C_16  and  C_17
REMARK    6  A    between atoms: C_17  and  C_18
REMARK    7  A    between atoms: C_18  and  C_20
REMARK                            x       y       z     vdW  Elec       q    Type
REMARK                         _______ _______ _______ _____ _____    ______ ____
ROOT
ATOM      1  C   UNL     1      -8.236   1.589 125.370  0.00  0.00    +0.000 C 
ATOM      2  C   UNL     1      -8.385   3.108 125.125  0.00  0.00    +0.000 C 
ATOM      3  C   UNL     1      -7.684   3.794 126.336  0.00  0.00    +0.000 C 
ATOM      4  N   UNL     1      -8.297   3.391 127.619  0.00  0.00    +0.000 NA
ATOM      5  C   UNL     1      -8.238   1.932 127.801  0.00  0.00    +0.000 C 
ATOM      6  C   UNL     1      -8.926   1.208 126.668  0.00  0.00    +0.000 C 
ENDROOT
BRANCH   1  15
ATOM      7  C   UNL     1      -9.448   0.145 123.663  0.00  0.00    +0.000 A 
ATOM      8  N   UNL     1      -9.326  -1.062 123.165  0.00  0.00    +0.000 NA
ATOM      9  C   UNL     1      -8.065  -1.477 123.542  0.00  0.00    +0.000 A 
ATOM     10  C   UNL     1      -7.375  -2.680 123.295  0.00  0.00    +0.000 A 
ATOM     11  C   UNL     1      -6.089  -2.858 123.835  0.00  0.00    +0.000 A 
ATOM     12  C   UNL     1      -5.513  -1.882 124.645  0.00  0.00    +0.000 A 
ATOM     13  C   UNL     1      -6.183  -0.691 124.906  0.00  0.00    +0.000 A 
ATOM     14  C   UNL     1      -7.435  -0.497 124.303  0.00  0.00    +0.000 A 
ATOM     15  N   UNL     1      -8.328   0.568 124.341  0.00  0.00    +0.000 N 
BRANCH   7  16
ATOM     16  O   UNL     1     -10.574   0.831 123.583  0.00  0.00    +0.000 OA
ATOM     17  H   UNL     1     -10.891   0.852 124.504  0.00  0.00    +0.000 HD
ENDBRANCH   7  16
ENDBRANCH   1  15
BRANCH   4  18
ATOM     18  C   UNL     1      -7.646   4.064 128.759  0.00  0.00    +0.000 C 
BRANCH  18  19
ATOM     19  C   UNL     1      -8.462   3.904 130.049  0.00  0.00    +0.000 C 
BRANCH  19  20
ATOM     20  C   UNL     1      -9.169   5.188 130.458  0.00  0.00    +0.000 C 
BRANCH  20  21
ATOM     21  C   UNL     1     -10.655   5.088 130.163  0.00  0.00    +0.000 C 
ATOM     22  O   UNL     1     -11.275   4.019 130.122  0.00  0.00    +0.000 OA
BRANCH  21  23
ATOM     23  C   UNL     1     -11.415   6.348 130.031  0.00  0.00    +0.000 A 
ATOM     24  C   UNL     1     -11.291   7.155 128.895  0.00  0.00    +0.000 A 
ATOM     25  C   UNL     1     -11.881   8.420 128.889  0.00  0.00    +0.000 A 
ATOM     26  C   UNL     1     -12.666   8.819 129.968  0.00  0.00    +0.000 A 
ATOM     27  F   UNL     1     -13.201  10.046 129.973  0.00  0.00    +0.000 F 
ATOM     28  C   UNL     1     -12.896   7.967 131.042  0.00  0.00    +0.000 A 
ATOM     29  C   UNL     1     -12.237   6.741 131.094  0.00  0.00    +0.000 A 
ENDBRANCH  21  23
ENDBRANCH  20  21
ENDBRANCH  19  20
ENDBRANCH  18  19
ENDBRANCH   4  18
TORSDOF 7
ENDMDL
MODEL 5
REMARK VINA RESULT:      -8.2      2.763      3.706
REMARK  Name = Benperidol
REMARK  7 active torsions:
REMARK  status: ('A' for Active; 'I' for Inactive)
REMARK    1  A    between atoms: O_1  and  C_2
REMARK    2  A    between atoms: N_10  and  C_11
REMARK    3  A    between atoms: N_14  and  C_15
REMARK    4  A    between atoms: C_15  and  C_16
REMARK    5  A    between atoms: C_16  and  C_17
REMARK    6  A    between atoms: C_17  and  C_18
REMARK    7  A    between atoms: C_18  and  C_20
REMARK                            x       y       z     vdW  Elec       q    Type
REMARK                         _______ _______ _______ _____ _____    ______ ____
ROOT
ATOM      1  C   UNL     1      -8.860   5.396 130.241  0.00  0.00    +0.000 C 
ATOM      2  C   UNL     1      -7.372   5.456 130.657  0.00  0.00    +0.000 C 
ATOM      3  C   UNL     1      -6.589   4.780 129.492  0.00  0.00    +0.000 C 
ATOM      4  N   UNL     1      -7.033   3.387 129.273  0.00  0.00    +0.000 NA
ATOM      5  C   UNL     1      -8.473   3.330 128.973  0.00  0.00    +0.000 C 
ATOM      6  C   UNL     1      -9.291   3.949 130.082  0.00  0.00    +0.000 C 
ENDROOT
BRANCH   1  15
ATOM      7  C   UNL     1     -10.694   6.060 131.873  0.00  0.00    +0.000 A 
ATOM      8  N   UNL     1     -11.821   6.729 131.832  0.00  0.00    +0.000 NA
ATOM      9  C   UNL     1     -11.794   7.399 130.626  0.00  0.00    +0.000 A 
ATOM     10  C   UNL     1     -12.725   8.276 130.034  0.00  0.00    +0.000 A 
ATOM     11  C   UNL     1     -12.456   8.803 128.757  0.00  0.00    +0.000 A 
ATOM     12  C   UNL     1     -11.311   8.431 128.057  0.00  0.00    +0.000 A 
ATOM     13  C   UNL     1     -10.385   7.560 128.624  0.00  0.00    +0.000 A 
ATOM     14  C   UNL     1     -10.629   7.099 129.926  0.00  0.00    +0.000 A 
ATOM     15  N   UNL     1      -9.904   6.260 130.764  0.00  0.00    +0.000 N 
BRANCH   7  16
ATOM     16  O   UNL     1     -10.408   5.220 132.851  0.00  0.00    +0.000 OA
ATOM     17  H   UNL     1     -11.156   4.594 132.836  0.00  0.00    +0.000 HD
ENDBRANCH   7  16
ENDBRANCH   1  15
BRANCH   4  18
ATOM     18  C   UNL     1      -6.269   2.745 128.187  0.00  0.00    +0.000 C 
BRANCH  18  19
ATOM     19  C   UNL     1      -5.246   3.708 127.572  0.00  0.00    +0.000 C 
BRANCH  19  20
ATOM     20  C   UNL     1      -5.007   3.443 126.093  0.00  0.00    +0.000 C 
BRANCH  20  21
ATOM     21  C   UNL     1      -5.799   4.426 125.247  0.00  0.00    +0.000 C 
ATOM     22  O   UNL     1      -6.198   5.521 125.662  0.00  0.00    +0.000 OA
BRANCH  21  23
ATOM     23  C   UNL     1      -6.003   4.097 123.822  0.00  0.00    +0.000 A 
ATOM     24  C   UNL     1      -5.069   4.471 122.849  0.00  0.00    +0.000 A 
ATOM     25  C   UNL     1      -5.384   4.306 121.501  0.00  0.00    +0.000 A 
ATOM     26  C   UNL     1      -6.576   3.680 121.144  0.00  0.00    +0.000 A 
ATOM     27  F   UNL     1      -6.890   3.554 119.849  0.00  0.00    +0.000 F 
ATOM     28  C   UNL     1      -7.447   3.191 122.111  0.00  0.00    +0.000 A 
ATOM     29  C   UNL     1      -7.180   3.434 123.456  0.00  0.00    +0.000 A 
ENDBRANCH  21  23
ENDBRANCH  20  21
ENDBRANCH  19  20
ENDBRANCH  18  19
ENDBRANCH   4  18
TORSDOF 7
ENDMDL
MODEL 6
REMARK VINA RESULT:      -8.1      2.097      2.886
REMARK  Name = Benperidol
REMARK  7 active torsions:
REMARK  status: ('A' for Active; 'I' for Inactive)
REMARK    1  A    between atoms: O_1  and  C_2
REMARK    2  A    between atoms: N_10  and  C_11
REMARK    3  A    between atoms: N_14  and  C_15
REMARK    4  A    between atoms: C_15  and  C_16
REMARK    5  A    between atoms: C_16  and  C_17
REMARK    6  A    between atoms: C_17  and  C_18
REMARK    7  A    between atoms: C_18  and  C_20
REMARK                            x       y       z     vdW  Elec       q    Type
REMARK                         _______ _______ _______ _____ _____    ______ ____
ROOT
ATOM      1  C   UNL     1      -8.469   6.137 130.831  0.00  0.00    +0.000 C 
ATOM      2  C   UNL     1      -7.232   6.331 131.738  0.00  0.00    +0.000 C 
ATOM      3  C   UNL     1      -5.999   6.141 130.804  0.00  0.00    +0.000 C 
ATOM      4  N   UNL     1      -5.999   4.806 130.167  0.00  0.00    +0.000 NA
ATOM      5  C   UNL     1      -7.226   4.592 129.383  0.00  0.00    +0.000 C 
ATOM      6  C   UNL     1      -8.460   4.737 130.242  0.00  0.00    +0.000 C 
ENDROOT
BRANCH   1  15
ATOM      7  C   UNL     1     -10.715   6.138 132.023  0.00  0.00    +0.000 A 
ATOM      8  N   UNL     1     -11.951   6.475 131.745  0.00  0.00    +0.000 NA
ATOM      9  C   UNL     1     -11.864   7.226 130.590  0.00  0.00    +0.000 A 
ATOM     10  C   UNL     1     -12.860   7.863 129.824  0.00  0.00    +0.000 A 
ATOM     11  C   UNL     1     -12.491   8.548 128.651  0.00  0.00    +0.000 A 
ATOM     12  C   UNL     1     -11.167   8.563 128.219  0.00  0.00    +0.000 A 
ATOM     13  C   UNL     1     -10.172   7.933 128.959  0.00  0.00    +0.000 A 
ATOM     14  C   UNL     1     -10.542   7.315 130.163  0.00  0.00    +0.000 A 
ATOM     15  N   UNL     1      -9.801   6.637 131.124  0.00  0.00    +0.000 N 
BRANCH   7  16
ATOM     16  O   UNL     1     -10.413   5.327 133.021  0.00  0.00    +0.000 OA
ATOM     17  H   UNL     1     -10.604   5.864 133.813  0.00  0.00    +0.000 HD
ENDBRANCH   7  16
ENDBRANCH   1  15
BRANCH   4  18
ATOM     18  C   UNL     1      -4.816   4.623 129.305  0.00  0.00    +0.000 C 
BRANCH  18  19
ATOM     19  C   UNL     1      -4.263   3.195 129.403  0.00  0.00    +0.000 C 
BRANCH  19  20
ATOM     20  C   UNL     1      -3.910   2.610 128.044  0.00  0.00    +0.000 C 
BRANCH  20  21
ATOM     21  C   UNL     1      -5.147   2.028 127.382  0.00  0.00    +0.000 C 
ATOM     22  O   UNL     1      -5.878   1.186 127.917  0.00  0.00    +0.000 OA
BRANCH  21  23
ATOM     23  C   UNL     1      -5.555   2.587 126.077  0.00  0.00    +0.000 A 
ATOM     24  C   UNL     1      -6.426   1.893 125.230  0.00  0.00    +0.000 A 
ATOM     25  C   UNL     1      -6.639   2.366 123.935  0.00  0.00    +0.000 A 
ATOM     26  C   UNL     1      -6.067   3.571 123.539  0.00  0.00    +0.000 A 
ATOM     27  F   UNL     1      -6.246   4.004 122.285  0.00  0.00    +0.000 F 
ATOM     28  C   UNL     1      -5.304   4.328 124.421  0.00  0.00    +0.000 A 
ATOM     29  C   UNL     1      -5.014   3.817 125.684  0.00  0.00    +0.000 A 
ENDBRANCH  21  23
ENDBRANCH  20  21
ENDBRANCH  19  20
ENDBRANCH  18  19
ENDBRANCH   4  18
TORSDOF 7
ENDMDL
MODEL 7
REMARK VINA RESULT:      -8.0      5.262      9.313
REMARK  Name = Benperidol
REMARK  7 active torsions:
REMARK  status: ('A' for Active; 'I' for Inactive)
REMARK    1  A    between atoms: O_1  and  C_2
REMARK    2  A    between atoms: N_10  and  C_11
REMARK    3  A    between atoms: N_14  and  C_15
REMARK    4  A    between atoms: C_15  and  C_16
REMARK    5  A    between atoms: C_16  and  C_17
REMARK    6  A    between atoms: C_17  and  C_18
REMARK    7  A    between atoms: C_18  and  C_20
REMARK                            x       y       z     vdW  Elec       q    Type
REMARK                         _______ _______ _______ _____ _____    ______ ____
ROOT
ATOM      1  C   UNL     1      -7.371   0.153 127.701  0.00  0.00    +0.000 C 
ATOM      2  C   UNL     1      -8.521   1.126 127.351  0.00  0.00    +0.000 C 
ATOM      3  C   UNL     1      -8.459   2.247 128.431  0.00  0.00    +0.000 C 
ATOM      4  N   UNL     1      -8.612   1.698 129.795  0.00  0.00    +0.000 NA
ATOM      5  C   UNL     1      -7.571   0.700 130.086  0.00  0.00    +0.000 C 
ATOM      6  C   UNL     1      -7.597  -0.431 129.085  0.00  0.00    +0.000 C 
ENDROOT
BRANCH   1  15
ATOM      7  C   UNL     1      -5.614  -0.600 126.024  0.00  0.00    +0.000 A 
ATOM      8  N   UNL     1      -5.566  -1.367 124.962  0.00  0.00    +0.000 NA
ATOM      9  C   UNL     1      -6.745  -2.085 124.987  0.00  0.00    +0.000 A 
ATOM     10  C   UNL     1      -7.249  -3.067 124.111  0.00  0.00    +0.000 A 
ATOM     11  C   UNL     1      -8.517  -3.623 124.359  0.00  0.00    +0.000 A 
ATOM     12  C   UNL     1      -9.294  -3.182 125.428  0.00  0.00    +0.000 A 
ATOM     13  C   UNL     1      -8.815  -2.208 126.298  0.00  0.00    +0.000 A 
ATOM     14  C   UNL     1      -7.520  -1.713 126.082  0.00  0.00    +0.000 A 
ATOM     15  N   UNL     1      -6.757  -0.777 126.770  0.00  0.00    +0.000 N 
BRANCH   7  16
ATOM     16  O   UNL     1      -4.688   0.305 126.283  0.00  0.00    +0.000 OA
ATOM     17  H   UNL     1      -5.196   1.045 126.664  0.00  0.00    +0.000 HD
ENDBRANCH   7  16
ENDBRANCH   1  15
BRANCH   4  18
ATOM     18  C   UNL     1      -8.579   2.767 130.812  0.00  0.00    +0.000 C 
BRANCH  18  19
ATOM     19  C   UNL     1      -9.087   4.099 130.245  0.00  0.00    +0.000 C 
BRANCH  19  20
ATOM     20  C   UNL     1      -9.894   4.897 131.258  0.00  0.00    +0.000 C 
BRANCH  20  21
ATOM     21  C   UNL     1      -9.659   6.385 131.064  0.00  0.00    +0.000 C 
ATOM     22  O   UNL     1      -8.652   6.978 131.468  0.00  0.00    +0.000 OA
BRANCH  21  23
ATOM     23  C   UNL     1     -10.638   7.134 130.250  0.00  0.00    +0.000 A 
ATOM     24  C   UNL     1     -10.267   7.747 129.049  0.00  0.00    +0.000 A 
ATOM     25  C   UNL     1     -11.170   8.595 128.407  0.00  0.00    +0.000 A 
ATOM     26  C   UNL     1     -12.458   8.740 128.914  0.00  0.00    +0.000 A 
ATOM     27  F   UNL     1     -13.310   9.581 128.315  0.00  0.00    +0.000 F 
ATOM     28  C   UNL     1     -12.871   8.032 130.037  0.00  0.00    +0.000 A 
ATOM     29  C   UNL     1     -11.947   7.255 130.732  0.00  0.00    +0.000 A 
ENDBRANCH  21  23
ENDBRANCH  20  21
ENDBRANCH  19  20
ENDBRANCH  18  19
ENDBRANCH   4  18
TORSDOF 7
ENDMDL
MODEL 8
REMARK VINA RESULT:      -8.0      4.351      5.398
REMARK  Name = Benperidol
REMARK  7 active torsions:
REMARK  status: ('A' for Active; 'I' for Inactive)
REMARK    1  A    between atoms: O_1  and  C_2
REMARK    2  A    between atoms: N_10  and  C_11
REMARK    3  A    between atoms: N_14  and  C_15
REMARK    4  A    between atoms: C_15  and  C_16
REMARK    5  A    between atoms: C_16  and  C_17
REMARK    6  A    between atoms: C_17  and  C_18
REMARK    7  A    between atoms: C_18  and  C_20
REMARK                            x       y       z     vdW  Elec       q    Type
REMARK                         _______ _______ _______ _____ _____    ______ ____
ROOT
ATOM      1  C   UNL     1      -9.001   5.276 130.309  0.00  0.00    +0.000 C 
ATOM      2  C   UNL     1      -7.526   5.270 130.772  0.00  0.00    +0.000 C 
ATOM      3  C   UNL     1      -6.749   4.484 129.674  0.00  0.00    +0.000 C 
ATOM      4  N   UNL     1      -7.271   3.110 129.516  0.00  0.00    +0.000 NA
ATOM      5  C   UNL     1      -8.702   3.122 129.170  0.00  0.00    +0.000 C 
ATOM      6  C   UNL     1      -9.514   3.850 130.214  0.00  0.00    +0.000 C 
ENDROOT
BRANCH   1  15
ATOM      7  C   UNL     1     -10.827   6.149 131.848  0.00  0.00    +0.000 A 
ATOM      8  N   UNL     1     -11.914   6.873 131.735  0.00  0.00    +0.000 NA
ATOM      9  C   UNL     1     -11.826   7.456 130.487  0.00  0.00    +0.000 A 
ATOM     10  C   UNL     1     -12.694   8.339 129.815  0.00  0.00    +0.000 A 
ATOM     11  C   UNL     1     -12.372   8.761 128.512  0.00  0.00    +0.000 A 
ATOM     12  C   UNL     1     -11.235   8.281 127.866  0.00  0.00    +0.000 A 
ATOM     13  C   UNL     1     -10.371   7.402 128.512  0.00  0.00    +0.000 A 
ATOM     14  C   UNL     1     -10.666   7.046 129.836  0.00  0.00    +0.000 A 
ATOM     15  N   UNL     1     -10.006   6.229 130.747  0.00  0.00    +0.000 N 
BRANCH   7  16
ATOM     16  O   UNL     1     -10.608   5.364 132.887  0.00  0.00    +0.000 OA
ATOM     17  H   UNL     1      -9.804   5.742 133.289  0.00  0.00    +0.000 HD
ENDBRANCH   7  16
ENDBRANCH   1  15
BRANCH   4  18
ATOM     18  C   UNL     1      -6.515   2.362 128.494  0.00  0.00    +0.000 C 
BRANCH  18  19
ATOM     19  C   UNL     1      -6.695   0.847 128.656  0.00  0.00    +0.000 C 
BRANCH  19  20
ATOM     20  C   UNL     1      -7.560   0.239 127.561  0.00  0.00    +0.000 C 
BRANCH  20  21
ATOM     21  C   UNL     1      -6.786  -0.832 126.812  0.00  0.00    +0.000 C 
ATOM     22  O   UNL     1      -5.582  -1.054 126.984  0.00  0.00    +0.000 OA
BRANCH  21  23
ATOM     23  C   UNL     1      -7.546  -1.725 125.914  0.00  0.00    +0.000 A 
ATOM     24  C   UNL     1      -7.104  -1.994 124.614  0.00  0.00    +0.000 A 
ATOM     25  C   UNL     1      -7.939  -2.691 123.740  0.00  0.00    +0.000 A 
ATOM     26  C   UNL     1      -9.152  -3.195 124.201  0.00  0.00    +0.000 A 
ATOM     27  F   UNL     1      -9.965  -3.833 123.350  0.00  0.00    +0.000 F 
ATOM     28  C   UNL     1      -9.535  -3.040 125.529  0.00  0.00    +0.000 A 
ATOM     29  C   UNL     1      -8.749  -2.269 126.380  0.00  0.00    +0.000 A 
ENDBRANCH  21  23
ENDBRANCH  20  21
ENDBRANCH  19  20
ENDBRANCH  18  19
ENDBRANCH   4  18
TORSDOF 7
ENDMDL
MODEL 9
REMARK VINA RESULT:      -7.9      4.281      8.314
REMARK  Name = Benperidol
REMARK  7 active torsions:
REMARK  status: ('A' for Active; 'I' for Inactive)
REMARK    1  A    between atoms: O_1  and  C_2
REMARK    2  A    between atoms: N_10  and  C_11
REMARK    3  A    between atoms: N_14  and  C_15
REMARK    4  A    between atoms: C_15  and  C_16
REMARK    5  A    between atoms: C_16  and  C_17
REMARK    6  A    between atoms: C_17  and  C_18
REMARK    7  A    between atoms: C_18  and  C_20
REMARK                            x       y       z     vdW  Elec       q    Type
REMARK                         _______ _______ _______ _____ _____    ______ ____
ROOT
ATOM      1  C   UNL     1      -7.627   2.650 127.192  0.00  0.00    +0.000 C 
ATOM      2  C   UNL     1      -7.566   4.165 127.498  0.00  0.00    +0.000 C 
ATOM      3  C   UNL     1      -7.166   4.268 129.000  0.00  0.00    +0.000 C 
ATOM      4  N   UNL     1      -8.142   3.580 129.872  0.00  0.00    +0.000 NA
ATOM      5  C   UNL     1      -8.266   2.159 129.510  0.00  0.00    +0.000 C 
ATOM      6  C   UNL     1      -8.679   1.992 128.067  0.00  0.00    +0.000 C 
ENDROOT
BRANCH   1  15
ATOM      7  C   UNL     1      -8.416   2.164 124.824  0.00  0.00    +0.000 A 
ATOM      8  N   UNL     1      -8.307   1.188 123.956  0.00  0.00    +0.000 NA
ATOM      9  C   UNL     1      -7.300   0.383 124.449  0.00  0.00    +0.000 A 
ATOM     10  C   UNL     1      -6.736  -0.807 123.947  0.00  0.00    +0.000 A 
ATOM     11  C   UNL     1      -5.725  -1.451 124.682  0.00  0.00    +0.000 A 
ATOM     12  C   UNL     1      -5.310  -0.955 125.915  0.00  0.00    +0.000 A 
ATOM     13  C   UNL     1      -5.862   0.215 126.430  0.00  0.00    +0.000 A 
ATOM     14  C   UNL     1      -6.818   0.887 125.654  0.00  0.00    +0.000 A 
ATOM     15  N   UNL     1      -7.523   2.066 125.866  0.00  0.00    +0.000 N 
BRANCH   7  16
ATOM     16  O   UNL     1      -9.354   3.089 124.730  0.00  0.00    +0.000 OA
ATOM     17  H   UNL     1      -9.196   3.483 123.852  0.00  0.00    +0.000 HD
ENDBRANCH   7  16
ENDBRANCH   1  15
BRANCH   4  18
ATOM     18  C   UNL     1      -7.772   3.704 131.295  0.00  0.00    +0.000 C 
BRANCH  18  19
ATOM     19  C   UNL     1      -7.811   5.165 131.761  0.00  0.00    +0.000 C 
BRANCH  19  20
ATOM     20  C   UNL     1      -9.186   5.795 131.599  0.00  0.00    +0.000 C 
BRANCH  20  21
ATOM     21  C   UNL     1      -9.120   6.963 130.630  0.00  0.00    +0.000 C 
ATOM     22  O   UNL     1      -8.071   7.546 130.330  0.00  0.00    +0.000 OA
BRANCH  21  23
ATOM     23  C   UNL     1     -10.362   7.344 129.927  0.00  0.00    +0.000 A 
ATOM     24  C   UNL     1     -10.326   8.018 128.702  0.00  0.00    +0.000 A 
ATOM     25  C   UNL     1     -11.511   8.521 128.163  0.00  0.00    +0.000 A 
ATOM     26  C   UNL     1     -12.721   8.257 128.799  0.00  0.00    +0.000 A 
ATOM     27  F   UNL     1     -13.852   8.770 128.298  0.00  0.00    +0.000 F 
ATOM     28  C   UNL     1     -12.774   7.478 129.949  0.00  0.00    +0.000 A 
ATOM     29  C   UNL     1     -11.587   7.051 130.539  0.00  0.00    +0.000 A 
ENDBRANCH  21  23
ENDBRANCH  20  21
ENDBRANCH  19  20
ENDBRANCH  18  19
ENDBRANCH   4  18
TORSDOF 7
ENDMDL
