MODEL 1
REMARK VINA RESULT:      -6.3      0.000      0.000
REMARK  Name = Benserazide
REMARK  10 active torsions:
REMARK  status: ('A' for Active; 'I' for Inactive)
REMARK    1  A    between atoms: N_1  and  CA_2
REMARK    2  A    between atoms: CA_2  and  C_3
REMARK    3  A    between atoms: CA_2  and  C_5
REMARK    4  A    between atoms: C_3  and  O_4
REMARK    5  A    between atoms: N_7  and  N_8
REMARK    6  A    between atoms: N_8  and  C_9
REMARK    7  A    between atoms: C_9  and  C_10
REMARK    8  A    between atoms: C_11  and  O_12
REMARK    9  A    between atoms: C_13  and  O_14
REMARK   10  A    between atoms: C_15  and  O_16
REMARK                            x       y       z     vdW  Elec       q    Type
REMARK                         _______ _______ _______ _____ _____    ______ ____
ROOT
ATOM      1  N   UNL     1     -12.018   6.108 131.640  0.00  0.00    +0.000 NA
ATOM      2  H   UNL     1     -12.906   5.901 132.109  0.00  0.00    +0.000 HD
ENDROOT
BRANCH   1   5
ATOM      3  C   UNL     1      -9.825   5.222 132.146  0.00  0.00    +0.000 C 
ATOM      4  O   UNL     1      -9.752   4.682 131.038  0.00  0.00    +0.000 OA
ATOM      5  N   UNL     1     -10.962   5.918 132.566  0.00  0.00    +0.000 N 
ATOM      6  H   UNL     1     -10.972   6.420 133.449  0.00  0.00    +0.000 HD
BRANCH   3   7
ATOM      7  CA  UNL     1      -8.689   5.141 133.198  0.00  0.00    +0.000 C 
BRANCH   7   8
ATOM      8  N   UNL     1      -8.862   6.183 134.240  0.00  0.00    +0.000 NA
ATOM      9  H1  UNL     1      -8.407   5.874 135.100  0.00  0.00    +0.000 HD
ATOM     10  H2  UNL     1      -9.859   6.231 134.471  0.00  0.00    +0.000 HD
ENDBRANCH   7   8
BRANCH   7  11
ATOM     11  C   UNL     1      -8.625   3.753 133.851  0.00  0.00    +0.000 C 
BRANCH  11  12
ATOM     12  O   UNL     1      -9.749   2.954 133.470  0.00  0.00    +0.000 OA
ATOM     13  H   UNL     1     -10.238   3.425 132.773  0.00  0.00    +0.000 HD
ENDBRANCH  11  12
ENDBRANCH   7  11
ENDBRANCH   3   7
ENDBRANCH   1   5
BRANCH   1  14
ATOM     14  C   UNL     1     -12.028   7.422 131.006  0.00  0.00    +0.000 C 
BRANCH  14  15
ATOM     15  C   UNL     1     -12.077   7.322 129.497  0.00  0.00    +0.000 A 
ATOM     16  C   UNL     1     -10.952   7.069 128.696  0.00  0.00    +0.000 A 
ATOM     17  C   UNL     1     -11.079   6.981 127.305  0.00  0.00    +0.000 A 
ATOM     18  C   UNL     1     -12.313   7.156 126.693  0.00  0.00    +0.000 A 
ATOM     19  C   UNL     1     -13.436   7.424 127.457  0.00  0.00    +0.000 A 
ATOM     20  C   UNL     1     -13.319   7.508 128.849  0.00  0.00    +0.000 A 
BRANCH  16  21
ATOM     21  O   UNL     1      -9.689   6.886 129.197  0.00  0.00    +0.000 OA
ATOM     22  H   UNL     1      -9.140   7.659 128.990  0.00  0.00    +0.000 HD
ENDBRANCH  16  21
BRANCH  17  23
ATOM     23  O   UNL     1      -9.991   6.719 126.511  0.00  0.00    +0.000 OA
ATOM     24  H   UNL     1      -9.374   6.227 127.089  0.00  0.00    +0.000 HD
ENDBRANCH  17  23
BRANCH  18  25
ATOM     25  O   UNL     1     -12.439   7.068 125.338  0.00  0.00    +0.000 OA
ATOM     26  H   UNL     1     -11.783   6.397 125.067  0.00  0.00    +0.000 HD
ENDBRANCH  18  25
ENDBRANCH  14  15
ENDBRANCH   1  14
TORSDOF 10
ENDMDL
MODEL 2
REMARK VINA RESULT:      -6.1      2.315      5.242
REMARK  Name = Benserazide
REMARK  10 active torsions:
REMARK  status: ('A' for Active; 'I' for Inactive)
REMARK    1  A    between atoms: N_1  and  CA_2
REMARK    2  A    between atoms: CA_2  and  C_3
REMARK    3  A    between atoms: CA_2  and  C_5
REMARK    4  A    between atoms: C_3  and  O_4
REMARK    5  A    between atoms: N_7  and  N_8
REMARK    6  A    between atoms: N_8  and  C_9
REMARK    7  A    between atoms: C_9  and  C_10
REMARK    8  A    between atoms: C_11  and  O_12
REMARK    9  A    between atoms: C_13  and  O_14
REMARK   10  A    between atoms: C_15  and  O_16
REMARK                            x       y       z     vdW  Elec       q    Type
REMARK                         _______ _______ _______ _____ _____    ______ ____
ROOT
ATOM      1  N   UNL     1     -12.342   6.495 131.545  0.00  0.00    +0.000 NA
ATOM      2  H   UNL     1     -12.720   5.644 131.113  0.00  0.00    +0.000 HD
ENDROOT
BRANCH   1   5
ATOM      3  C   UNL     1     -12.442   7.124 129.211  0.00  0.00    +0.000 C 
ATOM      4  O   UNL     1     -12.721   5.969 128.879  0.00  0.00    +0.000 OA
ATOM      5  N   UNL     1     -12.173   7.477 130.537  0.00  0.00    +0.000 N 
ATOM      6  H   UNL     1     -12.022   8.446 130.801  0.00  0.00    +0.000 HD
BRANCH   3   7
ATOM      7  CA  UNL     1     -12.315   8.286 128.193  0.00  0.00    +0.000 C 
BRANCH   7   8
ATOM      8  N   UNL     1     -12.677   9.579 128.822  0.00  0.00    +0.000 NA
ATOM      9  H1  UNL     1     -13.053  10.204 128.108  0.00  0.00    +0.000 HD
ATOM     10  H2  UNL     1     -11.811  10.027 129.136  0.00  0.00    +0.000 HD
ENDBRANCH   7   8
BRANCH   7  11
ATOM     11  C   UNL     1     -10.898   8.367 127.607  0.00  0.00    +0.000 C 
BRANCH  11  12
ATOM     12  O   UNL     1     -10.038   7.392 128.205  0.00  0.00    +0.000 OA
ATOM     13  H   UNL     1      -9.682   7.763 129.031  0.00  0.00    +0.000 HD
ENDBRANCH  11  12
ENDBRANCH   7  11
ENDBRANCH   3   7
ENDBRANCH   1   5
BRANCH   1  14
ATOM     14  C   UNL     1     -11.136   6.223 132.321  0.00  0.00    +0.000 C 
BRANCH  14  15
ATOM     15  C   UNL     1      -9.987   5.775 131.445  0.00  0.00    +0.000 A 
ATOM     16  C   UNL     1     -10.058   4.683 130.564  0.00  0.00    +0.000 A 
ATOM     17  C   UNL     1      -8.954   4.336 129.778  0.00  0.00    +0.000 A 
ATOM     18  C   UNL     1      -7.769   5.054 129.863  0.00  0.00    +0.000 A 
ATOM     19  C   UNL     1      -7.666   6.125 130.734  0.00  0.00    +0.000 A 
ATOM     20  C   UNL     1      -8.766   6.482 131.520  0.00  0.00    +0.000 A 
BRANCH  16  21
ATOM     21  O   UNL     1     -11.176   3.906 130.408  0.00  0.00    +0.000 OA
ATOM     22  H   UNL     1     -11.870   4.206 131.017  0.00  0.00    +0.000 HD
ENDBRANCH  16  21
BRANCH  17  23
ATOM     23  O   UNL     1      -9.013   3.280 128.903  0.00  0.00    +0.000 OA
ATOM     24  H   UNL     1      -8.079   3.062 128.713  0.00  0.00    +0.000 HD
ENDBRANCH  17  23
BRANCH  18  25
ATOM     25  O   UNL     1      -6.692   4.719 129.094  0.00  0.00    +0.000 OA
ATOM     26  H   UNL     1      -6.234   4.017 129.596  0.00  0.00    +0.000 HD
ENDBRANCH  18  25
ENDBRANCH  14  15
ENDBRANCH   1  14
TORSDOF 10
ENDMDL
MODEL 3
REMARK VINA RESULT:      -5.9      1.106      1.487
REMARK  Name = Benserazide
REMARK  10 active torsions:
REMARK  status: ('A' for Active; 'I' for Inactive)
REMARK    1  A    between atoms: N_1  and  CA_2
REMARK    2  A    between atoms: CA_2  and  C_3
REMARK    3  A    between atoms: CA_2  and  C_5
REMARK    4  A    between atoms: C_3  and  O_4
REMARK    5  A    between atoms: N_7  and  N_8
REMARK    6  A    between atoms: N_8  and  C_9
REMARK    7  A    between atoms: C_9  and  C_10
REMARK    8  A    between atoms: C_11  and  O_12
REMARK    9  A    between atoms: C_13  and  O_14
REMARK   10  A    between atoms: C_15  and  O_16
REMARK                            x       y       z     vdW  Elec       q    Type
REMARK                         _______ _______ _______ _____ _____    ______ ____
ROOT
ATOM      1  N   UNL     1     -11.876   5.963 131.875  0.00  0.00    +0.000 NA
ATOM      2  H   UNL     1     -12.707   5.770 132.445  0.00  0.00    +0.000 HD
ENDROOT
BRANCH   1   5
ATOM      3  C   UNL     1      -9.725   4.894 132.156  0.00  0.00    +0.000 C 
ATOM      4  O   UNL     1      -9.859   4.274 131.097  0.00  0.00    +0.000 OA
ATOM      5  N   UNL     1     -10.722   5.732 132.664  0.00  0.00    +0.000 N 
ATOM      6  H   UNL     1     -10.562   6.292 133.496  0.00  0.00    +0.000 HD
BRANCH   3   7
ATOM      7  CA  UNL     1      -8.464   4.772 133.050  0.00  0.00    +0.000 C 
BRANCH   7   8
ATOM      8  N   UNL     1      -7.825   3.444 132.879  0.00  0.00    +0.000 NA
ATOM      9  H1  UNL     1      -7.651   3.037 133.799  0.00  0.00    +0.000 HD
ATOM     10  H2  UNL     1      -6.895   3.595 132.476  0.00  0.00    +0.000 HD
ENDBRANCH   7   8
BRANCH   7  11
ATOM     11  C   UNL     1      -7.450   5.885 132.747  0.00  0.00    +0.000 C 
BRANCH  11  12
ATOM     12  O   UNL     1      -7.869   6.670 131.627  0.00  0.00    +0.000 OA
ATOM     13  H   UNL     1      -8.168   6.067 130.924  0.00  0.00    +0.000 HD
ENDBRANCH  11  12
ENDBRANCH   7  11
ENDBRANCH   3   7
ENDBRANCH   1   5
BRANCH   1  14
ATOM     14  C   UNL     1     -11.927   7.288 131.265  0.00  0.00    +0.000 C 
BRANCH  14  15
ATOM     15  C   UNL     1     -11.993   7.214 129.756  0.00  0.00    +0.000 A 
ATOM     16  C   UNL     1     -10.875   6.986 128.937  0.00  0.00    +0.000 A 
ATOM     17  C   UNL     1     -11.017   6.921 127.546  0.00  0.00    +0.000 A 
ATOM     18  C   UNL     1     -12.260   7.093 126.952  0.00  0.00    +0.000 A 
ATOM     19  C   UNL     1     -13.377   7.336 127.733  0.00  0.00    +0.000 A 
ATOM     20  C   UNL     1     -13.244   7.397 129.125  0.00  0.00    +0.000 A 
BRANCH  16  21
ATOM     21  O   UNL     1      -9.604   6.808 129.420  0.00  0.00    +0.000 OA
ATOM     22  H   UNL     1      -9.214   7.670 129.638  0.00  0.00    +0.000 HD
ENDBRANCH  16  21
BRANCH  17  23
ATOM     23  O   UNL     1      -9.936   6.684 126.735  0.00  0.00    +0.000 OA
ATOM     24  H   UNL     1      -9.621   7.573 126.475  0.00  0.00    +0.000 HD
ENDBRANCH  17  23
BRANCH  18  25
ATOM     25  O   UNL     1     -12.401   7.027 125.597  0.00  0.00    +0.000 OA
ATOM     26  H   UNL     1     -11.514   7.229 125.241  0.00  0.00    +0.000 HD
ENDBRANCH  18  25
ENDBRANCH  14  15
ENDBRANCH   1  14
TORSDOF 10
ENDMDL
MODEL 4
REMARK VINA RESULT:      -5.7      8.927     10.214
REMARK  Name = Benserazide
REMARK  10 active torsions:
REMARK  status: ('A' for Active; 'I' for Inactive)
REMARK    1  A    between atoms: N_1  and  CA_2
REMARK    2  A    between atoms: CA_2  and  C_3
REMARK    3  A    between atoms: CA_2  and  C_5
REMARK    4  A    between atoms: C_3  and  O_4
REMARK    5  A    between atoms: N_7  and  N_8
REMARK    6  A    between atoms: N_8  and  C_9
REMARK    7  A    between atoms: C_9  and  C_10
REMARK    8  A    between atoms: C_11  and  O_12
REMARK    9  A    between atoms: C_13  and  O_14
REMARK   10  A    between atoms: C_15  and  O_16
REMARK                            x       y       z     vdW  Elec       q    Type
REMARK                         _______ _______ _______ _____ _____    ______ ____
ROOT
ATOM      1  N   UNL     1      -7.721   1.767 124.293  0.00  0.00    +0.000 NA
ATOM      2  H   UNL     1      -7.843   1.776 125.312  0.00  0.00    +0.000 HD
ENDROOT
BRANCH   1   5
ATOM      3  C   UNL     1      -8.739  -0.274 123.486  0.00  0.00    +0.000 C 
ATOM      4  O   UNL     1      -9.870   0.205 123.606  0.00  0.00    +0.000 OA
ATOM      5  N   UNL     1      -7.587   0.422 123.866  0.00  0.00    +0.000 N 
ATOM      6  H   UNL     1      -6.662   0.041 123.687  0.00  0.00    +0.000 HD
BRANCH   3   7
ATOM      7  CA  UNL     1      -8.483  -1.706 122.951  0.00  0.00    +0.000 C 
BRANCH   7   8
ATOM      8  N   UNL     1      -7.037  -1.927 122.707  0.00  0.00    +0.000 NA
ATOM      9  H1  UNL     1      -6.556  -2.014 123.603  0.00  0.00    +0.000 HD
ATOM     10  H2  UNL     1      -6.658  -1.074 122.286  0.00  0.00    +0.000 HD
ENDBRANCH   7   8
BRANCH   7  11
ATOM     11  C   UNL     1      -9.019  -2.772 123.919  0.00  0.00    +0.000 C 
BRANCH  11  12
ATOM     12  O   UNL     1     -10.134  -3.466 123.351  0.00  0.00    +0.000 OA
ATOM     13  H   UNL     1     -10.149  -3.292 122.395  0.00  0.00    +0.000 HD
ENDBRANCH  11  12
ENDBRANCH   7  11
ENDBRANCH   3   7
ENDBRANCH   1   5
BRANCH   1  14
ATOM     14  C   UNL     1      -6.634   2.640 123.865  0.00  0.00    +0.000 C 
BRANCH  14  15
ATOM     15  C   UNL     1      -6.846   3.163 122.461  0.00  0.00    +0.000 A 
ATOM     16  C   UNL     1      -8.107   3.268 121.852  0.00  0.00    +0.000 A 
ATOM     17  C   UNL     1      -8.225   3.771 120.551  0.00  0.00    +0.000 A 
ATOM     18  C   UNL     1      -7.100   4.161 119.838  0.00  0.00    +0.000 A 
ATOM     19  C   UNL     1      -5.842   4.053 120.407  0.00  0.00    +0.000 A 
ATOM     20  C   UNL     1      -5.716   3.556 121.709  0.00  0.00    +0.000 A 
BRANCH  16  21
ATOM     21  O   UNL     1      -9.279   2.908 122.465  0.00  0.00    +0.000 OA
ATOM     22  H   UNL     1      -9.882   2.516 121.812  0.00  0.00    +0.000 HD
ENDBRANCH  16  21
BRANCH  17  23
ATOM     23  O   UNL     1      -9.452   3.894 119.949  0.00  0.00    +0.000 OA
ATOM     24  H   UNL     1      -9.335   3.496 119.063  0.00  0.00    +0.000 HD
ENDBRANCH  17  23
BRANCH  18  25
ATOM     25  O   UNL     1      -7.212   4.654 118.570  0.00  0.00    +0.000 OA
ATOM     26  H   UNL     1      -6.369   4.423 118.135  0.00  0.00    +0.000 HD
ENDBRANCH  18  25
ENDBRANCH  14  15
ENDBRANCH   1  14
TORSDOF 10
ENDMDL
MODEL 5
REMARK VINA RESULT:      -5.7      2.633      3.276
REMARK  Name = Benserazide
REMARK  10 active torsions:
REMARK  status: ('A' for Active; 'I' for Inactive)
REMARK    1  A    between atoms: N_1  and  CA_2
REMARK    2  A    between atoms: CA_2  and  C_3
REMARK    3  A    between atoms: CA_2  and  C_5
REMARK    4  A    between atoms: C_3  and  O_4
REMARK    5  A    between atoms: N_7  and  N_8
REMARK    6  A    between atoms: N_8  and  C_9
REMARK    7  A    between atoms: C_9  and  C_10
REMARK    8  A    between atoms: C_11  and  O_12
REMARK    9  A    between atoms: C_13  and  O_14
REMARK   10  A    between atoms: C_15  and  O_16
REMARK                            x       y       z     vdW  Elec       q    Type
REMARK                         _______ _______ _______ _____ _____    ______ ____
ROOT
ATOM      1  N   UNL     1      -9.277   6.380 132.243  0.00  0.00    +0.000 NA
ATOM      2  H   UNL     1      -9.080   7.351 131.977  0.00  0.00    +0.000 HD
ENDROOT
BRANCH   1   5
ATOM      3  C   UNL     1      -7.103   6.178 131.202  0.00  0.00    +0.000 C 
ATOM      4  O   UNL     1      -7.146   7.348 130.812  0.00  0.00    +0.000 OA
ATOM      5  N   UNL     1      -8.165   5.578 131.886  0.00  0.00    +0.000 N 
ATOM      6  H   UNL     1      -8.079   4.640 132.266  0.00  0.00    +0.000 HD
BRANCH   3   7
ATOM      7  CA  UNL     1      -5.895   5.244 130.933  0.00  0.00    +0.000 C 
BRANCH   7   8
ATOM      8  N   UNL     1      -5.878   4.115 131.895  0.00  0.00    +0.000 NA
ATOM      9  H1  UNL     1      -6.320   4.412 132.766  0.00  0.00    +0.000 HD
ATOM     10  H2  UNL     1      -4.902   3.932 132.143  0.00  0.00    +0.000 HD
ENDBRANCH   7   8
BRANCH   7  11
ATOM     11  C   UNL     1      -5.911   4.706 129.494  0.00  0.00    +0.000 C 
BRANCH  11  12
ATOM     12  O   UNL     1      -7.187   4.913 128.883  0.00  0.00    +0.000 OA
ATOM     13  H   UNL     1      -7.499   4.062 128.529  0.00  0.00    +0.000 HD
ENDBRANCH  11  12
ENDBRANCH   7  11
ENDBRANCH   3   7
ENDBRANCH   1   5
BRANCH   1  14
ATOM     14  C   UNL     1     -10.549   5.913 131.702  0.00  0.00    +0.000 C 
BRANCH  14  15
ATOM     15  C   UNL     1     -11.201   6.949 130.813  0.00  0.00    +0.000 A 
ATOM     16  C   UNL     1     -10.640   7.407 129.609  0.00  0.00    +0.000 A 
ATOM     17  C   UNL     1     -11.309   8.362 128.835  0.00  0.00    +0.000 A 
ATOM     18  C   UNL     1     -12.528   8.882 129.249  0.00  0.00    +0.000 A 
ATOM     19  C   UNL     1     -13.096   8.461 130.439  0.00  0.00    +0.000 A 
ATOM     20  C   UNL     1     -12.437   7.503 131.216  0.00  0.00    +0.000 A 
BRANCH  16  21
ATOM     21  O   UNL     1      -9.441   6.964 129.113  0.00  0.00    +0.000 OA
ATOM     22  H   UNL     1      -9.308   7.317 128.219  0.00  0.00    +0.000 HD
ENDBRANCH  16  21
BRANCH  17  23
ATOM     23  O   UNL     1     -10.780   8.808 127.650  0.00  0.00    +0.000 OA
ATOM     24  H   UNL     1     -10.137   8.118 127.390  0.00  0.00    +0.000 HD
ENDBRANCH  17  23
BRANCH  18  25
ATOM     25  O   UNL     1     -13.183   9.811 128.494  0.00  0.00    +0.000 OA
ATOM     26  H   UNL     1     -13.563   9.307 127.748  0.00  0.00    +0.000 HD
ENDBRANCH  18  25
ENDBRANCH  14  15
ENDBRANCH   1  14
TORSDOF 10
ENDMDL
MODEL 6
REMARK VINA RESULT:      -5.7      2.719      3.660
REMARK  Name = Benserazide
REMARK  10 active torsions:
REMARK  status: ('A' for Active; 'I' for Inactive)
REMARK    1  A    between atoms: N_1  and  CA_2
REMARK    2  A    between atoms: CA_2  and  C_3
REMARK    3  A    between atoms: CA_2  and  C_5
REMARK    4  A    between atoms: C_3  and  O_4
REMARK    5  A    between atoms: N_7  and  N_8
REMARK    6  A    between atoms: N_8  and  C_9
REMARK    7  A    between atoms: C_9  and  C_10
REMARK    8  A    between atoms: C_11  and  O_12
REMARK    9  A    between atoms: C_13  and  O_14
REMARK   10  A    between atoms: C_15  and  O_16
REMARK                            x       y       z     vdW  Elec       q    Type
REMARK                         _______ _______ _______ _____ _____    ______ ____
ROOT
ATOM      1  N   UNL     1     -10.032   4.368 132.271  0.00  0.00    +0.000 NA
ATOM      2  H   UNL     1     -10.030   3.827 133.142  0.00  0.00    +0.000 HD
ENDROOT
BRANCH   1   5
ATOM      3  C   UNL     1      -9.339   3.472 130.134  0.00  0.00    +0.000 C 
ATOM      4  O   UNL     1     -10.506   3.432 129.735  0.00  0.00    +0.000 OA
ATOM      5  N   UNL     1      -9.003   3.877 131.429  0.00  0.00    +0.000 N 
ATOM      6  H   UNL     1      -8.033   3.977 131.712  0.00  0.00    +0.000 HD
BRANCH   3   7
ATOM      7  CA  UNL     1      -8.136   3.033 129.260  0.00  0.00    +0.000 C 
BRANCH   7   8
ATOM      8  N   UNL     1      -8.483   1.843 128.446  0.00  0.00    +0.000 NA
ATOM      9  H1  UNL     1      -9.327   2.042 127.908  0.00  0.00    +0.000 HD
ATOM     10  H2  UNL     1      -8.749   1.092 129.089  0.00  0.00    +0.000 HD
ENDBRANCH   7   8
BRANCH   7  11
ATOM     11  C   UNL     1      -7.659   4.172 128.347  0.00  0.00    +0.000 C 
BRANCH  11  12
ATOM     12  O   UNL     1      -8.752   5.010 127.959  0.00  0.00    +0.000 OA
ATOM     13  H   UNL     1      -8.574   5.353 127.066  0.00  0.00    +0.000 HD
ENDBRANCH  11  12
ENDBRANCH   7  11
ENDBRANCH   3   7
ENDBRANCH   1   5
BRANCH   1  14
ATOM     14  C   UNL     1      -9.966   5.805 132.520  0.00  0.00    +0.000 C 
BRANCH  14  15
ATOM     15  C   UNL     1     -10.662   6.600 131.437  0.00  0.00    +0.000 A 
ATOM     16  C   UNL     1     -10.001   7.148 130.325  0.00  0.00    +0.000 A 
ATOM     17  C   UNL     1     -10.716   7.864 129.359  0.00  0.00    +0.000 A 
ATOM     18  C   UNL     1     -12.085   8.057 129.488  0.00  0.00    +0.000 A 
ATOM     19  C   UNL     1     -12.759   7.542 130.582  0.00  0.00    +0.000 A 
ATOM     20  C   UNL     1     -12.053   6.820 131.550  0.00  0.00    +0.000 A 
BRANCH  16  21
ATOM     21  O   UNL     1      -8.654   7.021 130.105  0.00  0.00    +0.000 OA
ATOM     22  H   UNL     1      -8.164   7.485 130.803  0.00  0.00    +0.000 HD
ENDBRANCH  16  21
BRANCH  17  23
ATOM     23  O   UNL     1     -10.086   8.392 128.261  0.00  0.00    +0.000 OA
ATOM     24  H   UNL     1      -9.226   8.714 128.598  0.00  0.00    +0.000 HD
ENDBRANCH  17  23
BRANCH  18  25
ATOM     25  O   UNL     1     -12.784   8.752 128.545  0.00  0.00    +0.000 OA
ATOM     26  H   UNL     1     -13.220   8.068 128.000  0.00  0.00    +0.000 HD
ENDBRANCH  18  25
ENDBRANCH  14  15
ENDBRANCH   1  14
TORSDOF 10
ENDMDL
MODEL 7
REMARK VINA RESULT:      -5.7      2.270      2.669
REMARK  Name = Benserazide
REMARK  10 active torsions:
REMARK  status: ('A' for Active; 'I' for Inactive)
REMARK    1  A    between atoms: N_1  and  CA_2
REMARK    2  A    between atoms: CA_2  and  C_3
REMARK    3  A    between atoms: CA_2  and  C_5
REMARK    4  A    between atoms: C_3  and  O_4
REMARK    5  A    between atoms: N_7  and  N_8
REMARK    6  A    between atoms: N_8  and  C_9
REMARK    7  A    between atoms: C_9  and  C_10
REMARK    8  A    between atoms: C_11  and  O_12
REMARK    9  A    between atoms: C_13  and  O_14
REMARK   10  A    between atoms: C_15  and  O_16
REMARK                            x       y       z     vdW  Elec       q    Type
REMARK                         _______ _______ _______ _____ _____    ______ ____
ROOT
ATOM      1  N   UNL     1      -9.837   4.406 129.911  0.00  0.00    +0.000 NA
ATOM      2  H   UNL     1      -9.775   3.511 129.413  0.00  0.00    +0.000 HD
ENDROOT
BRANCH   1   5
ATOM      3  C   UNL     1      -8.100   5.475 131.211  0.00  0.00    +0.000 C 
ATOM      4  O   UNL     1      -8.040   6.418 130.416  0.00  0.00    +0.000 OA
ATOM      5  N   UNL     1      -8.940   4.377 131.008  0.00  0.00    +0.000 N 
ATOM      6  H   UNL     1      -9.032   3.650 131.712  0.00  0.00    +0.000 HD
BRANCH   3   7
ATOM      7  CA  UNL     1      -7.219   5.391 132.484  0.00  0.00    +0.000 C 
BRANCH   7   8
ATOM      8  N   UNL     1      -6.013   6.243 132.347  0.00  0.00    +0.000 NA
ATOM      9  H1  UNL     1      -5.662   6.476 133.277  0.00  0.00    +0.000 HD
ATOM     10  H2  UNL     1      -6.307   7.137 131.943  0.00  0.00    +0.000 HD
ENDBRANCH   7   8
BRANCH   7  11
ATOM     11  C   UNL     1      -8.006   5.794 133.740  0.00  0.00    +0.000 C 
BRANCH  11  12
ATOM     12  O   UNL     1      -9.324   6.233 133.400  0.00  0.00    +0.000 OA
ATOM     13  H   UNL     1      -9.422   6.190 132.433  0.00  0.00    +0.000 HD
ENDBRANCH  11  12
ENDBRANCH   7  11
ENDBRANCH   3   7
ENDBRANCH   1   5
BRANCH   1  14
ATOM     14  C   UNL     1     -11.212   4.737 130.271  0.00  0.00    +0.000 C 
BRANCH  14  15
ATOM     15  C   UNL     1     -11.564   6.163 129.909  0.00  0.00    +0.000 A 
ATOM     16  C   UNL     1     -10.980   6.863 128.841  0.00  0.00    +0.000 A 
ATOM     17  C   UNL     1     -11.366   8.179 128.562  0.00  0.00    +0.000 A 
ATOM     18  C   UNL     1     -12.321   8.818 129.341  0.00  0.00    +0.000 A 
ATOM     19  C   UNL     1     -12.901   8.158 130.411  0.00  0.00    +0.000 A 
ATOM     20  C   UNL     1     -12.525   6.841 130.694  0.00  0.00    +0.000 A 
BRANCH  16  21
ATOM     21  O   UNL     1     -10.027   6.328 128.014  0.00  0.00    +0.000 OA
ATOM     22  H   UNL     1     -10.382   5.538 127.574  0.00  0.00    +0.000 HD
ENDBRANCH  16  21
BRANCH  17  23
ATOM     23  O   UNL     1     -10.815   8.870 127.512  0.00  0.00    +0.000 OA
ATOM     24  H   UNL     1     -11.566   9.347 127.106  0.00  0.00    +0.000 HD
ENDBRANCH  17  23
BRANCH  18  25
ATOM     25  O   UNL     1     -12.701  10.100 129.069  0.00  0.00    +0.000 OA
ATOM     26  H   UNL     1     -12.922  10.487 129.938  0.00  0.00    +0.000 HD
ENDBRANCH  18  25
ENDBRANCH  14  15
ENDBRANCH   1  14
TORSDOF 10
ENDMDL
MODEL 8
REMARK VINA RESULT:      -5.7      8.005      9.404
REMARK  Name = Benserazide
REMARK  10 active torsions:
REMARK  status: ('A' for Active; 'I' for Inactive)
REMARK    1  A    between atoms: N_1  and  CA_2
REMARK    2  A    between atoms: CA_2  and  C_3
REMARK    3  A    between atoms: CA_2  and  C_5
REMARK    4  A    between atoms: C_3  and  O_4
REMARK    5  A    between atoms: N_7  and  N_8
REMARK    6  A    between atoms: N_8  and  C_9
REMARK    7  A    between atoms: C_9  and  C_10
REMARK    8  A    between atoms: C_11  and  O_12
REMARK    9  A    between atoms: C_13  and  O_14
REMARK   10  A    between atoms: C_15  and  O_16
REMARK                            x       y       z     vdW  Elec       q    Type
REMARK                         _______ _______ _______ _____ _____    ______ ____
ROOT
ATOM      1  N   UNL     1      -7.725   3.638 123.836  0.00  0.00    +0.000 NA
ATOM      2  H   UNL     1      -7.593   4.558 124.270  0.00  0.00    +0.000 HD
ENDROOT
BRANCH   1   5
ATOM      3  C   UNL     1      -9.209   1.837 124.473  0.00  0.00    +0.000 C 
ATOM      4  O   UNL     1      -9.772   1.871 123.375  0.00  0.00    +0.000 OA
ATOM      5  N   UNL     1      -8.196   2.736 124.822  0.00  0.00    +0.000 N 
ATOM      6  H   UNL     1      -7.693   2.642 125.700  0.00  0.00    +0.000 HD
BRANCH   3   7
ATOM      7  CA  UNL     1      -9.598   0.833 125.588  0.00  0.00    +0.000 C 
BRANCH   7   8
ATOM      8  N   UNL     1      -9.594  -0.556 125.070  0.00  0.00    +0.000 NA
ATOM      9  H1  UNL     1      -8.635  -0.825 124.844  0.00  0.00    +0.000 HD
ATOM     10  H2  UNL     1     -10.087  -0.556 124.173  0.00  0.00    +0.000 HD
ENDBRANCH   7   8
BRANCH   7  11
ATOM     11  C   UNL     1      -8.657   0.945 126.797  0.00  0.00    +0.000 C 
BRANCH  11  12
ATOM     12  O   UNL     1      -9.004   2.065 127.616  0.00  0.00    +0.000 OA
ATOM     13  H   UNL     1      -8.183   2.493 127.914  0.00  0.00    +0.000 HD
ENDBRANCH  11  12
ENDBRANCH   7  11
ENDBRANCH   3   7
ENDBRANCH   1   5
BRANCH   1  14
ATOM     14  C   UNL     1      -6.525   3.186 123.139  0.00  0.00    +0.000 C 
BRANCH  14  15
ATOM     15  C   UNL     1      -6.391   3.822 121.773  0.00  0.00    +0.000 A 
ATOM     16  C   UNL     1      -7.424   3.849 120.821  0.00  0.00    +0.000 A 
ATOM     17  C   UNL     1      -7.228   4.465 119.580  0.00  0.00    +0.000 A 
ATOM     18  C   UNL     1      -6.008   5.048 119.264  0.00  0.00    +0.000 A 
ATOM     19  C   UNL     1      -4.967   5.022 120.176  0.00  0.00    +0.000 A 
ATOM     20  C   UNL     1      -5.157   4.413 121.421  0.00  0.00    +0.000 A 
BRANCH  16  21
ATOM     21  O   UNL     1      -8.663   3.299 121.030  0.00  0.00    +0.000 OA
ATOM     22  H   UNL     1      -8.726   2.975 121.943  0.00  0.00    +0.000 HD
ENDBRANCH  16  21
BRANCH  17  23
ATOM     23  O   UNL     1      -8.233   4.511 118.647  0.00  0.00    +0.000 OA
ATOM     24  H   UNL     1      -9.046   4.296 119.146  0.00  0.00    +0.000 HD
ENDBRANCH  17  23
BRANCH  18  25
ATOM     25  O   UNL     1      -5.816   5.652 118.055  0.00  0.00    +0.000 OA
ATOM     26  H   UNL     1      -4.848   5.642 117.921  0.00  0.00    +0.000 HD
ENDBRANCH  18  25
ENDBRANCH  14  15
ENDBRANCH   1  14
TORSDOF 10
ENDMDL
MODEL 9
REMARK VINA RESULT:      -5.7      2.368      6.457
REMARK  Name = Benserazide
REMARK  10 active torsions:
REMARK  status: ('A' for Active; 'I' for Inactive)
REMARK    1  A    between atoms: N_1  and  CA_2
REMARK    2  A    between atoms: CA_2  and  C_3
REMARK    3  A    between atoms: CA_2  and  C_5
REMARK    4  A    between atoms: C_3  and  O_4
REMARK    5  A    between atoms: N_7  and  N_8
REMARK    6  A    between atoms: N_8  and  C_9
REMARK    7  A    between atoms: C_9  and  C_10
REMARK    8  A    between atoms: C_11  and  O_12
REMARK    9  A    between atoms: C_13  and  O_14
REMARK   10  A    between atoms: C_15  and  O_16
REMARK                            x       y       z     vdW  Elec       q    Type
REMARK                         _______ _______ _______ _____ _____    ______ ____
ROOT
ATOM      1  N   UNL     1      -9.570   6.892 130.427  0.00  0.00    +0.000 NA
ATOM      2  H   UNL     1      -8.844   7.577 130.664  0.00  0.00    +0.000 HD
ENDROOT
BRANCH   1   5
ATOM      3  C   UNL     1     -10.454   7.093 128.184  0.00  0.00    +0.000 C 
ATOM      4  O   UNL     1      -9.603   6.315 127.745  0.00  0.00    +0.000 OA
ATOM      5  N   UNL     1     -10.482   7.494 129.524  0.00  0.00    +0.000 N 
ATOM      6  H   UNL     1     -11.236   8.072 129.882  0.00  0.00    +0.000 HD
BRANCH   3   7
ATOM      7  CA  UNL     1     -11.544   7.740 127.292  0.00  0.00    +0.000 C 
BRANCH   7   8
ATOM      8  N   UNL     1     -11.992   6.796 126.239  0.00  0.00    +0.000 NA
ATOM      9  H1  UNL     1     -12.964   6.998 126.001  0.00  0.00    +0.000 HD
ATOM     10  H2  UNL     1     -12.009   5.858 126.649  0.00  0.00    +0.000 HD
ENDBRANCH   7   8
BRANCH   7  11
ATOM     11  C   UNL     1     -12.748   8.206 128.124  0.00  0.00    +0.000 C 
BRANCH  11  12
ATOM     12  O   UNL     1     -12.532   9.520 128.648  0.00  0.00    +0.000 OA
ATOM     13  H   UNL     1     -11.578   9.637 128.798  0.00  0.00    +0.000 HD
ENDBRANCH  11  12
ENDBRANCH   7  11
ENDBRANCH   3   7
ENDBRANCH   1   5
BRANCH   1  14
ATOM     14  C   UNL     1     -10.196   6.325 131.617  0.00  0.00    +0.000 C 
BRANCH  14  15
ATOM     15  C   UNL     1      -9.673   4.939 131.925  0.00  0.00    +0.000 A 
ATOM     16  C   UNL     1      -9.531   3.928 130.961  0.00  0.00    +0.000 A 
ATOM     17  C   UNL     1      -9.031   2.671 131.321  0.00  0.00    +0.000 A 
ATOM     18  C   UNL     1      -8.680   2.399 132.636  0.00  0.00    +0.000 A 
ATOM     19  C   UNL     1      -8.825   3.372 133.611  0.00  0.00    +0.000 A 
ATOM     20  C   UNL     1      -9.320   4.632 133.259  0.00  0.00    +0.000 A 
BRANCH  16  21
ATOM     21  O   UNL     1      -9.852   4.090 129.638  0.00  0.00    +0.000 OA
ATOM     22  H   UNL     1     -10.817   4.120 129.538  0.00  0.00    +0.000 HD
ENDBRANCH  16  21
BRANCH  17  23
ATOM     23  O   UNL     1      -8.873   1.679 130.387  0.00  0.00    +0.000 OA
ATOM     24  H   UNL     1      -8.546   0.909 130.894  0.00  0.00    +0.000 HD
ENDBRANCH  17  23
BRANCH  18  25
ATOM     25  O   UNL     1      -8.190   1.176 132.989  0.00  0.00    +0.000 OA
ATOM     26  H   UNL     1      -8.511   0.566 132.296  0.00  0.00    +0.000 HD
ENDBRANCH  18  25
ENDBRANCH  14  15
ENDBRANCH   1  14
TORSDOF 10
ENDMDL
