MODEL 1
REMARK VINA RESULT:      -7.1      0.000      0.000
REMARK  Name = Benzydamine
REMARK  9 active torsions:
REMARK  status: ('A' for Active; 'I' for Inactive)
REMARK    1  A    between atoms: C_1  and  N_2
REMARK    2  A    between atoms: N_2  and  C_3
REMARK    3  A    between atoms: N_2  and  C_4
REMARK    4  A    between atoms: C_4  and  C_5
REMARK    5  A    between atoms: C_5  and  C_6
REMARK    6  A    between atoms: C_6  and  O_7
REMARK    7  A    between atoms: O_7  and  C_8
REMARK    8  A    between atoms: N_10  and  C_11
REMARK    9  A    between atoms: C_11  and  C_12
REMARK                            x       y       z     vdW  Elec       q    Type
REMARK                         _______ _______ _______ _____ _____    ______ ____
ROOT
ATOM      1  C   UNL     1      -8.991  -1.170 123.632  0.00  0.00    +0.000 A 
ATOM      2  N   UNL     1      -9.563  -1.592 124.748  0.00  0.00    +0.000 NA
ATOM      3  N   UNL     1      -8.684  -2.500 125.253  0.00  0.00    +0.000 N 
ATOM      4  C   UNL     1      -7.534  -2.605 124.493  0.00  0.00    +0.000 A 
ATOM      5  C   UNL     1      -6.372  -3.379 124.634  0.00  0.00    +0.000 A 
ATOM      6  C   UNL     1      -5.368  -3.216 123.672  0.00  0.00    +0.000 A 
ATOM      7  C   UNL     1      -5.505  -2.309 122.627  0.00  0.00    +0.000 A 
ATOM      8  C   UNL     1      -6.657  -1.540 122.512  0.00  0.00    +0.000 A 
ATOM      9  C   UNL     1      -7.701  -1.709 123.435  0.00  0.00    +0.000 A 
ENDROOT
BRANCH   1  10
ATOM     10  O   UNL     1      -9.683  -0.261 122.903  0.00  0.00    +0.000 OA
BRANCH  10  11
ATOM     11  C   UNL     1      -9.863   0.989 123.570  0.00  0.00    +0.000 C 
BRANCH  11  12
ATOM     12  C   UNL     1      -9.152   2.081 122.786  0.00  0.00    +0.000 C 
BRANCH  12  13
ATOM     13  C   UNL     1      -8.200   2.891 123.680  0.00  0.00    +0.000 C 
BRANCH  13  15
ATOM     14  C   UNL     1      -6.948   3.429 121.687  0.00  0.00    +0.000 C 
ATOM     15  N   UNL     1      -6.854   3.032 123.096  0.00  0.00    +0.000 NA
ATOM     16  C   UNL     1      -6.055   4.023 123.821  0.00  0.00    +0.000 C 
ENDBRANCH  13  15
ENDBRANCH  12  13
ENDBRANCH  11  12
ENDBRANCH  10  11
ENDBRANCH   1  10
BRANCH   3  17
ATOM     17  C   UNL     1      -8.973  -3.290 126.465  0.00  0.00    +0.000 C 
BRANCH  17  18
ATOM     18  C   UNL     1      -8.297  -2.783 127.717  0.00  0.00    +0.000 A 
ATOM     19  C   UNL     1      -8.180  -3.639 128.822  0.00  0.00    +0.000 A 
ATOM     20  C   UNL     1      -7.801  -3.144 130.064  0.00  0.00    +0.000 A 
ATOM     21  C   UNL     1      -7.382  -1.824 130.181  0.00  0.00    +0.000 A 
ATOM     22  C   UNL     1      -7.337  -1.003 129.054  0.00  0.00    +0.000 A 
ATOM     23  C   UNL     1      -7.831  -1.466 127.831  0.00  0.00    +0.000 A 
ENDBRANCH  17  18
ENDBRANCH   3  17
TORSDOF 7
ENDMDL
MODEL 2
REMARK VINA RESULT:      -6.9      4.070      6.780
REMARK  Name = Benzydamine
REMARK  9 active torsions:
REMARK  status: ('A' for Active; 'I' for Inactive)
REMARK    1  A    between atoms: C_1  and  N_2
REMARK    2  A    between atoms: N_2  and  C_3
REMARK    3  A    between atoms: N_2  and  C_4
REMARK    4  A    between atoms: C_4  and  C_5
REMARK    5  A    between atoms: C_5  and  C_6
REMARK    6  A    between atoms: C_6  and  O_7
REMARK    7  A    between atoms: O_7  and  C_8
REMARK    8  A    between atoms: N_10  and  C_11
REMARK    9  A    between atoms: C_11  and  C_12
REMARK                            x       y       z     vdW  Elec       q    Type
REMARK                         _______ _______ _______ _____ _____    ______ ____
ROOT
ATOM      1  C   UNL     1      -5.464   3.938 124.235  0.00  0.00    +0.000 A 
ATOM      2  N   UNL     1      -6.423   3.168 124.724  0.00  0.00    +0.000 NA
ATOM      3  N   UNL     1      -7.226   2.914 123.655  0.00  0.00    +0.000 N 
ATOM      4  C   UNL     1      -6.742   3.468 122.484  0.00  0.00    +0.000 A 
ATOM      5  C   UNL     1      -7.213   3.450 121.162  0.00  0.00    +0.000 A 
ATOM      6  C   UNL     1      -6.445   4.111 120.196  0.00  0.00    +0.000 A 
ATOM      7  C   UNL     1      -5.250   4.743 120.525  0.00  0.00    +0.000 A 
ATOM      8  C   UNL     1      -4.793   4.737 121.838  0.00  0.00    +0.000 A 
ATOM      9  C   UNL     1      -5.560   4.120 122.839  0.00  0.00    +0.000 A 
ENDROOT
BRANCH   1  10
ATOM     10  O   UNL     1      -4.525   4.367 125.115  0.00  0.00    +0.000 OA
BRANCH  10  11
ATOM     11  C   UNL     1      -4.188   3.398 126.107  0.00  0.00    +0.000 C 
BRANCH  11  12
ATOM     12  C   UNL     1      -2.761   3.640 126.577  0.00  0.00    +0.000 C 
BRANCH  12  13
ATOM     13  C   UNL     1      -2.726   4.243 127.990  0.00  0.00    +0.000 C 
BRANCH  13  15
ATOM     14  C   UNL     1      -4.318   5.677 129.104  0.00  0.00    +0.000 C 
ATOM     15  N   UNL     1      -3.309   5.597 128.044  0.00  0.00    +0.000 NA
ATOM     16  C   UNL     1      -2.282   6.615 128.280  0.00  0.00    +0.000 C 
ENDBRANCH  13  15
ENDBRANCH  12  13
ENDBRANCH  11  12
ENDBRANCH  10  11
ENDBRANCH   1  10
BRANCH   3  17
ATOM     17  C   UNL     1      -8.483   2.152 123.775  0.00  0.00    +0.000 C 
BRANCH  17  18
ATOM     18  C   UNL     1      -8.347   0.674 123.494  0.00  0.00    +0.000 A 
ATOM     19  C   UNL     1      -7.076   0.085 123.550  0.00  0.00    +0.000 A 
ATOM     20  C   UNL     1      -6.867  -1.197 123.057  0.00  0.00    +0.000 A 
ATOM     21  C   UNL     1      -7.953  -1.964 122.649  0.00  0.00    +0.000 A 
ATOM     22  C   UNL     1      -9.246  -1.449 122.741  0.00  0.00    +0.000 A 
ATOM     23  C   UNL     1      -9.443  -0.119 123.124  0.00  0.00    +0.000 A 
ENDBRANCH  17  18
ENDBRANCH   3  17
TORSDOF 7
ENDMDL
MODEL 3
REMARK VINA RESULT:      -6.8      1.256      1.858
REMARK  Name = Benzydamine
REMARK  9 active torsions:
REMARK  status: ('A' for Active; 'I' for Inactive)
REMARK    1  A    between atoms: C_1  and  N_2
REMARK    2  A    between atoms: N_2  and  C_3
REMARK    3  A    between atoms: N_2  and  C_4
REMARK    4  A    between atoms: C_4  and  C_5
REMARK    5  A    between atoms: C_5  and  C_6
REMARK    6  A    between atoms: C_6  and  O_7
REMARK    7  A    between atoms: O_7  and  C_8
REMARK    8  A    between atoms: N_10  and  C_11
REMARK    9  A    between atoms: C_11  and  C_12
REMARK                            x       y       z     vdW  Elec       q    Type
REMARK                         _______ _______ _______ _____ _____    ______ ____
ROOT
ATOM      1  C   UNL     1      -8.819  -0.957 123.549  0.00  0.00    +0.000 A 
ATOM      2  N   UNL     1      -9.491  -1.357 124.616  0.00  0.00    +0.000 NA
ATOM      3  N   UNL     1      -8.743  -2.377 125.120  0.00  0.00    +0.000 N 
ATOM      4  C   UNL     1      -7.573  -2.578 124.412  0.00  0.00    +0.000 A 
ATOM      5  C   UNL     1      -6.511  -3.481 124.573  0.00  0.00    +0.000 A 
ATOM      6  C   UNL     1      -5.447  -3.392 123.667  0.00  0.00    +0.000 A 
ATOM      7  C   UNL     1      -5.430  -2.434 122.659  0.00  0.00    +0.000 A 
ATOM      8  C   UNL     1      -6.484  -1.538 122.525  0.00  0.00    +0.000 A 
ATOM      9  C   UNL     1      -7.586  -1.627 123.389  0.00  0.00    +0.000 A 
ENDROOT
BRANCH   1  10
ATOM     10  O   UNL     1      -9.369   0.052 122.830  0.00  0.00    +0.000 OA
BRANCH  10  11
ATOM     11  C   UNL     1      -9.963   1.069 123.637  0.00  0.00    +0.000 C 
BRANCH  11  12
ATOM     12  C   UNL     1      -8.975   2.213 123.807  0.00  0.00    +0.000 C 
BRANCH  12  13
ATOM     13  C   UNL     1      -8.182   2.084 125.117  0.00  0.00    +0.000 C 
BRANCH  13  15
ATOM     14  C   UNL     1      -7.807   2.935 127.346  0.00  0.00    +0.000 C 
ATOM     15  N   UNL     1      -8.438   3.198 126.048  0.00  0.00    +0.000 NA
ATOM     16  C   UNL     1      -7.934   4.468 125.518  0.00  0.00    +0.000 C 
ENDBRANCH  13  15
ENDBRANCH  12  13
ENDBRANCH  11  12
ENDBRANCH  10  11
ENDBRANCH   1  10
BRANCH   3  17
ATOM     17  C   UNL     1      -9.179  -3.178 126.281  0.00  0.00    +0.000 C 
BRANCH  17  18
ATOM     18  C   UNL     1      -8.518  -2.800 127.585  0.00  0.00    +0.000 A 
ATOM     19  C   UNL     1      -7.824  -1.584 127.669  0.00  0.00    +0.000 A 
ATOM     20  C   UNL     1      -6.996  -1.315 128.752  0.00  0.00    +0.000 A 
ATOM     21  C   UNL     1      -6.973  -2.185 129.835  0.00  0.00    +0.000 A 
ATOM     22  C   UNL     1      -7.784  -3.320 129.837  0.00  0.00    +0.000 A 
ATOM     23  C   UNL     1      -8.526  -3.651 128.699  0.00  0.00    +0.000 A 
ENDBRANCH  17  18
ENDBRANCH   3  17
TORSDOF 7
ENDMDL
MODEL 4
REMARK VINA RESULT:      -6.8      7.734     10.192
REMARK  Name = Benzydamine
REMARK  9 active torsions:
REMARK  status: ('A' for Active; 'I' for Inactive)
REMARK    1  A    between atoms: C_1  and  N_2
REMARK    2  A    between atoms: N_2  and  C_3
REMARK    3  A    between atoms: N_2  and  C_4
REMARK    4  A    between atoms: C_4  and  C_5
REMARK    5  A    between atoms: C_5  and  C_6
REMARK    6  A    between atoms: C_6  and  O_7
REMARK    7  A    between atoms: O_7  and  C_8
REMARK    8  A    between atoms: N_10  and  C_11
REMARK    9  A    between atoms: C_11  and  C_12
REMARK                            x       y       z     vdW  Elec       q    Type
REMARK                         _______ _______ _______ _____ _____    ______ ____
ROOT
ATOM      1  C   UNL     1      -8.110   6.383 130.765  0.00  0.00    +0.000 A 
ATOM      2  N   UNL     1      -9.181   7.033 131.190  0.00  0.00    +0.000 NA
ATOM      3  N   UNL     1     -10.187   6.120 131.094  0.00  0.00    +0.000 N 
ATOM      4  C   UNL     1      -9.741   4.882 130.671  0.00  0.00    +0.000 A 
ATOM      5  C   UNL     1     -10.400   3.663 130.450  0.00  0.00    +0.000 A 
ATOM      6  C   UNL     1      -9.621   2.576 130.035  0.00  0.00    +0.000 A 
ATOM      7  C   UNL     1      -8.245   2.691 129.866  0.00  0.00    +0.000 A 
ATOM      8  C   UNL     1      -7.609   3.904 130.104  0.00  0.00    +0.000 A 
ATOM      9  C   UNL     1      -8.365   5.024 130.480  0.00  0.00    +0.000 A 
ENDROOT
BRANCH   1  10
ATOM     10  O   UNL     1      -6.950   7.084 130.732  0.00  0.00    +0.000 OA
BRANCH  10  11
ATOM     11  C   UNL     1      -6.005   6.671 131.720  0.00  0.00    +0.000 C 
BRANCH  11  12
ATOM     12  C   UNL     1      -4.607   6.713 131.122  0.00  0.00    +0.000 C 
BRANCH  12  13
ATOM     13  C   UNL     1      -4.560   7.579 129.854  0.00  0.00    +0.000 C 
BRANCH  13  15
ATOM     14  C   UNL     1      -2.659   6.988 128.487  0.00  0.00    +0.000 C 
ATOM     15  N   UNL     1      -4.105   6.827 128.670  0.00  0.00    +0.000 NA
ATOM     16  C   UNL     1      -4.418   5.401 128.786  0.00  0.00    +0.000 C 
ENDBRANCH  13  15
ENDBRANCH  12  13
ENDBRANCH  11  12
ENDBRANCH  10  11
ENDBRANCH   1  10
BRANCH   3  17
ATOM     17  C   UNL     1     -11.592   6.459 131.390  0.00  0.00    +0.000 C 
BRANCH  17  18
ATOM     18  C   UNL     1     -12.319   7.150 130.260  0.00  0.00    +0.000 A 
ATOM     19  C   UNL     1     -12.789   6.383 129.184  0.00  0.00    +0.000 A 
ATOM     20  C   UNL     1     -13.230   6.997 128.018  0.00  0.00    +0.000 A 
ATOM     21  C   UNL     1     -13.357   8.380 127.972  0.00  0.00    +0.000 A 
ATOM     22  C   UNL     1     -13.047   9.148 129.095  0.00  0.00    +0.000 A 
ATOM     23  C   UNL     1     -12.491   8.541 130.225  0.00  0.00    +0.000 A 
ENDBRANCH  17  18
ENDBRANCH   3  17
TORSDOF 7
ENDMDL
MODEL 5
REMARK VINA RESULT:      -6.7      6.218      9.097
REMARK  Name = Benzydamine
REMARK  9 active torsions:
REMARK  status: ('A' for Active; 'I' for Inactive)
REMARK    1  A    between atoms: C_1  and  N_2
REMARK    2  A    between atoms: N_2  and  C_3
REMARK    3  A    between atoms: N_2  and  C_4
REMARK    4  A    between atoms: C_4  and  C_5
REMARK    5  A    between atoms: C_5  and  C_6
REMARK    6  A    between atoms: C_6  and  O_7
REMARK    7  A    between atoms: O_7  and  C_8
REMARK    8  A    between atoms: N_10  and  C_11
REMARK    9  A    between atoms: C_11  and  C_12
REMARK                            x       y       z     vdW  Elec       q    Type
REMARK                         _______ _______ _______ _____ _____    ______ ____
ROOT
ATOM      1  C   UNL     1      -8.951   3.443 129.397  0.00  0.00    +0.000 A 
ATOM      2  N   UNL     1      -8.928   4.720 129.051  0.00  0.00    +0.000 NA
ATOM      3  N   UNL     1      -9.061   5.389 130.229  0.00  0.00    +0.000 N 
ATOM      4  C   UNL     1      -9.104   4.540 131.319  0.00  0.00    +0.000 A 
ATOM      5  C   UNL     1      -9.212   4.775 132.699  0.00  0.00    +0.000 A 
ATOM      6  C   UNL     1      -9.202   3.659 133.544  0.00  0.00    +0.000 A 
ATOM      7  C   UNL     1      -9.070   2.369 133.042  0.00  0.00    +0.000 A 
ATOM      8  C   UNL     1      -8.949   2.158 131.674  0.00  0.00    +0.000 A 
ATOM      9  C   UNL     1      -8.998   3.251 130.795  0.00  0.00    +0.000 A 
ENDROOT
BRANCH   1  10
ATOM     10  O   UNL     1      -8.861   2.541 128.389  0.00  0.00    +0.000 OA
BRANCH  10  11
ATOM     11  C   UNL     1      -7.523   2.314 127.944  0.00  0.00    +0.000 C 
BRANCH  11  12
ATOM     12  C   UNL     1      -7.556   1.739 126.536  0.00  0.00    +0.000 C 
BRANCH  12  13
ATOM     13  C   UNL     1      -8.980   1.335 126.123  0.00  0.00    +0.000 C 
BRANCH  13  15
ATOM     14  C   UNL     1      -8.434   2.989 124.450  0.00  0.00    +0.000 C 
ATOM     15  N   UNL     1      -9.496   2.142 125.002  0.00  0.00    +0.000 NA
ATOM     16  C   UNL     1     -10.037   1.295 123.936  0.00  0.00    +0.000 C 
ENDBRANCH  13  15
ENDBRANCH  12  13
ENDBRANCH  11  12
ENDBRANCH  10  11
ENDBRANCH   1  10
BRANCH   3  17
ATOM     17  C   UNL     1      -9.174   6.859 130.295  0.00  0.00    +0.000 C 
BRANCH  17  18
ATOM     18  C   UNL     1     -10.483   7.409 129.780  0.00  0.00    +0.000 A 
ATOM     19  C   UNL     1     -11.662   7.134 130.487  0.00  0.00    +0.000 A 
ATOM     20  C   UNL     1     -12.905   7.398 129.923  0.00  0.00    +0.000 A 
ATOM     21  C   UNL     1     -12.982   8.082 128.716  0.00  0.00    +0.000 A 
ATOM     22  C   UNL     1     -11.816   8.507 128.078  0.00  0.00    +0.000 A 
ATOM     23  C   UNL     1     -10.567   8.138 128.585  0.00  0.00    +0.000 A 
ENDBRANCH  17  18
ENDBRANCH   3  17
TORSDOF 7
ENDMDL
MODEL 6
REMARK VINA RESULT:      -6.7      8.886     10.919
REMARK  Name = Benzydamine
REMARK  9 active torsions:
REMARK  status: ('A' for Active; 'I' for Inactive)
REMARK    1  A    between atoms: C_1  and  N_2
REMARK    2  A    between atoms: N_2  and  C_3
REMARK    3  A    between atoms: N_2  and  C_4
REMARK    4  A    between atoms: C_4  and  C_5
REMARK    5  A    between atoms: C_5  and  C_6
REMARK    6  A    between atoms: C_6  and  O_7
REMARK    7  A    between atoms: O_7  and  C_8
REMARK    8  A    between atoms: N_10  and  C_11
REMARK    9  A    between atoms: C_11  and  C_12
REMARK                            x       y       z     vdW  Elec       q    Type
REMARK                         _______ _______ _______ _____ _____    ______ ____
ROOT
ATOM      1  C   UNL     1      -7.387   6.690 131.149  0.00  0.00    +0.000 A 
ATOM      2  N   UNL     1      -8.386   6.720 130.282  0.00  0.00    +0.000 NA
ATOM      3  N   UNL     1      -9.312   5.872 130.807  0.00  0.00    +0.000 N 
ATOM      4  C   UNL     1      -8.927   5.358 132.031  0.00  0.00    +0.000 A 
ATOM      5  C   UNL     1      -9.553   4.481 132.930  0.00  0.00    +0.000 A 
ATOM      6  C   UNL     1      -8.873   4.182 134.117  0.00  0.00    +0.000 A 
ATOM      7  C   UNL     1      -7.635   4.746 134.407  0.00  0.00    +0.000 A 
ATOM      8  C   UNL     1      -7.038   5.624 133.510  0.00  0.00    +0.000 A 
ATOM      9  C   UNL     1      -7.672   5.912 132.292  0.00  0.00    +0.000 A 
ENDROOT
BRANCH   1  10
ATOM     10  O   UNL     1      -6.300   7.441 130.846  0.00  0.00    +0.000 OA
BRANCH  10  11
ATOM     11  C   UNL     1      -5.069   6.721 130.920  0.00  0.00    +0.000 C 
BRANCH  11  12
ATOM     12  C   UNL     1      -3.917   7.670 130.628  0.00  0.00    +0.000 C 
BRANCH  12  13
ATOM     13  C   UNL     1      -3.820   7.997 129.129  0.00  0.00    +0.000 C 
BRANCH  13  15
ATOM     14  C   UNL     1      -1.983   6.442 129.326  0.00  0.00    +0.000 C 
ATOM     15  N   UNL     1      -2.933   7.071 128.402  0.00  0.00    +0.000 NA
ATOM     16  C   UNL     1      -3.695   6.027 127.712  0.00  0.00    +0.000 C 
ENDBRANCH  13  15
ENDBRANCH  12  13
ENDBRANCH  11  12
ENDBRANCH  10  11
ENDBRANCH   1  10
BRANCH   3  17
ATOM     17  C   UNL     1     -10.567   5.539 130.105  0.00  0.00    +0.000 C 
BRANCH  17  18
ATOM     18  C   UNL     1     -11.421   6.733 129.751  0.00  0.00    +0.000 A 
ATOM     19  C   UNL     1     -11.373   7.240 128.445  0.00  0.00    +0.000 A 
ATOM     20  C   UNL     1     -11.937   8.474 128.144  0.00  0.00    +0.000 A 
ATOM     21  C   UNL     1     -12.690   9.141 129.103  0.00  0.00    +0.000 A 
ATOM     22  C   UNL     1     -12.883   8.568 130.361  0.00  0.00    +0.000 A 
ATOM     23  C   UNL     1     -12.219   7.387 130.701  0.00  0.00    +0.000 A 
ENDBRANCH  17  18
ENDBRANCH   3  17
TORSDOF 7
ENDMDL
MODEL 7
REMARK VINA RESULT:      -6.7      6.904      9.284
REMARK  Name = Benzydamine
REMARK  9 active torsions:
REMARK  status: ('A' for Active; 'I' for Inactive)
REMARK    1  A    between atoms: C_1  and  N_2
REMARK    2  A    between atoms: N_2  and  C_3
REMARK    3  A    between atoms: N_2  and  C_4
REMARK    4  A    between atoms: C_4  and  C_5
REMARK    5  A    between atoms: C_5  and  C_6
REMARK    6  A    between atoms: C_6  and  O_7
REMARK    7  A    between atoms: O_7  and  C_8
REMARK    8  A    between atoms: N_10  and  C_11
REMARK    9  A    between atoms: C_11  and  C_12
REMARK                            x       y       z     vdW  Elec       q    Type
REMARK                         _______ _______ _______ _____ _____    ______ ____
ROOT
ATOM      1  C   UNL     1      -9.084   6.893 130.226  0.00  0.00    +0.000 A 
ATOM      2  N   UNL     1      -9.192   5.648 130.659  0.00  0.00    +0.000 NA
ATOM      3  N   UNL     1     -10.445   5.270 130.283  0.00  0.00    +0.000 N 
ATOM      4  C   UNL     1     -11.100   6.250 129.561  0.00  0.00    +0.000 A 
ATOM      5  C   UNL     1     -12.370   6.299 128.966  0.00  0.00    +0.000 A 
ATOM      6  C   UNL     1     -12.712   7.468 128.274  0.00  0.00    +0.000 A 
ATOM      7  C   UNL     1     -11.824   8.532 128.162  0.00  0.00    +0.000 A 
ATOM      8  C   UNL     1     -10.565   8.458 128.746  0.00  0.00    +0.000 A 
ATOM      9  C   UNL     1     -10.205   7.319 129.482  0.00  0.00    +0.000 A 
ENDROOT
BRANCH   1  10
ATOM     10  O   UNL     1      -7.918   7.530 130.499  0.00  0.00    +0.000 OA
BRANCH  10  11
ATOM     11  C   UNL     1      -6.995   6.735 131.245  0.00  0.00    +0.000 C 
BRANCH  11  12
ATOM     12  C   UNL     1      -5.575   7.146 130.883  0.00  0.00    +0.000 C 
BRANCH  12  13
ATOM     13  C   UNL     1      -4.857   6.050 130.081  0.00  0.00    +0.000 C 
BRANCH  13  15
ATOM     14  C   UNL     1      -3.526   7.640 128.844  0.00  0.00    +0.000 C 
ATOM     15  N   UNL     1      -4.448   6.504 128.739  0.00  0.00    +0.000 NA
ATOM     16  C   UNL     1      -3.802   5.429 127.982  0.00  0.00    +0.000 C 
ENDBRANCH  13  15
ENDBRANCH  12  13
ENDBRANCH  11  12
ENDBRANCH  10  11
ENDBRANCH   1  10
BRANCH   3  17
ATOM     17  C   UNL     1     -11.019   3.961 130.649  0.00  0.00    +0.000 C 
BRANCH  17  18
ATOM     18  C   UNL     1     -10.010   2.841 130.742  0.00  0.00    +0.000 A 
ATOM     19  C   UNL     1      -9.156   2.602 129.656  0.00  0.00    +0.000 A 
ATOM     20  C   UNL     1      -8.397   1.439 129.594  0.00  0.00    +0.000 A 
ATOM     21  C   UNL     1      -8.363   0.580 130.685  0.00  0.00    +0.000 A 
ATOM     22  C   UNL     1      -9.083   0.888 131.840  0.00  0.00    +0.000 A 
ATOM     23  C   UNL     1      -9.937   1.994 131.857  0.00  0.00    +0.000 A 
ENDBRANCH  17  18
ENDBRANCH   3  17
TORSDOF 7
ENDMDL
MODEL 8
REMARK VINA RESULT:      -6.7      7.040      9.688
REMARK  Name = Benzydamine
REMARK  9 active torsions:
REMARK  status: ('A' for Active; 'I' for Inactive)
REMARK    1  A    between atoms: C_1  and  N_2
REMARK    2  A    between atoms: N_2  and  C_3
REMARK    3  A    between atoms: N_2  and  C_4
REMARK    4  A    between atoms: C_4  and  C_5
REMARK    5  A    between atoms: C_5  and  C_6
REMARK    6  A    between atoms: C_6  and  O_7
REMARK    7  A    between atoms: O_7  and  C_8
REMARK    8  A    between atoms: N_10  and  C_11
REMARK    9  A    between atoms: C_11  and  C_12
REMARK                            x       y       z     vdW  Elec       q    Type
REMARK                         _______ _______ _______ _____ _____    ______ ____
ROOT
ATOM      1  C   UNL     1      -8.511   5.151 129.284  0.00  0.00    +0.000 A 
ATOM      2  N   UNL     1      -9.794   5.230 128.970  0.00  0.00    +0.000 NA
ATOM      3  N   UNL     1     -10.417   5.452 130.159  0.00  0.00    +0.000 N 
ATOM      4  C   UNL     1      -9.527   5.577 131.210  0.00  0.00    +0.000 A 
ATOM      5  C   UNL     1      -9.707   5.824 132.579  0.00  0.00    +0.000 A 
ATOM      6  C   UNL     1      -8.557   5.914 133.374  0.00  0.00    +0.000 A 
ATOM      7  C   UNL     1      -7.285   5.783 132.828  0.00  0.00    +0.000 A 
ATOM      8  C   UNL     1      -7.127   5.553 131.466  0.00  0.00    +0.000 A 
ATOM      9  C   UNL     1      -8.259   5.416 130.648  0.00  0.00    +0.000 A 
ENDROOT
BRANCH   1  10
ATOM     10  O   UNL     1      -7.652   4.902 128.265  0.00  0.00    +0.000 OA
BRANCH  10  11
ATOM     11  C   UNL     1      -7.135   3.571 128.267  0.00  0.00    +0.000 C 
BRANCH  11  12
ATOM     12  C   UNL     1      -7.561   2.868 126.987  0.00  0.00    +0.000 C 
BRANCH  12  13
ATOM     13  C   UNL     1      -7.903   3.873 125.877  0.00  0.00    +0.000 C 
BRANCH  13  15
ATOM     14  C   UNL     1      -8.046   3.298 123.536  0.00  0.00    +0.000 C 
ATOM     15  N   UNL     1      -8.750   3.288 124.822  0.00  0.00    +0.000 NA
ATOM     16  C   UNL     1      -9.137   1.912 125.146  0.00  0.00    +0.000 C 
ENDBRANCH  13  15
ENDBRANCH  12  13
ENDBRANCH  11  12
ENDBRANCH  10  11
ENDBRANCH   1  10
BRANCH   3  17
ATOM     17  C   UNL     1     -11.886   5.518 130.281  0.00  0.00    +0.000 C 
BRANCH  17  18
ATOM     18  C   UNL     1     -12.505   6.772 129.711  0.00  0.00    +0.000 A 
ATOM     19  C   UNL     1     -13.255   6.684 128.529  0.00  0.00    +0.000 A 
ATOM     20  C   UNL     1     -13.623   7.831 127.837  0.00  0.00    +0.000 A 
ATOM     21  C   UNL     1     -13.385   9.081 128.399  0.00  0.00    +0.000 A 
ATOM     22  C   UNL     1     -12.784   9.180 129.654  0.00  0.00    +0.000 A 
ATOM     23  C   UNL     1     -12.307   8.032 130.293  0.00  0.00    +0.000 A 
ENDBRANCH  17  18
ENDBRANCH   3  17
TORSDOF 7
ENDMDL
MODEL 9
REMARK VINA RESULT:      -6.7      2.082      7.208
REMARK  Name = Benzydamine
REMARK  9 active torsions:
REMARK  status: ('A' for Active; 'I' for Inactive)
REMARK    1  A    between atoms: C_1  and  N_2
REMARK    2  A    between atoms: N_2  and  C_3
REMARK    3  A    between atoms: N_2  and  C_4
REMARK    4  A    between atoms: C_4  and  C_5
REMARK    5  A    between atoms: C_5  and  C_6
REMARK    6  A    between atoms: C_6  and  O_7
REMARK    7  A    between atoms: O_7  and  C_8
REMARK    8  A    between atoms: N_10  and  C_11
REMARK    9  A    between atoms: C_11  and  C_12
REMARK                            x       y       z     vdW  Elec       q    Type
REMARK                         _______ _______ _______ _____ _____    ______ ____
ROOT
ATOM      1  C   UNL     1      -6.320   0.038 125.044  0.00  0.00    +0.000 A 
ATOM      2  N   UNL     1      -6.576   1.332 124.941  0.00  0.00    +0.000 NA
ATOM      3  N   UNL     1      -7.652   1.395 124.110  0.00  0.00    +0.000 N 
ATOM      4  C   UNL     1      -8.111   0.145 123.740  0.00  0.00    +0.000 A 
ATOM      5  C   UNL     1      -9.180  -0.271 122.931  0.00  0.00    +0.000 A 
ATOM      6  C   UNL     1      -9.378  -1.649 122.784  0.00  0.00    +0.000 A 
ATOM      7  C   UNL     1      -8.564  -2.573 123.430  0.00  0.00    +0.000 A 
ATOM      8  C   UNL     1      -7.519  -2.141 124.239  0.00  0.00    +0.000 A 
ATOM      9  C   UNL     1      -7.266  -0.768 124.374  0.00  0.00    +0.000 A 
ENDROOT
BRANCH   1  10
ATOM     10  O   UNL     1      -5.256  -0.310 125.810  0.00  0.00    +0.000 OA
BRANCH  10  11
ATOM     11  C   UNL     1      -5.532  -0.294 127.211  0.00  0.00    +0.000 C 
BRANCH  11  12
ATOM     12  C   UNL     1      -5.786  -1.716 127.686  0.00  0.00    +0.000 C 
BRANCH  12  13
ATOM     13  C   UNL     1      -7.274  -1.953 127.991  0.00  0.00    +0.000 C 
BRANCH  13  15
ATOM     14  C   UNL     1      -7.527  -3.282 129.991  0.00  0.00    +0.000 C 
ATOM     15  N   UNL     1      -7.536  -3.302 128.525  0.00  0.00    +0.000 NA
ATOM     16  C   UNL     1      -8.825  -3.822 128.060  0.00  0.00    +0.000 C 
ENDBRANCH  13  15
ENDBRANCH  12  13
ENDBRANCH  11  12
ENDBRANCH  10  11
ENDBRANCH   1  10
BRANCH   3  17
ATOM     17  C   UNL     1      -8.221   2.677 123.650  0.00  0.00    +0.000 C 
BRANCH  17  18
ATOM     18  C   UNL     1      -7.785   3.094 122.266  0.00  0.00    +0.000 A 
ATOM     19  C   UNL     1      -6.415   3.144 121.970  0.00  0.00    +0.000 A 
ATOM     20  C   UNL     1      -5.964   3.758 120.808  0.00  0.00    +0.000 A 
ATOM     21  C   UNL     1      -6.880   4.187 119.855  0.00  0.00    +0.000 A 
ATOM     22  C   UNL     1      -8.246   3.995 120.063  0.00  0.00    +0.000 A 
ATOM     23  C   UNL     1      -8.703   3.486 121.282  0.00  0.00    +0.000 A 
ENDBRANCH  17  18
ENDBRANCH   3  17
TORSDOF 7
ENDMDL
