MODEL 1
REMARK VINA RESULT:      -6.8      0.000      0.000
REMARK  Name = Benznidazole
REMARK  4 active torsions:
REMARK  status: ('A' for Active; 'I' for Inactive)
REMARK    1  A    between atoms: N_8  and  C_9
REMARK    2  A    between atoms: C_9  and  C_10
REMARK    3  A    between atoms: N_12  and  C_13
REMARK    4  A    between atoms: C_13  and  C_14
REMARK                            x       y       z     vdW  Elec       q    Type
REMARK                         _______ _______ _______ _____ _____    ______ ____
ROOT
ATOM      1  C   UNL     1      -9.846   0.045 122.836  0.00  0.00    +0.000 C 
ATOM      2  O   UNL     1     -10.995   0.460 122.682  0.00  0.00    +0.000 OA
ATOM      3  N   UNL     1      -8.843   0.916 123.169  0.00  0.00    +0.000 N 
ATOM      4  H   UNL     1      -8.117   0.625 123.817  0.00  0.00    +0.000 HD
ENDROOT
BRANCH   1   5
ATOM      5  C   UNL     1      -9.517  -1.424 122.704  0.00  0.00    +0.000 C 
BRANCH   5  13
ATOM      6  O   UNL     1      -5.501  -2.536 122.661  0.00  0.00    +0.000 OA
ATOM      7  N   UNL     1      -6.325  -1.717 123.094  0.00  0.00    +0.000 N 
ATOM      8  O   UNL     1      -6.318  -0.490 122.902  0.00  0.00    +0.000 OA
ATOM      9  C   UNL     1      -7.366  -2.219 123.941  0.00  0.00    +0.000 A 
ATOM     10  N   UNL     1      -7.072  -2.859 125.056  0.00  0.00    +0.000 NA
ATOM     11  C   UNL     1      -8.262  -3.017 125.700  0.00  0.00    +0.000 A 
ATOM     12  C   UNL     1      -9.295  -2.489 124.959  0.00  0.00    +0.000 A 
ATOM     13  N   UNL     1      -8.717  -1.996 123.798  0.00  0.00    +0.000 N 
ENDBRANCH   5  13
ENDBRANCH   1   5
BRANCH   3  14
ATOM     14  C   UNL     1      -9.139   2.339 123.075  0.00  0.00    +0.000 C 
BRANCH  14  15
ATOM     15  C   UNL     1      -8.221   3.023 122.113  0.00  0.00    +0.000 A 
ATOM     16  C   UNL     1      -8.712   3.592 120.933  0.00  0.00    +0.000 A 
ATOM     17  C   UNL     1      -7.822   4.082 119.981  0.00  0.00    +0.000 A 
ATOM     18  C   UNL     1      -6.452   4.082 120.238  0.00  0.00    +0.000 A 
ATOM     19  C   UNL     1      -5.962   3.574 121.440  0.00  0.00    +0.000 A 
ATOM     20  C   UNL     1      -6.844   3.046 122.376  0.00  0.00    +0.000 A 
ENDBRANCH  14  15
ENDBRANCH   3  14
TORSDOF 4
ENDMDL
MODEL 2
REMARK VINA RESULT:      -6.7      9.006     10.218
REMARK  Name = Benznidazole
REMARK  4 active torsions:
REMARK  status: ('A' for Active; 'I' for Inactive)
REMARK    1  A    between atoms: N_8  and  C_9
REMARK    2  A    between atoms: C_9  and  C_10
REMARK    3  A    between atoms: N_12  and  C_13
REMARK    4  A    between atoms: C_13  and  C_14
REMARK                            x       y       z     vdW  Elec       q    Type
REMARK                         _______ _______ _______ _____ _____    ______ ____
ROOT
ATOM      1  C   UNL     1     -10.101   5.585 131.970  0.00  0.00    +0.000 C 
ATOM      2  O   UNL     1      -9.872   6.446 132.819  0.00  0.00    +0.000 OA
ATOM      3  N   UNL     1     -11.202   5.697 131.162  0.00  0.00    +0.000 N 
ATOM      4  H   UNL     1     -11.142   5.418 130.187  0.00  0.00    +0.000 HD
ENDROOT
BRANCH   1   5
ATOM      5  C   UNL     1      -9.166   4.416 131.765  0.00  0.00    +0.000 C 
BRANCH   5  13
ATOM      6  O   UNL     1      -8.286   3.946 127.719  0.00  0.00    +0.000 OA
ATOM      7  N   UNL     1      -8.500   4.765 128.624  0.00  0.00    +0.000 N 
ATOM      8  O   UNL     1      -9.410   5.610 128.657  0.00  0.00    +0.000 OA
ATOM      9  C   UNL     1      -7.585   4.779 129.727  0.00  0.00    +0.000 A 
ATOM     10  N   UNL     1      -6.298   4.991 129.526  0.00  0.00    +0.000 NA
ATOM     11  C   UNL     1      -5.763   5.135 130.771  0.00  0.00    +0.000 A 
ATOM     12  C   UNL     1      -6.729   4.985 131.740  0.00  0.00    +0.000 A 
ATOM     13  N   UNL     1      -7.911   4.722 131.063  0.00  0.00    +0.000 N 
ENDBRANCH   5  13
ENDBRANCH   1   5
BRANCH   3  14
ATOM     14  C   UNL     1     -12.192   6.703 131.522  0.00  0.00    +0.000 C 
BRANCH  14  15
ATOM     15  C   UNL     1     -12.708   7.415 130.313  0.00  0.00    +0.000 A 
ATOM     16  C   UNL     1     -13.083   6.705 129.167  0.00  0.00    +0.000 A 
ATOM     17  C   UNL     1     -13.409   7.395 128.002  0.00  0.00    +0.000 A 
ATOM     18  C   UNL     1     -13.442   8.789 128.002  0.00  0.00    +0.000 A 
ATOM     19  C   UNL     1     -13.131   9.500 129.159  0.00  0.00    +0.000 A 
ATOM     20  C   UNL     1     -12.764   8.816 130.312  0.00  0.00    +0.000 A 
ENDBRANCH  14  15
ENDBRANCH   3  14
TORSDOF 4
ENDMDL
MODEL 3
REMARK VINA RESULT:      -6.7      9.354     10.496
REMARK  Name = Benznidazole
REMARK  4 active torsions:
REMARK  status: ('A' for Active; 'I' for Inactive)
REMARK    1  A    between atoms: N_8  and  C_9
REMARK    2  A    between atoms: C_9  and  C_10
REMARK    3  A    between atoms: N_12  and  C_13
REMARK    4  A    between atoms: C_13  and  C_14
REMARK                            x       y       z     vdW  Elec       q    Type
REMARK                         _______ _______ _______ _____ _____    ______ ____
ROOT
ATOM      1  C   UNL     1     -10.139   5.568 132.062  0.00  0.00    +0.000 C 
ATOM      2  O   UNL     1      -9.858   6.487 132.832  0.00  0.00    +0.000 OA
ATOM      3  N   UNL     1     -11.261   5.649 131.281  0.00  0.00    +0.000 N 
ATOM      4  H   UNL     1     -11.241   5.292 130.331  0.00  0.00    +0.000 HD
ENDROOT
BRANCH   1   5
ATOM      5  C   UNL     1      -9.246   4.357 131.926  0.00  0.00    +0.000 C 
BRANCH   5  13
ATOM      6  O   UNL     1      -6.844   7.502 130.617  0.00  0.00    +0.000 OA
ATOM      7  N   UNL     1      -6.853   6.388 131.160  0.00  0.00    +0.000 N 
ATOM      8  O   UNL     1      -6.431   6.115 132.295  0.00  0.00    +0.000 OA
ATOM      9  C   UNL     1      -7.356   5.288 130.391  0.00  0.00    +0.000 A 
ATOM     10  N   UNL     1      -6.807   4.974 129.233  0.00  0.00    +0.000 NA
ATOM     11  C   UNL     1      -7.382   3.790 128.877  0.00  0.00    +0.000 A 
ATOM     12  C   UNL     1      -8.307   3.392 129.815  0.00  0.00    +0.000 A 
ATOM     13  N   UNL     1      -8.314   4.381 130.787  0.00  0.00    +0.000 N 
ENDBRANCH   5  13
ENDBRANCH   1   5
BRANCH   3  14
ATOM     14  C   UNL     1     -12.210   6.712 131.588  0.00  0.00    +0.000 C 
BRANCH  14  15
ATOM     15  C   UNL     1     -12.694   7.384 130.343  0.00  0.00    +0.000 A 
ATOM     16  C   UNL     1     -13.057   6.637 129.218  0.00  0.00    +0.000 A 
ATOM     17  C   UNL     1     -13.352   7.287 128.022  0.00  0.00    +0.000 A 
ATOM     18  C   UNL     1     -13.367   8.680 127.969  0.00  0.00    +0.000 A 
ATOM     19  C   UNL     1     -13.068   9.430 129.105  0.00  0.00    +0.000 A 
ATOM     20  C   UNL     1     -12.732   8.785 130.289  0.00  0.00    +0.000 A 
ENDBRANCH  14  15
ENDBRANCH   3  14
TORSDOF 4
ENDMDL
MODEL 4
REMARK VINA RESULT:      -6.5      2.539      6.024
REMARK  Name = Benznidazole
REMARK  4 active torsions:
REMARK  status: ('A' for Active; 'I' for Inactive)
REMARK    1  A    between atoms: N_8  and  C_9
REMARK    2  A    between atoms: C_9  and  C_10
REMARK    3  A    between atoms: N_12  and  C_13
REMARK    4  A    between atoms: C_13  and  C_14
REMARK                            x       y       z     vdW  Elec       q    Type
REMARK                         _______ _______ _______ _____ _____    ______ ____
ROOT
ATOM      1  C   UNL     1      -9.339   0.816 122.932  0.00  0.00    +0.000 C 
ATOM      2  O   UNL     1     -10.311   0.128 122.618  0.00  0.00    +0.000 OA
ATOM      3  N   UNL     1      -8.287   0.249 123.601  0.00  0.00    +0.000 N 
ATOM      4  H   UNL     1      -7.338   0.539 123.387  0.00  0.00    +0.000 HD
ENDROOT
BRANCH   1   5
ATOM      5  C   UNL     1      -9.259   2.278 122.559  0.00  0.00    +0.000 C 
BRANCH   5  13
ATOM      6  O   UNL     1      -8.699   4.834 125.801  0.00  0.00    +0.000 OA
ATOM      7  N   UNL     1      -8.442   3.717 125.333  0.00  0.00    +0.000 N 
ATOM      8  O   UNL     1      -8.729   2.619 125.837  0.00  0.00    +0.000 OA
ATOM      9  C   UNL     1      -7.698   3.674 124.109  0.00  0.00    +0.000 A 
ATOM     10  N   UNL     1      -6.506   4.235 124.030  0.00  0.00    +0.000 NA
ATOM     11  C   UNL     1      -6.008   3.845 122.823  0.00  0.00    +0.000 A 
ATOM     12  C   UNL     1      -6.916   3.059 122.150  0.00  0.00    +0.000 A 
ATOM     13  N   UNL     1      -8.029   2.971 122.972  0.00  0.00    +0.000 N 
ENDBRANCH   5  13
ENDBRANCH   1   5
BRANCH   3  14
ATOM     14  C   UNL     1      -8.483  -1.092 124.136  0.00  0.00    +0.000 C 
BRANCH  14  15
ATOM     15  C   UNL     1      -7.286  -1.955 123.893  0.00  0.00    +0.000 A 
ATOM     16  C   UNL     1      -6.889  -2.912 124.832  0.00  0.00    +0.000 A 
ATOM     17  C   UNL     1      -5.685  -3.592 124.660  0.00  0.00    +0.000 A 
ATOM     18  C   UNL     1      -4.921  -3.378 123.514  0.00  0.00    +0.000 A 
ATOM     19  C   UNL     1      -5.344  -2.471 122.544  0.00  0.00    +0.000 A 
ATOM     20  C   UNL     1      -6.524  -1.761 122.733  0.00  0.00    +0.000 A 
ENDBRANCH  14  15
ENDBRANCH   3  14
TORSDOF 4
ENDMDL
MODEL 5
REMARK VINA RESULT:      -6.1      7.172      8.742
REMARK  Name = Benznidazole
REMARK  4 active torsions:
REMARK  status: ('A' for Active; 'I' for Inactive)
REMARK    1  A    between atoms: N_8  and  C_9
REMARK    2  A    between atoms: C_9  and  C_10
REMARK    3  A    between atoms: N_12  and  C_13
REMARK    4  A    between atoms: C_13  and  C_14
REMARK                            x       y       z     vdW  Elec       q    Type
REMARK                         _______ _______ _______ _____ _____    ______ ____
ROOT
ATOM      1  C   UNL     1      -7.546   4.918 129.361  0.00  0.00    +0.000 C 
ATOM      2  O   UNL     1      -6.672   5.587 129.913  0.00  0.00    +0.000 OA
ATOM      3  N   UNL     1      -8.852   5.329 129.405  0.00  0.00    +0.000 N 
ATOM      4  H   UNL     1      -9.448   5.202 128.593  0.00  0.00    +0.000 HD
ENDROOT
BRANCH   1   5
ATOM      5  C   UNL     1      -7.205   3.663 128.592  0.00  0.00    +0.000 C 
BRANCH   5  13
ATOM      6  O   UNL     1      -8.796   3.818 124.744  0.00  0.00    +0.000 OA
ATOM      7  N   UNL     1      -8.274   4.476 125.655  0.00  0.00    +0.000 N 
ATOM      8  O   UNL     1      -8.775   5.446 126.246  0.00  0.00    +0.000 OA
ATOM      9  C   UNL     1      -6.941   4.120 126.041  0.00  0.00    +0.000 A 
ATOM     10  N   UNL     1      -5.961   4.137 125.157  0.00  0.00    +0.000 NA
ATOM     11  C   UNL     1      -4.824   3.947 125.883  0.00  0.00    +0.000 A 
ATOM     12  C   UNL     1      -5.116   3.789 127.219  0.00  0.00    +0.000 A 
ATOM     13  N   UNL     1      -6.496   3.871 127.320  0.00  0.00    +0.000 N 
ENDBRANCH   5  13
ENDBRANCH   1   5
BRANCH   3  14
ATOM     14  C   UNL     1      -9.179   6.409 130.325  0.00  0.00    +0.000 C 
BRANCH  14  15
ATOM     15  C   UNL     1     -10.423   7.123 129.905  0.00  0.00    +0.000 A 
ATOM     16  C   UNL     1     -10.465   7.853 128.712  0.00  0.00    +0.000 A 
ATOM     17  C   UNL     1     -11.578   8.637 128.419  0.00  0.00    +0.000 A 
ATOM     18  C   UNL     1     -12.682   8.629 129.272  0.00  0.00    +0.000 A 
ATOM     19  C   UNL     1     -12.670   7.855 130.430  0.00  0.00    +0.000 A 
ATOM     20  C   UNL     1     -11.545   7.103 130.747  0.00  0.00    +0.000 A 
ENDBRANCH  14  15
ENDBRANCH   3  14
TORSDOF 4
ENDMDL
MODEL 6
REMARK VINA RESULT:      -6.1      3.527      6.546
REMARK  Name = Benznidazole
REMARK  4 active torsions:
REMARK  status: ('A' for Active; 'I' for Inactive)
REMARK    1  A    between atoms: N_8  and  C_9
REMARK    2  A    between atoms: C_9  and  C_10
REMARK    3  A    between atoms: N_12  and  C_13
REMARK    4  A    between atoms: C_13  and  C_14
REMARK                            x       y       z     vdW  Elec       q    Type
REMARK                         _______ _______ _______ _____ _____    ______ ____
ROOT
ATOM      1  C   UNL     1      -6.935   2.800 123.046  0.00  0.00    +0.000 C 
ATOM      2  O   UNL     1      -7.613   2.901 122.023  0.00  0.00    +0.000 OA
ATOM      3  N   UNL     1      -6.941   1.630 123.758  0.00  0.00    +0.000 N 
ATOM      4  H   UNL     1      -6.084   1.296 124.187  0.00  0.00    +0.000 HD
ENDROOT
BRANCH   1   5
ATOM      5  C   UNL     1      -6.054   3.933 123.519  0.00  0.00    +0.000 C 
BRANCH   5  13
ATOM      6  O   UNL     1      -8.880   5.726 126.002  0.00  0.00    +0.000 OA
ATOM      7  N   UNL     1      -8.348   4.656 125.675  0.00  0.00    +0.000 N 
ATOM      8  O   UNL     1      -8.921   3.658 125.208  0.00  0.00    +0.000 OA
ATOM      9  C   UNL     1      -6.938   4.529 125.897  0.00  0.00    +0.000 A 
ATOM     10  N   UNL     1      -6.435   4.673 127.108  0.00  0.00    +0.000 NA
ATOM     11  C   UNL     1      -5.129   4.300 126.998  0.00  0.00    +0.000 A 
ATOM     12  C   UNL     1      -4.828   3.948 125.701  0.00  0.00    +0.000 A 
ATOM     13  N   UNL     1      -5.997   4.126 124.976  0.00  0.00    +0.000 N 
ENDBRANCH   5  13
ENDBRANCH   1   5
BRANCH   3  14
ATOM     14  C   UNL     1      -7.954   0.643 123.408  0.00  0.00    +0.000 C 
BRANCH  14  15
ATOM     15  C   UNL     1      -7.527  -0.736 123.796  0.00  0.00    +0.000 A 
ATOM     16  C   UNL     1      -6.194  -1.010 124.120  0.00  0.00    +0.000 A 
ATOM     17  C   UNL     1      -5.789  -2.327 124.324  0.00  0.00    +0.000 A 
ATOM     18  C   UNL     1      -6.725  -3.360 124.286  0.00  0.00    +0.000 A 
ATOM     19  C   UNL     1      -8.066  -3.084 124.026  0.00  0.00    +0.000 A 
ATOM     20  C   UNL     1      -8.467  -1.776 123.782  0.00  0.00    +0.000 A 
ENDBRANCH  14  15
ENDBRANCH   3  14
TORSDOF 4
ENDMDL
MODEL 7
REMARK VINA RESULT:      -6.1      2.073      3.217
REMARK  Name = Benznidazole
REMARK  4 active torsions:
REMARK  status: ('A' for Active; 'I' for Inactive)
REMARK    1  A    between atoms: N_8  and  C_9
REMARK    2  A    between atoms: C_9  and  C_10
REMARK    3  A    between atoms: N_12  and  C_13
REMARK    4  A    between atoms: C_13  and  C_14
REMARK                            x       y       z     vdW  Elec       q    Type
REMARK                         _______ _______ _______ _____ _____    ______ ____
ROOT
ATOM      1  C   UNL     1      -6.634   1.406 125.432  0.00  0.00    +0.000 C 
ATOM      2  O   UNL     1      -5.651   1.934 125.952  0.00  0.00    +0.000 OA
ATOM      3  N   UNL     1      -7.343   2.076 124.471  0.00  0.00    +0.000 N 
ATOM      4  H   UNL     1      -7.723   1.568 123.678  0.00  0.00    +0.000 HD
ENDROOT
BRANCH   1   5
ATOM      5  C   UNL     1      -7.058   0.003 125.802  0.00  0.00    +0.000 C 
BRANCH   5  13
ATOM      6  O   UNL     1      -9.753  -2.047 123.373  0.00  0.00    +0.000 OA
ATOM      7  N   UNL     1      -8.854  -1.195 123.399  0.00  0.00    +0.000 N 
ATOM      8  O   UNL     1      -8.950  -0.007 123.050  0.00  0.00    +0.000 OA
ATOM      9  C   UNL     1      -7.556  -1.625 123.829  0.00  0.00    +0.000 A 
ATOM     10  N   UNL     1      -6.930  -2.599 123.197  0.00  0.00    +0.000 NA
ATOM     11  C   UNL     1      -5.674  -2.616 123.725  0.00  0.00    +0.000 A 
ATOM     12  C   UNL     1      -5.541  -1.658 124.704  0.00  0.00    +0.000 A 
ATOM     13  N   UNL     1      -6.775  -1.032 124.796  0.00  0.00    +0.000 N 
ENDBRANCH   5  13
ENDBRANCH   1   5
BRANCH   3  14
ATOM     14  C   UNL     1      -7.049   3.491 124.293  0.00  0.00    +0.000 C 
BRANCH  14  15
ATOM     15  C   UNL     1      -6.402   3.750 122.970  0.00  0.00    +0.000 A 
ATOM     16  C   UNL     1      -5.156   4.382 122.891  0.00  0.00    +0.000 A 
ATOM     17  C   UNL     1      -4.647   4.753 121.648  0.00  0.00    +0.000 A 
ATOM     18  C   UNL     1      -5.338   4.422 120.483  0.00  0.00    +0.000 A 
ATOM     19  C   UNL     1      -6.549   3.737 120.554  0.00  0.00    +0.000 A 
ATOM     20  C   UNL     1      -7.080   3.401 121.794  0.00  0.00    +0.000 A 
ENDBRANCH  14  15
ENDBRANCH   3  14
TORSDOF 4
ENDMDL
MODEL 8
REMARK VINA RESULT:      -6.1      9.591     10.447
REMARK  Name = Benznidazole
REMARK  4 active torsions:
REMARK  status: ('A' for Active; 'I' for Inactive)
REMARK    1  A    between atoms: N_8  and  C_9
REMARK    2  A    between atoms: C_9  and  C_10
REMARK    3  A    between atoms: N_12  and  C_13
REMARK    4  A    between atoms: C_13  and  C_14
REMARK                            x       y       z     vdW  Elec       q    Type
REMARK                         _______ _______ _______ _____ _____    ______ ____
ROOT
ATOM      1  C   UNL     1      -9.505   5.683 131.249  0.00  0.00    +0.000 C 
ATOM      2  O   UNL     1      -9.224   6.761 131.775  0.00  0.00    +0.000 OA
ATOM      3  N   UNL     1     -10.797   5.418 130.881  0.00  0.00    +0.000 N 
ATOM      4  H   UNL     1     -10.981   4.905 130.024  0.00  0.00    +0.000 HD
ENDROOT
BRANCH   1   5
ATOM      5  C   UNL     1      -8.440   4.650 130.961  0.00  0.00    +0.000 C 
BRANCH   5  13
ATOM      6  O   UNL     1      -6.775   3.132 134.466  0.00  0.00    +0.000 OA
ATOM      7  N   UNL     1      -7.813   3.545 133.930  0.00  0.00    +0.000 N 
ATOM      8  O   UNL     1      -8.500   4.513 134.296  0.00  0.00    +0.000 OA
ATOM      9  C   UNL     1      -8.306   2.811 132.802  0.00  0.00    +0.000 A 
ATOM     10  N   UNL     1      -8.600   1.530 132.913  0.00  0.00    +0.000 NA
ATOM     11  C   UNL     1      -9.213   1.203 131.741  0.00  0.00    +0.000 A 
ATOM     12  C   UNL     1      -9.272   2.290 130.898  0.00  0.00    +0.000 A 
ATOM     13  N   UNL     1      -8.654   3.331 131.575  0.00  0.00    +0.000 N 
ENDBRANCH   5  13
ENDBRANCH   1   5
BRANCH   3  14
ATOM     14  C   UNL     1     -11.827   6.328 131.363  0.00  0.00    +0.000 C 
BRANCH  14  15
ATOM     15  C   UNL     1     -12.454   7.086 130.238  0.00  0.00    +0.000 A 
ATOM     16  C   UNL     1     -12.902   6.426 129.089  0.00  0.00    +0.000 A 
ATOM     17  C   UNL     1     -13.336   7.166 127.991  0.00  0.00    +0.000 A 
ATOM     18  C   UNL     1     -13.401   8.556 128.068  0.00  0.00    +0.000 A 
ATOM     19  C   UNL     1     -13.014   9.216 129.233  0.00  0.00    +0.000 A 
ATOM     20  C   UNL     1     -12.542   8.483 130.316  0.00  0.00    +0.000 A 
ENDBRANCH  14  15
ENDBRANCH   3  14
TORSDOF 4
ENDMDL
MODEL 9
REMARK VINA RESULT:      -6.0      2.780      7.171
REMARK  Name = Benznidazole
REMARK  4 active torsions:
REMARK  status: ('A' for Active; 'I' for Inactive)
REMARK    1  A    between atoms: N_8  and  C_9
REMARK    2  A    between atoms: C_9  and  C_10
REMARK    3  A    between atoms: N_12  and  C_13
REMARK    4  A    between atoms: C_13  and  C_14
REMARK                            x       y       z     vdW  Elec       q    Type
REMARK                         _______ _______ _______ _____ _____    ______ ____
ROOT
ATOM      1  C   UNL     1      -8.612  -0.320 125.905  0.00  0.00    +0.000 C 
ATOM      2  O   UNL     1      -9.528  -1.103 125.651  0.00  0.00    +0.000 OA
ATOM      3  N   UNL     1      -7.341  -0.793 126.099  0.00  0.00    +0.000 N 
ATOM      4  H   UNL     1      -6.547  -0.263 125.753  0.00  0.00    +0.000 HD
ENDROOT
BRANCH   1   5
ATOM      5  C   UNL     1      -8.849   1.171 125.969  0.00  0.00    +0.000 C 
BRANCH   5  13
ATOM      6  O   UNL     1     -10.567   0.185 122.303  0.00  0.00    +0.000 OA
ATOM      7  N   UNL     1     -10.588   0.978 123.254  0.00  0.00    +0.000 N 
ATOM      8  O   UNL     1     -11.549   1.206 124.006  0.00  0.00    +0.000 OA
ATOM      9  C   UNL     1      -9.404   1.751 123.490  0.00  0.00    +0.000 A 
ATOM     10  N   UNL     1      -8.918   2.536 122.548  0.00  0.00    +0.000 NA
ATOM     11  C   UNL     1      -7.934   3.255 123.157  0.00  0.00    +0.000 A 
ATOM     12  C   UNL     1      -7.803   2.888 124.477  0.00  0.00    +0.000 A 
ATOM     13  N   UNL     1      -8.739   1.886 124.688  0.00  0.00    +0.000 N 
ENDBRANCH   5  13
ENDBRANCH   1   5
BRANCH   3  14
ATOM     14  C   UNL     1      -7.183  -2.234 126.248  0.00  0.00    +0.000 C 
BRANCH  14  15
ATOM     15  C   UNL     1      -6.977  -2.614 127.679  0.00  0.00    +0.000 A 
ATOM     16  C   UNL     1      -8.046  -3.058 128.465  0.00  0.00    +0.000 A 
ATOM     17  C   UNL     1      -7.863  -3.254 129.832  0.00  0.00    +0.000 A 
ATOM     18  C   UNL     1      -6.601  -3.088 130.400  0.00  0.00    +0.000 A 
ATOM     19  C   UNL     1      -5.519  -2.707 129.609  0.00  0.00    +0.000 A 
ATOM     20  C   UNL     1      -5.706  -2.470 128.252  0.00  0.00    +0.000 A 
ENDBRANCH  14  15
ENDBRANCH   3  14
TORSDOF 4
ENDMDL
