MODEL 1
REMARK VINA RESULT:      -7.8      0.000      0.000
REMARK  Name = Benzatropine
REMARK  5 active torsions:
REMARK  status: ('A' for Active; 'I' for Inactive)
REMARK    1  A    between atoms: C_8  and  O_11
REMARK    2  A    between atoms: O_11  and  C_12
REMARK    3  A    between atoms: C_12  and  C_13
REMARK    4  A    between atoms: C_12  and  C_19
REMARK    5  A    between atoms: N_25  and  C_26
REMARK                            x       y       z     vdW  Elec       q    Type
REMARK                         _______ _______ _______ _____ _____    ______ ____
ROOT
ATOM      1  C   UNL     1      -7.899   2.439 123.388  0.00  0.00    +0.000 C 
ENDROOT
BRANCH   1   2
ATOM      2  C   UNL     1      -7.065   3.048 124.593  0.00  0.00    +0.000 A 
ATOM      3  C   UNL     1      -7.005   4.438 124.855  0.00  0.00    +0.000 A 
ATOM      4  C   UNL     1      -5.894   5.060 125.423  0.00  0.00    +0.000 A 
ATOM      5  C   UNL     1      -4.852   4.286 125.895  0.00  0.00    +0.000 A 
ATOM      6  C   UNL     1      -4.949   2.894 125.819  0.00  0.00    +0.000 A 
ATOM      7  C   UNL     1      -6.066   2.263 125.217  0.00  0.00    +0.000 A 
ENDBRANCH   1   2
BRANCH   1   8
ATOM      8  C   UNL     1      -7.419   2.989 122.045  0.00  0.00    +0.000 A 
ATOM      9  C   UNL     1      -8.287   3.517 121.080  0.00  0.00    +0.000 A 
ATOM     10  C   UNL     1      -7.755   4.179 119.970  0.00  0.00    +0.000 A 
ATOM     11  C   UNL     1      -6.391   4.451 119.878  0.00  0.00    +0.000 A 
ATOM     12  C   UNL     1      -5.523   3.879 120.801  0.00  0.00    +0.000 A 
ATOM     13  C   UNL     1      -6.051   3.032 121.751  0.00  0.00    +0.000 A 
ENDBRANCH   1   8
BRANCH   1  14
ATOM     14  O   UNL     1      -7.856   0.984 123.223  0.00  0.00    +0.000 OA
BRANCH  14  20
ATOM     15  C   UNL     1      -7.495  -1.550 125.036  0.00  0.00    +0.000 C 
ATOM     16  C   UNL     1      -6.334  -1.293 124.073  0.00  0.00    +0.000 C 
ATOM     17  C   UNL     1      -6.836  -1.789 122.719  0.00  0.00    +0.000 C 
ATOM     18  C   UNL     1      -8.274  -2.239 123.011  0.00  0.00    +0.000 C 
ATOM     19  C   UNL     1      -9.257  -1.038 122.839  0.00  0.00    +0.000 C 
ATOM     20  C   UNL     1      -8.922   0.172 123.753  0.00  0.00    +0.000 C 
ATOM     21  C   UNL     1      -8.545  -0.439 125.086  0.00  0.00    +0.000 C 
ATOM     22  N   UNL     1      -8.106  -2.704 124.402  0.00  0.00    +0.000 NA
ATOM     23  C   UNL     1      -9.272  -3.177 125.125  0.00  0.00    +0.000 C 
ENDBRANCH  14  20
ENDBRANCH   1  14
TORSDOF 4
ENDMDL
MODEL 2
REMARK VINA RESULT:      -7.5      2.678      6.373
REMARK  Name = Benzatropine
REMARK  5 active torsions:
REMARK  status: ('A' for Active; 'I' for Inactive)
REMARK    1  A    between atoms: C_8  and  O_11
REMARK    2  A    between atoms: O_11  and  C_12
REMARK    3  A    between atoms: C_12  and  C_13
REMARK    4  A    between atoms: C_12  and  C_19
REMARK    5  A    between atoms: N_25  and  C_26
REMARK                            x       y       z     vdW  Elec       q    Type
REMARK                         _______ _______ _______ _____ _____    ______ ____
ROOT
ATOM      1  C   UNL     1      -7.162  -0.568 125.948  0.00  0.00    +0.000 C 
ENDROOT
BRANCH   1   2
ATOM      2  C   UNL     1      -8.051  -1.521 126.852  0.00  0.00    +0.000 A 
ATOM      3  C   UNL     1      -7.731  -1.811 128.201  0.00  0.00    +0.000 A 
ATOM      4  C   UNL     1      -8.045  -3.022 128.816  0.00  0.00    +0.000 A 
ATOM      5  C   UNL     1      -8.830  -3.939 128.145  0.00  0.00    +0.000 A 
ATOM      6  C   UNL     1      -9.319  -3.618 126.876  0.00  0.00    +0.000 A 
ATOM      7  C   UNL     1      -8.979  -2.398 126.240  0.00  0.00    +0.000 A 
ENDBRANCH   1   2
BRANCH   1   8
ATOM      8  C   UNL     1      -6.347  -1.366 124.930  0.00  0.00    +0.000 A 
ATOM      9  C   UNL     1      -5.521  -2.441 125.285  0.00  0.00    +0.000 A 
ATOM     10  C   UNL     1      -4.970  -3.241 124.279  0.00  0.00    +0.000 A 
ATOM     11  C   UNL     1      -5.342  -3.081 122.945  0.00  0.00    +0.000 A 
ATOM     12  C   UNL     1      -6.113  -1.983 122.584  0.00  0.00    +0.000 A 
ATOM     13  C   UNL     1      -6.446  -1.073 123.564  0.00  0.00    +0.000 A 
ENDBRANCH   1   8
BRANCH   1  14
ATOM     14  O   UNL     1      -7.870   0.432 125.144  0.00  0.00    +0.000 OA
BRANCH  14  20
ATOM     15  C   UNL     1      -7.825   3.437 124.248  0.00  0.00    +0.000 C 
ATOM     16  C   UNL     1      -6.559   2.654 123.894  0.00  0.00    +0.000 C 
ATOM     17  C   UNL     1      -5.774   2.573 125.201  0.00  0.00    +0.000 C 
ATOM     18  C   UNL     1      -6.690   3.272 126.215  0.00  0.00    +0.000 C 
ATOM     19  C   UNL     1      -7.678   2.241 126.845  0.00  0.00    +0.000 C 
ATOM     20  C   UNL     1      -8.564   1.513 125.797  0.00  0.00    +0.000 C 
ATOM     21  C   UNL     1      -8.966   2.589 124.811  0.00  0.00    +0.000 C 
ATOM     22  N   UNL     1      -7.321   4.268 125.326  0.00  0.00    +0.000 NA
ATOM     23  C   UNL     1      -8.343   5.141 125.872  0.00  0.00    +0.000 C 
ENDBRANCH  14  20
ENDBRANCH   1  14
TORSDOF 4
ENDMDL
MODEL 3
REMARK VINA RESULT:      -7.3      2.984      6.984
REMARK  Name = Benzatropine
REMARK  5 active torsions:
REMARK  status: ('A' for Active; 'I' for Inactive)
REMARK    1  A    between atoms: C_8  and  O_11
REMARK    2  A    between atoms: O_11  and  C_12
REMARK    3  A    between atoms: C_12  and  C_13
REMARK    4  A    between atoms: C_12  and  C_19
REMARK    5  A    between atoms: N_25  and  C_26
REMARK                            x       y       z     vdW  Elec       q    Type
REMARK                         _______ _______ _______ _____ _____    ______ ____
ROOT
ATOM      1  C   UNL     1      -7.788  -0.515 125.652  0.00  0.00    +0.000 C 
ENDROOT
BRANCH   1   2
ATOM      2  C   UNL     1      -6.654  -1.059 124.685  0.00  0.00    +0.000 A 
ATOM      3  C   UNL     1      -6.781  -1.044 123.275  0.00  0.00    +0.000 A 
ATOM      4  C   UNL     1      -6.192  -1.997 122.446  0.00  0.00    +0.000 A 
ATOM      5  C   UNL     1      -5.321  -2.921 122.988  0.00  0.00    +0.000 A 
ATOM      6  C   UNL     1      -5.027  -2.861 124.353  0.00  0.00    +0.000 A 
ATOM      7  C   UNL     1      -5.646  -1.909 125.201  0.00  0.00    +0.000 A 
ENDBRANCH   1   2
BRANCH   1   8
ATOM      8  C   UNL     1      -8.172  -1.556 126.704  0.00  0.00    +0.000 A 
ATOM      9  C   UNL     1      -8.861  -2.736 126.396  0.00  0.00    +0.000 A 
ATOM     10  C   UNL     1      -8.995  -3.725 127.375  0.00  0.00    +0.000 A 
ATOM     11  C   UNL     1      -8.336  -3.623 128.599  0.00  0.00    +0.000 A 
ATOM     12  C   UNL     1      -7.702  -2.431 128.929  0.00  0.00    +0.000 A 
ATOM     13  C   UNL     1      -7.787  -1.382 128.039  0.00  0.00    +0.000 A 
ENDBRANCH   1   8
BRANCH   1  14
ATOM     14  O   UNL     1      -7.474   0.688 126.428  0.00  0.00    +0.000 OA
BRANCH  14  20
ATOM     15  C   UNL     1      -5.589   2.849 125.157  0.00  0.00    +0.000 C 
ATOM     16  C   UNL     1      -4.904   1.937 126.177  0.00  0.00    +0.000 C 
ATOM     17  C   UNL     1      -5.341   2.478 127.536  0.00  0.00    +0.000 C 
ATOM     18  C   UNL     1      -6.291   3.629 127.178  0.00  0.00    +0.000 C 
ATOM     19  C   UNL     1      -7.748   3.091 127.020  0.00  0.00    +0.000 C 
ATOM     20  C   UNL     1      -7.886   1.981 125.942  0.00  0.00    +0.000 C 
ATOM     21  C   UNL     1      -7.018   2.444 124.792  0.00  0.00    +0.000 C 
ATOM     22  N   UNL     1      -5.662   4.081 125.921  0.00  0.00    +0.000 NA
ATOM     23  C   UNL     1      -6.289   5.155 125.174  0.00  0.00    +0.000 C 
ENDBRANCH  14  20
ENDBRANCH   1  14
TORSDOF 4
ENDMDL
MODEL 4
REMARK VINA RESULT:      -7.1      4.409      7.275
REMARK  Name = Benzatropine
REMARK  5 active torsions:
REMARK  status: ('A' for Active; 'I' for Inactive)
REMARK    1  A    between atoms: C_8  and  O_11
REMARK    2  A    between atoms: O_11  and  C_12
REMARK    3  A    between atoms: C_12  and  C_13
REMARK    4  A    between atoms: C_12  and  C_19
REMARK    5  A    between atoms: N_25  and  C_26
REMARK                            x       y       z     vdW  Elec       q    Type
REMARK                         _______ _______ _______ _____ _____    ______ ____
ROOT
ATOM      1  C   UNL     1      -7.453  -2.388 128.735  0.00  0.00    +0.000 C 
ENDROOT
BRANCH   1   2
ATOM      2  C   UNL     1      -6.122  -3.128 129.181  0.00  0.00    +0.000 A 
ATOM      3  C   UNL     1      -6.095  -4.093 130.217  0.00  0.00    +0.000 A 
ATOM      4  C   UNL     1      -4.990  -4.296 131.042  0.00  0.00    +0.000 A 
ATOM      5  C   UNL     1      -3.806  -3.642 130.761  0.00  0.00    +0.000 A 
ATOM      6  C   UNL     1      -3.735  -2.814 129.638  0.00  0.00    +0.000 A 
ATOM      7  C   UNL     1      -4.866  -2.587 128.815  0.00  0.00    +0.000 A 
ENDBRANCH   1   2
BRANCH   1   8
ATOM      8  C   UNL     1      -7.670  -1.102 129.533  0.00  0.00    +0.000 A 
ATOM      9  C   UNL     1      -7.578   0.175 128.965  0.00  0.00    +0.000 A 
ATOM     10  C   UNL     1      -7.986   1.286 129.710  0.00  0.00    +0.000 A 
ATOM     11  C   UNL     1      -8.616   1.134 130.944  0.00  0.00    +0.000 A 
ATOM     12  C   UNL     1      -8.656  -0.123 131.534  0.00  0.00    +0.000 A 
ATOM     13  C   UNL     1      -8.032  -1.166 130.884  0.00  0.00    +0.000 A 
ENDBRANCH   1   8
BRANCH   1  14
ATOM     14  O   UNL     1      -7.538  -1.967 127.334  0.00  0.00    +0.000 OA
BRANCH  14  20
ATOM     15  C   UNL     1      -7.621  -3.541 124.623  0.00  0.00    +0.000 C 
ATOM     16  C   UNL     1      -6.317  -2.778 124.869  0.00  0.00    +0.000 C 
ATOM     17  C   UNL     1      -6.652  -1.324 124.544  0.00  0.00    +0.000 C 
ATOM     18  C   UNL     1      -8.145  -1.368 124.191  0.00  0.00    +0.000 C 
ATOM     19  C   UNL     1      -9.006  -1.187 125.480  0.00  0.00    +0.000 C 
ATOM     20  C   UNL     1      -8.723  -2.259 126.569  0.00  0.00    +0.000 C 
ATOM     21  C   UNL     1      -8.586  -3.561 125.808  0.00  0.00    +0.000 C 
ATOM     22  N   UNL     1      -8.213  -2.713 123.587  0.00  0.00    +0.000 NA
ATOM     23  C   UNL     1      -9.501  -3.217 123.149  0.00  0.00    +0.000 C 
ENDBRANCH  14  20
ENDBRANCH   1  14
TORSDOF 4
ENDMDL
MODEL 5
REMARK VINA RESULT:      -7.1      3.340      7.611
REMARK  Name = Benzatropine
REMARK  5 active torsions:
REMARK  status: ('A' for Active; 'I' for Inactive)
REMARK    1  A    between atoms: C_8  and  O_11
REMARK    2  A    between atoms: O_11  and  C_12
REMARK    3  A    between atoms: C_12  and  C_13
REMARK    4  A    between atoms: C_12  and  C_19
REMARK    5  A    between atoms: N_25  and  C_26
REMARK                            x       y       z     vdW  Elec       q    Type
REMARK                         _______ _______ _______ _____ _____    ______ ____
ROOT
ATOM      1  C   UNL     1      -7.819  -1.851 127.736  0.00  0.00    +0.000 C 
ENDROOT
BRANCH   1   2
ATOM      2  C   UNL     1      -7.950  -2.675 126.386  0.00  0.00    +0.000 A 
ATOM      3  C   UNL     1      -6.898  -2.767 125.443  0.00  0.00    +0.000 A 
ATOM      4  C   UNL     1      -7.112  -2.903 124.072  0.00  0.00    +0.000 A 
ATOM      5  C   UNL     1      -8.396  -3.105 123.604  0.00  0.00    +0.000 A 
ATOM      6  C   UNL     1      -9.447  -3.199 124.519  0.00  0.00    +0.000 A 
ATOM      7  C   UNL     1      -9.233  -3.036 125.910  0.00  0.00    +0.000 A 
ENDBRANCH   1   2
BRANCH   1   8
ATOM      8  C   UNL     1      -6.814  -2.498 128.689  0.00  0.00    +0.000 A 
ATOM      9  C   UNL     1      -7.154  -3.528 129.575  0.00  0.00    +0.000 A 
ATOM     10  C   UNL     1      -6.140  -4.200 130.265  0.00  0.00    +0.000 A 
ATOM     11  C   UNL     1      -4.796  -3.964 129.981  0.00  0.00    +0.000 A 
ATOM     12  C   UNL     1      -4.456  -2.905 129.148  0.00  0.00    +0.000 A 
ATOM     13  C   UNL     1      -5.470  -2.105 128.667  0.00  0.00    +0.000 A 
ENDBRANCH   1   8
BRANCH   1  14
ATOM     14  O   UNL     1      -7.369  -0.461 127.621  0.00  0.00    +0.000 OA
BRANCH  14  20
ATOM     15  C   UNL     1      -7.248   1.209 124.969  0.00  0.00    +0.000 C 
ATOM     16  C   UNL     1      -5.885   0.739 125.480  0.00  0.00    +0.000 C 
ATOM     17  C   UNL     1      -5.545   1.697 126.620  0.00  0.00    +0.000 C 
ATOM     18  C   UNL     1      -6.778   2.608 126.703  0.00  0.00    +0.000 C 
ATOM     19  C   UNL     1      -7.842   1.984 127.660  0.00  0.00    +0.000 C 
ATOM     20  C   UNL     1      -8.304   0.564 127.230  0.00  0.00    +0.000 C 
ATOM     21  C   UNL     1      -8.448   0.640 125.725  0.00  0.00    +0.000 C 
ATOM     22  N   UNL     1      -7.165   2.625 125.279  0.00  0.00    +0.000 NA
ATOM     23  C   UNL     1      -8.363   3.345 124.890  0.00  0.00    +0.000 C 
ENDBRANCH  14  20
ENDBRANCH   1  14
TORSDOF 4
ENDMDL
MODEL 6
REMARK VINA RESULT:      -7.0      2.658      6.907
REMARK  Name = Benzatropine
REMARK  5 active torsions:
REMARK  status: ('A' for Active; 'I' for Inactive)
REMARK    1  A    between atoms: C_8  and  O_11
REMARK    2  A    between atoms: O_11  and  C_12
REMARK    3  A    between atoms: C_12  and  C_13
REMARK    4  A    between atoms: C_12  and  C_19
REMARK    5  A    between atoms: N_25  and  C_26
REMARK                            x       y       z     vdW  Elec       q    Type
REMARK                         _______ _______ _______ _____ _____    ______ ____
ROOT
ATOM      1  C   UNL     1      -8.291  -1.654 125.622  0.00  0.00    +0.000 C 
ENDROOT
BRANCH   1   2
ATOM      2  C   UNL     1      -7.186  -2.329 124.706  0.00  0.00    +0.000 A 
ATOM      3  C   UNL     1      -7.238  -3.691 124.324  0.00  0.00    +0.000 A 
ATOM      4  C   UNL     1      -6.100  -4.463 124.095  0.00  0.00    +0.000 A 
ATOM      5  C   UNL     1      -4.860  -3.857 124.091  0.00  0.00    +0.000 A 
ATOM      6  C   UNL     1      -4.776  -2.476 124.287  0.00  0.00    +0.000 A 
ATOM      7  C   UNL     1      -5.930  -1.695 124.546  0.00  0.00    +0.000 A 
ENDBRANCH   1   2
BRANCH   1   8
ATOM      8  C   UNL     1      -7.979  -1.847 127.106  0.00  0.00    +0.000 A 
ATOM      9  C   UNL     1      -7.547  -0.806 127.939  0.00  0.00    +0.000 A 
ATOM     10  C   UNL     1      -7.478  -1.018 129.319  0.00  0.00    +0.000 A 
ATOM     11  C   UNL     1      -7.967  -2.190 129.894  0.00  0.00    +0.000 A 
ATOM     12  C   UNL     1      -8.340  -3.244 129.069  0.00  0.00    +0.000 A 
ATOM     13  C   UNL     1      -8.174  -3.095 127.709  0.00  0.00    +0.000 A 
ENDBRANCH   1   8
BRANCH   1  14
ATOM     14  O   UNL     1      -8.480  -0.208 125.474  0.00  0.00    +0.000 OA
BRANCH  14  20
ATOM     15  C   UNL     1      -7.143   1.784 123.455  0.00  0.00    +0.000 C 
ATOM     16  C   UNL     1      -6.644   1.917 124.895  0.00  0.00    +0.000 C 
ATOM     17  C   UNL     1      -7.743   2.693 125.616  0.00  0.00    +0.000 C 
ATOM     18  C   UNL     1      -8.814   2.892 124.534  0.00  0.00    +0.000 C 
ATOM     19  C   UNL     1      -9.797   1.679 124.523  0.00  0.00    +0.000 C 
ATOM     20  C   UNL     1      -9.094   0.315 124.281  0.00  0.00    +0.000 C 
ATOM     21  C   UNL     1      -8.067   0.592 123.203  0.00  0.00    +0.000 C 
ATOM     22  N   UNL     1      -7.943   2.991 123.346  0.00  0.00    +0.000 NA
ATOM     23  C   UNL     1      -8.559   3.128 122.040  0.00  0.00    +0.000 C 
ENDBRANCH  14  20
ENDBRANCH   1  14
TORSDOF 4
ENDMDL
MODEL 7
REMARK VINA RESULT:      -6.8      3.527      6.652
REMARK  Name = Benzatropine
REMARK  5 active torsions:
REMARK  status: ('A' for Active; 'I' for Inactive)
REMARK    1  A    between atoms: C_8  and  O_11
REMARK    2  A    between atoms: O_11  and  C_12
REMARK    3  A    between atoms: C_12  and  C_13
REMARK    4  A    between atoms: C_12  and  C_19
REMARK    5  A    between atoms: N_25  and  C_26
REMARK                            x       y       z     vdW  Elec       q    Type
REMARK                         _______ _______ _______ _____ _____    ______ ____
ROOT
ATOM      1  C   UNL     1      -5.567  -1.796 127.180  0.00  0.00    +0.000 C 
ENDROOT
BRANCH   1   2
ATOM      2  C   UNL     1      -5.779  -0.238 127.396  0.00  0.00    +0.000 A 
ATOM      3  C   UNL     1      -6.873   0.289 128.124  0.00  0.00    +0.000 A 
ATOM      4  C   UNL     1      -7.451   1.527 127.843  0.00  0.00    +0.000 A 
ATOM      5  C   UNL     1      -6.855   2.357 126.914  0.00  0.00    +0.000 A 
ATOM      6  C   UNL     1      -5.668   1.950 126.298  0.00  0.00    +0.000 A 
ATOM      7  C   UNL     1      -5.096   0.681 126.564  0.00  0.00    +0.000 A 
ENDBRANCH   1   2
BRANCH   1   8
ATOM      8  C   UNL     1      -5.432  -2.530 128.515  0.00  0.00    +0.000 A 
ATOM      9  C   UNL     1      -6.519  -3.115 129.178  0.00  0.00    +0.000 A 
ATOM     10  C   UNL     1      -6.282  -3.937 130.285  0.00  0.00    +0.000 A 
ATOM     11  C   UNL     1      -4.986  -4.300 130.649  0.00  0.00    +0.000 A 
ATOM     12  C   UNL     1      -3.909  -3.677 130.031  0.00  0.00    +0.000 A 
ATOM     13  C   UNL     1      -4.173  -2.691 129.105  0.00  0.00    +0.000 A 
ENDBRANCH   1   8
BRANCH   1  14
ATOM     14  O   UNL     1      -6.629  -2.516 126.473  0.00  0.00    +0.000 OA
BRANCH  14  20
ATOM     15  C   UNL     1      -8.662  -1.045 124.592  0.00  0.00    +0.000 C 
ATOM     16  C   UNL     1      -9.230  -1.423 125.961  0.00  0.00    +0.000 C 
ATOM     17  C   UNL     1      -9.535  -2.915 125.857  0.00  0.00    +0.000 C 
ATOM     18  C   UNL     1      -9.059  -3.282 124.444  0.00  0.00    +0.000 C 
ATOM     19  C   UNL     1      -7.549  -3.680 124.473  0.00  0.00    +0.000 C 
ATOM     20  C   UNL     1      -6.625  -2.563 125.033  0.00  0.00    +0.000 C 
ATOM     21  C   UNL     1      -7.159  -1.280 124.434  0.00  0.00    +0.000 C 
ATOM     22  N   UNL     1      -9.348  -2.011 123.752  0.00  0.00    +0.000 NA
ATOM     23  C   UNL     1      -8.986  -1.880 122.353  0.00  0.00    +0.000 C 
ENDBRANCH  14  20
ENDBRANCH   1  14
TORSDOF 4
ENDMDL
MODEL 8
REMARK VINA RESULT:      -6.8      3.218      6.595
REMARK  Name = Benzatropine
REMARK  5 active torsions:
REMARK  status: ('A' for Active; 'I' for Inactive)
REMARK    1  A    between atoms: C_8  and  O_11
REMARK    2  A    between atoms: O_11  and  C_12
REMARK    3  A    between atoms: C_12  and  C_13
REMARK    4  A    between atoms: C_12  and  C_19
REMARK    5  A    between atoms: N_25  and  C_26
REMARK                            x       y       z     vdW  Elec       q    Type
REMARK                         _______ _______ _______ _____ _____    ______ ____
ROOT
ATOM      1  C   UNL     1      -5.620  -1.310 126.585  0.00  0.00    +0.000 C 
ENDROOT
BRANCH   1   2
ATOM      2  C   UNL     1      -6.269  -2.348 127.594  0.00  0.00    +0.000 A 
ATOM      3  C   UNL     1      -7.622  -2.756 127.504  0.00  0.00    +0.000 A 
ATOM      4  C   UNL     1      -8.386  -3.116 128.614  0.00  0.00    +0.000 A 
ATOM      5  C   UNL     1      -7.776  -3.229 129.847  0.00  0.00    +0.000 A 
ATOM      6  C   UNL     1      -6.400  -3.008 129.950  0.00  0.00    +0.000 A 
ATOM      7  C   UNL     1      -5.629  -2.617 128.827  0.00  0.00    +0.000 A 
ENDBRANCH   1   2
BRANCH   1   8
ATOM      8  C   UNL     1      -5.896  -1.698 125.132  0.00  0.00    +0.000 A 
ATOM      9  C   UNL     1      -6.679  -0.920 124.268  0.00  0.00    +0.000 A 
ATOM     10  C   UNL     1      -6.717  -1.238 122.907  0.00  0.00    +0.000 A 
ATOM     11  C   UNL     1      -5.883  -2.218 122.371  0.00  0.00    +0.000 A 
ATOM     12  C   UNL     1      -5.151  -3.028 123.231  0.00  0.00    +0.000 A 
ATOM     13  C   UNL     1      -5.314  -2.849 124.588  0.00  0.00    +0.000 A 
ENDBRANCH   1   8
BRANCH   1  14
ATOM     14  O   UNL     1      -6.072   0.080 126.684  0.00  0.00    +0.000 OA
BRANCH  14  20
ATOM     15  C   UNL     1      -6.872   3.061 127.240  0.00  0.00    +0.000 C 
ATOM     16  C   UNL     1      -7.460   2.480 125.952  0.00  0.00    +0.000 C 
ATOM     17  C   UNL     1      -6.309   2.513 124.951  0.00  0.00    +0.000 C 
ATOM     18  C   UNL     1      -5.133   3.062 125.771  0.00  0.00    +0.000 C 
ATOM     19  C   UNL     1      -4.376   1.890 126.471  0.00  0.00    +0.000 C 
ATOM     20  C   UNL     1      -5.279   1.041 127.407  0.00  0.00    +0.000 C 
ATOM     21  C   UNL     1      -6.149   2.048 128.129  0.00  0.00    +0.000 C 
ATOM     22  N   UNL     1      -5.871   3.954 126.687  0.00  0.00    +0.000 NA
ATOM     23  C   UNL     1      -5.133   4.660 127.717  0.00  0.00    +0.000 C 
ENDBRANCH  14  20
ENDBRANCH   1  14
TORSDOF 4
ENDMDL
MODEL 9
REMARK VINA RESULT:      -6.7      7.491     10.289
REMARK  Name = Benzatropine
REMARK  5 active torsions:
REMARK  status: ('A' for Active; 'I' for Inactive)
REMARK    1  A    between atoms: C_8  and  O_11
REMARK    2  A    between atoms: O_11  and  C_12
REMARK    3  A    between atoms: C_12  and  C_13
REMARK    4  A    between atoms: C_12  and  C_19
REMARK    5  A    between atoms: N_25  and  C_26
REMARK                            x       y       z     vdW  Elec       q    Type
REMARK                         _______ _______ _______ _____ _____    ______ ____
ROOT
ATOM      1  C   UNL     1      -9.940   5.216 130.948  0.00  0.00    +0.000 C 
ENDROOT
BRANCH   1   2
ATOM      2  C   UNL     1      -9.836   3.664 130.635  0.00  0.00    +0.000 A 
ATOM      3  C   UNL     1     -10.229   2.670 131.564  0.00  0.00    +0.000 A 
ATOM      4  C   UNL     1      -9.628   1.414 131.636  0.00  0.00    +0.000 A 
ATOM      5  C   UNL     1      -8.708   1.047 130.674  0.00  0.00    +0.000 A 
ATOM      6  C   UNL     1      -8.421   1.933 129.632  0.00  0.00    +0.000 A 
ATOM      7  C   UNL     1      -9.012   3.220 129.573  0.00  0.00    +0.000 A 
ENDBRANCH   1   2
BRANCH   1   8
ATOM      8  C   UNL     1      -8.645   5.750 131.559  0.00  0.00    +0.000 A 
ATOM      9  C   UNL     1      -8.228   5.439 132.860  0.00  0.00    +0.000 A 
ATOM     10  C   UNL     1      -6.941   5.801 133.270  0.00  0.00    +0.000 A 
ATOM     11  C   UNL     1      -6.019   6.330 132.369  0.00  0.00    +0.000 A 
ATOM     12  C   UNL     1      -6.446   6.693 131.098  0.00  0.00    +0.000 A 
ATOM     13  C   UNL     1      -7.782   6.546 130.795  0.00  0.00    +0.000 A 
ENDBRANCH   1   8
BRANCH   1  14
ATOM     14  O   UNL     1     -10.200   6.103 129.811  0.00  0.00    +0.000 OA
BRANCH  14  20
ATOM     15  C   UNL     1     -13.009   7.491 129.665  0.00  0.00    +0.000 C 
ATOM     16  C   UNL     1     -12.862   6.269 128.756  0.00  0.00    +0.000 C 
ATOM     17  C   UNL     1     -12.060   6.770 127.558  0.00  0.00    +0.000 C 
ATOM     18  C   UNL     1     -11.765   8.235 127.909  0.00  0.00    +0.000 C 
ATOM     19  C   UNL     1     -10.439   8.332 128.727  0.00  0.00    +0.000 C 
ATOM     20  C   UNL     1     -10.458   7.502 130.040  0.00  0.00    +0.000 C 
ATOM     21  C   UNL     1     -11.839   7.725 130.621  0.00  0.00    +0.000 C 
ATOM     22  N   UNL     1     -12.986   8.553 128.674  0.00  0.00    +0.000 NA
ATOM     23  C   UNL     1     -13.111   9.868 129.274  0.00  0.00    +0.000 C 
ENDBRANCH  14  20
ENDBRANCH   1  14
TORSDOF 4
ENDMDL
