MODEL 1
REMARK VINA RESULT:      -6.7      0.000      0.000
REMARK  Name = Benzylparaben
REMARK  5 active torsions:
REMARK  status: ('A' for Active; 'I' for Inactive)
REMARK    1  A    between atoms: O_1  and  C_2
REMARK    2  A    between atoms: C_5  and  C_8
REMARK    3  A    between atoms: C_8  and  O_10
REMARK    4  A    between atoms: O_10  and  C_11
REMARK    5  A    between atoms: C_11  and  C_12
REMARK                            x       y       z     vdW  Elec       q    Type
REMARK                         _______ _______ _______ _____ _____    ______ ____
ROOT
ATOM      1  C   UNL     1      -9.010  -0.155 123.240  0.00  0.00    +0.000 C 
ATOM      2  O   UNL     1     -10.071  -0.338 122.654  0.00  0.00    +0.000 OA
ENDROOT
BRANCH   1   6
ATOM      3  C   UNL     1      -6.148  -3.325 123.823  0.00  0.00    +0.000 A 
ATOM      4  C   UNL     1      -7.449  -3.453 124.292  0.00  0.00    +0.000 A 
ATOM      5  C   UNL     1      -8.361  -2.409 124.084  0.00  0.00    +0.000 A 
ATOM      6  C   UNL     1      -7.982  -1.235 123.408  0.00  0.00    +0.000 A 
ATOM      7  C   UNL     1      -6.667  -1.131 122.932  0.00  0.00    +0.000 A 
ATOM      8  C   UNL     1      -5.754  -2.177 123.141  0.00  0.00    +0.000 A 
BRANCH   3   9
ATOM      9  O   UNL     1      -5.222  -4.308 124.016  0.00  0.00    +0.000 OA
ATOM     10  H   UNL     1      -4.602  -4.029 124.711  0.00  0.00    +0.000 HD
ENDBRANCH   3   9
ENDBRANCH   1   6
BRANCH   1  11
ATOM     11  O   UNL     1      -8.630   1.011 123.810  0.00  0.00    +0.000 OA
BRANCH  11  12
ATOM     12  C   UNL     1      -9.228   2.202 123.243  0.00  0.00    +0.000 C 
BRANCH  12  13
ATOM     13  C   UNL     1      -8.271   2.864 122.268  0.00  0.00    +0.000 A 
ATOM     14  C   UNL     1      -8.750   3.534 121.128  0.00  0.00    +0.000 A 
ATOM     15  C   UNL     1      -7.860   4.020 120.163  0.00  0.00    +0.000 A 
ATOM     16  C   UNL     1      -6.485   3.930 120.370  0.00  0.00    +0.000 A 
ATOM     17  C   UNL     1      -5.999   3.328 121.526  0.00  0.00    +0.000 A 
ATOM     18  C   UNL     1      -6.884   2.802 122.465  0.00  0.00    +0.000 A 
ENDBRANCH  12  13
ENDBRANCH  11  12
ENDBRANCH   1  11
TORSDOF 5
ENDMDL
MODEL 2
REMARK VINA RESULT:      -6.7      2.294      6.559
REMARK  Name = Benzylparaben
REMARK  5 active torsions:
REMARK  status: ('A' for Active; 'I' for Inactive)
REMARK    1  A    between atoms: O_1  and  C_2
REMARK    2  A    between atoms: C_5  and  C_8
REMARK    3  A    between atoms: C_8  and  O_10
REMARK    4  A    between atoms: O_10  and  C_11
REMARK    5  A    between atoms: C_11  and  C_12
REMARK                            x       y       z     vdW  Elec       q    Type
REMARK                         _______ _______ _______ _____ _____    ______ ____
ROOT
ATOM      1  C   UNL     1      -7.766   2.759 122.837  0.00  0.00    +0.000 C 
ATOM      2  O   UNL     1      -8.856   3.082 123.293  0.00  0.00    +0.000 OA
ENDROOT
BRANCH   1   6
ATOM      3  C   UNL     1      -5.747   4.943 119.717  0.00  0.00    +0.000 A 
ATOM      4  C   UNL     1      -5.097   4.652 120.909  0.00  0.00    +0.000 A 
ATOM      5  C   UNL     1      -5.776   3.936 121.906  0.00  0.00    +0.000 A 
ATOM      6  C   UNL     1      -7.102   3.505 121.718  0.00  0.00    +0.000 A 
ATOM      7  C   UNL     1      -7.735   3.798 120.501  0.00  0.00    +0.000 A 
ATOM      8  C   UNL     1      -7.055   4.516 119.504  0.00  0.00    +0.000 A 
BRANCH   3   9
ATOM      9  O   UNL     1      -5.132   5.650 118.726  0.00  0.00    +0.000 OA
ATOM     10  H   UNL     1      -5.494   5.375 117.866  0.00  0.00    +0.000 HD
ENDBRANCH   3   9
ENDBRANCH   1   6
BRANCH   1  11
ATOM     11  O   UNL     1      -7.030   1.704 123.259  0.00  0.00    +0.000 OA
BRANCH  11  12
ATOM     12  C   UNL     1      -7.749   0.451 123.362  0.00  0.00    +0.000 C 
BRANCH  12  13
ATOM     13  C   UNL     1      -6.790  -0.688 123.660  0.00  0.00    +0.000 A 
ATOM     14  C   UNL     1      -6.419  -1.600 122.656  0.00  0.00    +0.000 A 
ATOM     15  C   UNL     1      -5.647  -2.726 122.968  0.00  0.00    +0.000 A 
ATOM     16  C   UNL     1      -5.157  -2.902 124.261  0.00  0.00    +0.000 A 
ATOM     17  C   UNL     1      -5.462  -1.970 125.248  0.00  0.00    +0.000 A 
ATOM     18  C   UNL     1      -6.270  -0.874 124.948  0.00  0.00    +0.000 A 
ENDBRANCH  12  13
ENDBRANCH  11  12
ENDBRANCH   1  11
TORSDOF 5
ENDMDL
MODEL 3
REMARK VINA RESULT:      -6.6      2.202      6.594
REMARK  Name = Benzylparaben
REMARK  5 active torsions:
REMARK  status: ('A' for Active; 'I' for Inactive)
REMARK    1  A    between atoms: O_1  and  C_2
REMARK    2  A    between atoms: C_5  and  C_8
REMARK    3  A    between atoms: C_8  and  O_10
REMARK    4  A    between atoms: O_10  and  C_11
REMARK    5  A    between atoms: C_11  and  C_12
REMARK                            x       y       z     vdW  Elec       q    Type
REMARK                         _______ _______ _______ _____ _____    ______ ____
ROOT
ATOM      1  C   UNL     1      -8.059   2.681 123.171  0.00  0.00    +0.000 C 
ATOM      2  O   UNL     1      -8.702   3.299 124.013  0.00  0.00    +0.000 OA
ENDROOT
BRANCH   1   6
ATOM      3  C   UNL     1      -5.911   4.664 120.004  0.00  0.00    +0.000 A 
ATOM      4  C   UNL     1      -5.289   4.390 121.215  0.00  0.00    +0.000 A 
ATOM      5  C   UNL     1      -6.010   3.739 122.227  0.00  0.00    +0.000 A 
ATOM      6  C   UNL     1      -7.351   3.358 122.036  0.00  0.00    +0.000 A 
ATOM      7  C   UNL     1      -7.956   3.634 120.801  0.00  0.00    +0.000 A 
ATOM      8  C   UNL     1      -7.234   4.286 119.788  0.00  0.00    +0.000 A 
BRANCH   3   9
ATOM      9  O   UNL     1      -5.255   5.309 118.997  0.00  0.00    +0.000 OA
ATOM     10  H   UNL     1      -5.441   6.262 119.055  0.00  0.00    +0.000 HD
ENDBRANCH   3   9
ENDBRANCH   1   6
BRANCH   1  11
ATOM     11  O   UNL     1      -7.911   1.336 123.142  0.00  0.00    +0.000 OA
BRANCH  11  12
ATOM     12  C   UNL     1      -7.851   0.692 124.437  0.00  0.00    +0.000 C 
BRANCH  12  13
ATOM     13  C   UNL     1      -8.424  -0.712 124.359  0.00  0.00    +0.000 A 
ATOM     14  C   UNL     1      -8.863  -1.378 125.517  0.00  0.00    +0.000 A 
ATOM     15  C   UNL     1      -9.259  -2.720 125.458  0.00  0.00    +0.000 A 
ATOM     16  C   UNL     1      -9.315  -3.380 124.232  0.00  0.00    +0.000 A 
ATOM     17  C   UNL     1      -8.946  -2.710 123.069  0.00  0.00    +0.000 A 
ATOM     18  C   UNL     1      -8.507  -1.388 123.134  0.00  0.00    +0.000 A 
ENDBRANCH  12  13
ENDBRANCH  11  12
ENDBRANCH   1  11
TORSDOF 5
ENDMDL
MODEL 4
REMARK VINA RESULT:      -6.6      3.976      5.598
REMARK  Name = Benzylparaben
REMARK  5 active torsions:
REMARK  status: ('A' for Active; 'I' for Inactive)
REMARK    1  A    between atoms: O_1  and  C_2
REMARK    2  A    between atoms: C_5  and  C_8
REMARK    3  A    between atoms: C_8  and  O_10
REMARK    4  A    between atoms: O_10  and  C_11
REMARK    5  A    between atoms: C_11  and  C_12
REMARK                            x       y       z     vdW  Elec       q    Type
REMARK                         _______ _______ _______ _____ _____    ______ ____
ROOT
ATOM      1  C   UNL     1      -9.329  -1.999 125.899  0.00  0.00    +0.000 C 
ATOM      2  O   UNL     1      -9.680  -0.855 125.633  0.00  0.00    +0.000 OA
ENDROOT
BRANCH   1   6
ATOM      3  C   UNL     1      -6.529  -2.830 129.069  0.00  0.00    +0.000 A 
ATOM      4  C   UNL     1      -6.263  -1.839 128.134  0.00  0.00    +0.000 A 
ATOM      5  C   UNL     1      -7.193  -1.585 127.116  0.00  0.00    +0.000 A 
ATOM      6  C   UNL     1      -8.392  -2.317 127.027  0.00  0.00    +0.000 A 
ATOM      7  C   UNL     1      -8.647  -3.305 127.989  0.00  0.00    +0.000 A 
ATOM      8  C   UNL     1      -7.714  -3.559 129.007  0.00  0.00    +0.000 A 
BRANCH   3   9
ATOM      9  O   UNL     1      -5.646  -3.122 130.067  0.00  0.00    +0.000 OA
ATOM     10  H   UNL     1      -5.567  -4.088 130.150  0.00  0.00    +0.000 HD
ENDBRANCH   3   9
ENDBRANCH   1   6
BRANCH   1  11
ATOM     11  O   UNL     1      -9.719  -3.106 125.226  0.00  0.00    +0.000 OA
BRANCH  11  12
ATOM     12  C   UNL     1      -9.359  -3.137 123.824  0.00  0.00    +0.000 C 
BRANCH  12  13
ATOM     13  C   UNL     1      -7.856  -2.997 123.659  0.00  0.00    +0.000 A 
ATOM     14  C   UNL     1      -7.310  -1.989 122.844  0.00  0.00    +0.000 A 
ATOM     15  C   UNL     1      -5.935  -1.951 122.585  0.00  0.00    +0.000 A 
ATOM     16  C   UNL     1      -5.079  -2.856 123.212  0.00  0.00    +0.000 A 
ATOM     17  C   UNL     1      -5.601  -3.816 124.073  0.00  0.00    +0.000 A 
ATOM     18  C   UNL     1      -6.976  -3.883 124.294  0.00  0.00    +0.000 A 
ENDBRANCH  12  13
ENDBRANCH  11  12
ENDBRANCH   1  11
TORSDOF 5
ENDMDL
MODEL 5
REMARK VINA RESULT:      -6.5      1.791      5.768
REMARK  Name = Benzylparaben
REMARK  5 active torsions:
REMARK  status: ('A' for Active; 'I' for Inactive)
REMARK    1  A    between atoms: O_1  and  C_2
REMARK    2  A    between atoms: C_5  and  C_8
REMARK    3  A    between atoms: C_8  and  O_10
REMARK    4  A    between atoms: O_10  and  C_11
REMARK    5  A    between atoms: C_11  and  C_12
REMARK                            x       y       z     vdW  Elec       q    Type
REMARK                         _______ _______ _______ _____ _____    ______ ____
ROOT
ATOM      1  C   UNL     1      -9.916   0.881 123.753  0.00  0.00    +0.000 C 
ATOM      2  O   UNL     1     -11.083   1.256 123.767  0.00  0.00    +0.000 OA
ENDROOT
BRANCH   1   6
ATOM      3  C   UNL     1      -6.715   3.511 122.563  0.00  0.00    +0.000 A 
ATOM      4  C   UNL     1      -7.900   3.468 121.839  0.00  0.00    +0.000 A 
ATOM      5  C   UNL     1      -8.927   2.607 122.251  0.00  0.00    +0.000 A 
ATOM      6  C   UNL     1      -8.779   1.788 123.385  0.00  0.00    +0.000 A 
ATOM      7  C   UNL     1      -7.579   1.856 124.109  0.00  0.00    +0.000 A 
ATOM      8  C   UNL     1      -6.551   2.718 123.695  0.00  0.00    +0.000 A 
BRANCH   3   9
ATOM      9  O   UNL     1      -5.683   4.321 122.190  0.00  0.00    +0.000 OA
ATOM     10  H   UNL     1      -5.917   4.775 121.363  0.00  0.00    +0.000 HD
ENDBRANCH   3   9
ENDBRANCH   1   6
BRANCH   1  11
ATOM     11  O   UNL     1      -9.500  -0.372 124.048  0.00  0.00    +0.000 OA
BRANCH  11  12
ATOM     12  C   UNL     1      -9.157  -1.195 122.907  0.00  0.00    +0.000 C 
BRANCH  12  13
ATOM     13  C   UNL     1      -7.954  -2.066 123.223  0.00  0.00    +0.000 A 
ATOM     14  C   UNL     1      -8.082  -3.207 124.034  0.00  0.00    +0.000 A 
ATOM     15  C   UNL     1      -6.948  -3.924 124.435  0.00  0.00    +0.000 A 
ATOM     16  C   UNL     1      -5.689  -3.571 123.953  0.00  0.00    +0.000 A 
ATOM     17  C   UNL     1      -5.559  -2.483 123.096  0.00  0.00    +0.000 A 
ATOM     18  C   UNL     1      -6.682  -1.739 122.734  0.00  0.00    +0.000 A 
ENDBRANCH  12  13
ENDBRANCH  11  12
ENDBRANCH   1  11
TORSDOF 5
ENDMDL
MODEL 6
REMARK VINA RESULT:      -6.4      2.736      6.634
REMARK  Name = Benzylparaben
REMARK  5 active torsions:
REMARK  status: ('A' for Active; 'I' for Inactive)
REMARK    1  A    between atoms: O_1  and  C_2
REMARK    2  A    between atoms: C_5  and  C_8
REMARK    3  A    between atoms: C_8  and  O_10
REMARK    4  A    between atoms: O_10  and  C_11
REMARK    5  A    between atoms: C_11  and  C_12
REMARK                            x       y       z     vdW  Elec       q    Type
REMARK                         _______ _______ _______ _____ _____    ______ ____
ROOT
ATOM      1  C   UNL     1      -8.727  -1.655 123.306  0.00  0.00    +0.000 C 
ATOM      2  O   UNL     1      -8.308  -2.317 122.364  0.00  0.00    +0.000 OA
ENDROOT
BRANCH   1   6
ATOM      3  C   UNL     1      -8.203   2.616 123.569  0.00  0.00    +0.000 A 
ATOM      4  C   UNL     1      -9.428   2.076 123.201  0.00  0.00    +0.000 A 
ATOM      5  C   UNL     1      -9.573   0.683 123.128  0.00  0.00    +0.000 A 
ATOM      6  C   UNL     1      -8.499  -0.177 123.423  0.00  0.00    +0.000 A 
ATOM      7  C   UNL     1      -7.274   0.389 123.805  0.00  0.00    +0.000 A 
ATOM      8  C   UNL     1      -7.130   1.784 123.877  0.00  0.00    +0.000 A 
BRANCH   3   9
ATOM      9  O   UNL     1      -8.011   3.964 123.638  0.00  0.00    +0.000 OA
ATOM     10  H   UNL     1      -7.370   4.159 124.342  0.00  0.00    +0.000 HD
ENDBRANCH   3   9
ENDBRANCH   1   6
BRANCH   1  11
ATOM     11  O   UNL     1      -9.428  -2.152 124.352  0.00  0.00    +0.000 OA
BRANCH  11  12
ATOM     12  C   UNL     1      -8.810  -3.269 125.035  0.00  0.00    +0.000 C 
BRANCH  12  13
ATOM     13  C   UNL     1      -8.561  -2.929 126.493  0.00  0.00    +0.000 A 
ATOM     14  C   UNL     1      -7.951  -1.715 126.857  0.00  0.00    +0.000 A 
ATOM     15  C   UNL     1      -7.598  -1.468 128.189  0.00  0.00    +0.000 A 
ATOM     16  C   UNL     1      -7.936  -2.383 129.184  0.00  0.00    +0.000 A 
ATOM     17  C   UNL     1      -8.599  -3.558 128.845  0.00  0.00    +0.000 A 
ATOM     18  C   UNL     1      -8.909  -3.826 127.512  0.00  0.00    +0.000 A 
ENDBRANCH  12  13
ENDBRANCH  11  12
ENDBRANCH   1  11
TORSDOF 5
ENDMDL
MODEL 7
REMARK VINA RESULT:      -6.3      8.158      9.799
REMARK  Name = Benzylparaben
REMARK  5 active torsions:
REMARK  status: ('A' for Active; 'I' for Inactive)
REMARK    1  A    between atoms: O_1  and  C_2
REMARK    2  A    between atoms: C_5  and  C_8
REMARK    3  A    between atoms: C_8  and  O_10
REMARK    4  A    between atoms: O_10  and  C_11
REMARK    5  A    between atoms: C_11  and  C_12
REMARK                            x       y       z     vdW  Elec       q    Type
REMARK                         _______ _______ _______ _____ _____    ______ ____
ROOT
ATOM      1  C   UNL     1     -10.907   6.066 131.863  0.00  0.00    +0.000 C 
ATOM      2  O   UNL     1     -10.423   6.687 132.803  0.00  0.00    +0.000 OA
ENDROOT
BRANCH   1   6
ATOM      3  C   UNL     1      -8.502   3.547 129.323  0.00  0.00    +0.000 A 
ATOM      4  C   UNL     1      -8.133   4.864 129.565  0.00  0.00    +0.000 A 
ATOM      5  C   UNL     1      -8.931   5.660 130.399  0.00  0.00    +0.000 A 
ATOM      6  C   UNL     1     -10.097   5.147 130.996  0.00  0.00    +0.000 A 
ATOM      7  C   UNL     1     -10.445   3.811 130.749  0.00  0.00    +0.000 A 
ATOM      8  C   UNL     1      -9.645   3.015 129.913  0.00  0.00    +0.000 A 
BRANCH   3   9
ATOM      9  O   UNL     1      -7.765   2.741 128.506  0.00  0.00    +0.000 OA
ATOM     10  H   UNL     1      -8.292   2.518 127.719  0.00  0.00    +0.000 HD
ENDBRANCH   3   9
ENDBRANCH   1   6
BRANCH   1  11
ATOM     11  O   UNL     1     -12.203   6.127 131.479  0.00  0.00    +0.000 OA
BRANCH  11  12
ATOM     12  C   UNL     1     -12.638   7.411 130.971  0.00  0.00    +0.000 C 
BRANCH  12  13
ATOM     13  C   UNL     1     -12.261   7.559 129.508  0.00  0.00    +0.000 A 
ATOM     14  C   UNL     1     -13.045   6.974 128.498  0.00  0.00    +0.000 A 
ATOM     15  C   UNL     1     -12.618   6.995 127.165  0.00  0.00    +0.000 A 
ATOM     16  C   UNL     1     -11.458   7.682 126.812  0.00  0.00    +0.000 A 
ATOM     17  C   UNL     1     -10.708   8.321 127.794  0.00  0.00    +0.000 A 
ATOM     18  C   UNL     1     -11.108   8.261 129.129  0.00  0.00    +0.000 A 
ENDBRANCH  12  13
ENDBRANCH  11  12
ENDBRANCH   1  11
TORSDOF 5
ENDMDL
MODEL 8
REMARK VINA RESULT:      -6.3      1.397      2.308
REMARK  Name = Benzylparaben
REMARK  5 active torsions:
REMARK  status: ('A' for Active; 'I' for Inactive)
REMARK    1  A    between atoms: O_1  and  C_2
REMARK    2  A    between atoms: C_5  and  C_8
REMARK    3  A    between atoms: C_8  and  O_10
REMARK    4  A    between atoms: O_10  and  C_11
REMARK    5  A    between atoms: C_11  and  C_12
REMARK                            x       y       z     vdW  Elec       q    Type
REMARK                         _______ _______ _______ _____ _____    ______ ____
ROOT
ATOM      1  C   UNL     1      -7.875   1.406 123.236  0.00  0.00    +0.000 C 
ATOM      2  O   UNL     1      -8.868   2.086 123.468  0.00  0.00    +0.000 OA
ENDROOT
BRANCH   1   6
ATOM      3  C   UNL     1      -7.820  -2.805 124.155  0.00  0.00    +0.000 A 
ATOM      4  C   UNL     1      -8.849  -1.995 124.617  0.00  0.00    +0.000 A 
ATOM      5  C   UNL     1      -8.845  -0.629 124.300  0.00  0.00    +0.000 A 
ATOM      6  C   UNL     1      -7.818  -0.066 123.520  0.00  0.00    +0.000 A 
ATOM      7  C   UNL     1      -6.795  -0.905 123.053  0.00  0.00    +0.000 A 
ATOM      8  C   UNL     1      -6.800  -2.272 123.372  0.00  0.00    +0.000 A 
BRANCH   3   9
ATOM      9  O   UNL     1      -7.773  -4.136 124.453  0.00  0.00    +0.000 OA
ATOM     10  H   UNL     1      -7.082  -4.289 125.119  0.00  0.00    +0.000 HD
ENDBRANCH   3   9
ENDBRANCH   1   6
BRANCH   1  11
ATOM     11  O   UNL     1      -6.717   1.875 122.715  0.00  0.00    +0.000 OA
BRANCH  11  12
ATOM     12  C   UNL     1      -6.552   3.312 122.769  0.00  0.00    +0.000 C 
BRANCH  12  13
ATOM     13  C   UNL     1      -6.456   3.889 121.369  0.00  0.00    +0.000 A 
ATOM     14  C   UNL     1      -5.283   4.529 120.930  0.00  0.00    +0.000 A 
ATOM     15  C   UNL     1      -5.250   5.180 119.691  0.00  0.00    +0.000 A 
ATOM     16  C   UNL     1      -6.349   5.116 118.836  0.00  0.00    +0.000 A 
ATOM     17  C   UNL     1      -7.492   4.429 119.232  0.00  0.00    +0.000 A 
ATOM     18  C   UNL     1      -7.543   3.820 120.486  0.00  0.00    +0.000 A 
ENDBRANCH  12  13
ENDBRANCH  11  12
ENDBRANCH   1  11
TORSDOF 5
ENDMDL
MODEL 9
REMARK VINA RESULT:      -6.2      9.782     11.822
REMARK  Name = Benzylparaben
REMARK  5 active torsions:
REMARK  status: ('A' for Active; 'I' for Inactive)
REMARK    1  A    between atoms: O_1  and  C_2
REMARK    2  A    between atoms: C_5  and  C_8
REMARK    3  A    between atoms: C_8  and  O_10
REMARK    4  A    between atoms: O_10  and  C_11
REMARK    5  A    between atoms: C_11  and  C_12
REMARK                            x       y       z     vdW  Elec       q    Type
REMARK                         _______ _______ _______ _____ _____    ______ ____
ROOT
ATOM      1  C   UNL     1     -10.664   5.344 130.159  0.00  0.00    +0.000 C 
ATOM      2  O   UNL     1     -11.304   4.298 130.165  0.00  0.00    +0.000 OA
ENDROOT
BRANCH   1   6
ATOM      3  C   UNL     1     -12.522   9.111 129.190  0.00  0.00    +0.000 A 
ATOM      4  C   UNL     1     -12.906   8.405 130.322  0.00  0.00    +0.000 A 
ATOM      5  C   UNL     1     -12.282   7.184 130.617  0.00  0.00    +0.000 A 
ATOM      6  C   UNL     1     -11.273   6.663 129.786  0.00  0.00    +0.000 A 
ATOM      7  C   UNL     1     -10.892   7.398 128.654  0.00  0.00    +0.000 A 
ATOM      8  C   UNL     1     -11.518   8.620 128.360  0.00  0.00    +0.000 A 
BRANCH   3   9
ATOM      9  O   UNL     1     -13.113  10.294 128.855  0.00  0.00    +0.000 OA
ATOM     10  H   UNL     1     -14.075  10.212 128.965  0.00  0.00    +0.000 HD
ENDBRANCH   3   9
ENDBRANCH   1   6
BRANCH   1  11
ATOM     11  O   UNL     1      -9.351   5.452 130.469  0.00  0.00    +0.000 OA
BRANCH  11  12
ATOM     12  C   UNL     1      -9.069   5.850 131.833  0.00  0.00    +0.000 C 
BRANCH  12  13
ATOM     13  C   UNL     1      -7.588   6.135 132.006  0.00  0.00    +0.000 A 
ATOM     14  C   UNL     1      -6.870   6.846 131.028  0.00  0.00    +0.000 A 
ATOM     15  C   UNL     1      -5.480   6.984 131.127  0.00  0.00    +0.000 A 
ATOM     16  C   UNL     1      -4.806   6.501 132.247  0.00  0.00    +0.000 A 
ATOM     17  C   UNL     1      -5.516   5.854 133.254  0.00  0.00    +0.000 A 
ATOM     18  C   UNL     1      -6.893   5.675 133.134  0.00  0.00    +0.000 A 
ENDBRANCH  12  13
ENDBRANCH  11  12
ENDBRANCH   1  11
TORSDOF 5
ENDMDL
