MODEL 1
REMARK VINA RESULT:      -7.1      0.000      0.000
REMARK  Name = Benzoin
REMARK  4 active torsions:
REMARK  status: ('A' for Active; 'I' for Inactive)
REMARK    1  A    between atoms: O_1  and  C_2
REMARK    2  A    between atoms: C_2  and  C_3
REMARK    3  A    between atoms: C_2  and  C_11
REMARK    4  A    between atoms: C_3  and  C_5
REMARK                            x       y       z     vdW  Elec       q    Type
REMARK                         _______ _______ _______ _____ _____    ______ ____
ROOT
ATOM      1  C   UNL     1      -9.080  -2.226 123.925  0.00  0.00    +0.000 C 
ENDROOT
BRANCH   1   2
ATOM      2  C   UNL     1      -7.647  -2.660 123.632  0.00  0.00    +0.000 A 
ATOM      3  C   UNL     1      -7.070  -3.772 124.265  0.00  0.00    +0.000 A 
ATOM      4  C   UNL     1      -5.704  -4.022 124.152  0.00  0.00    +0.000 A 
ATOM      5  C   UNL     1      -4.911  -3.216 123.338  0.00  0.00    +0.000 A 
ATOM      6  C   UNL     1      -5.483  -2.157 122.640  0.00  0.00    +0.000 A 
ATOM      7  C   UNL     1      -6.844  -1.893 122.770  0.00  0.00    +0.000 A 
ENDBRANCH   1   2
BRANCH   1   8
ATOM      8  O   UNL     1      -9.930  -3.357 123.753  0.00  0.00    +0.000 OA
ATOM      9  H   UNL     1     -10.260  -3.615 124.625  0.00  0.00    +0.000 HD
ENDBRANCH   1   8
BRANCH   1  10
ATOM     10  C   UNL     1      -9.210  -1.584 125.335  0.00  0.00    +0.000 C 
ATOM     11  O   UNL     1      -9.830  -0.539 125.579  0.00  0.00    +0.000 OA
BRANCH  10  12
ATOM     12  C   UNL     1      -8.635  -2.269 126.512  0.00  0.00    +0.000 A 
ATOM     13  C   UNL     1      -9.253  -3.445 126.960  0.00  0.00    +0.000 A 
ATOM     14  C   UNL     1      -8.885  -3.999 128.184  0.00  0.00    +0.000 A 
ATOM     15  C   UNL     1      -7.844  -3.434 128.920  0.00  0.00    +0.000 A 
ATOM     16  C   UNL     1      -7.202  -2.290 128.457  0.00  0.00    +0.000 A 
ATOM     17  C   UNL     1      -7.619  -1.691 127.273  0.00  0.00    +0.000 A 
ENDBRANCH  10  12
ENDBRANCH   1  10
TORSDOF 4
ENDMDL
MODEL 2
REMARK VINA RESULT:      -7.1      4.467      6.188
REMARK  Name = Benzoin
REMARK  4 active torsions:
REMARK  status: ('A' for Active; 'I' for Inactive)
REMARK    1  A    between atoms: O_1  and  C_2
REMARK    2  A    between atoms: C_2  and  C_3
REMARK    3  A    between atoms: C_2  and  C_11
REMARK    4  A    between atoms: C_3  and  C_5
REMARK                            x       y       z     vdW  Elec       q    Type
REMARK                         _______ _______ _______ _____ _____    ______ ____
ROOT
ATOM      1  C   UNL     1      -7.723   3.108 123.822  0.00  0.00    +0.000 C 
ENDROOT
BRANCH   1   2
ATOM      2  C   UNL     1      -7.519   3.360 122.332  0.00  0.00    +0.000 A 
ATOM      3  C   UNL     1      -6.238   3.516 121.780  0.00  0.00    +0.000 A 
ATOM      4  C   UNL     1      -6.081   3.959 120.468  0.00  0.00    +0.000 A 
ATOM      5  C   UNL     1      -7.198   4.171 119.664  0.00  0.00    +0.000 A 
ATOM      6  C   UNL     1      -8.473   3.945 120.172  0.00  0.00    +0.000 A 
ATOM      7  C   UNL     1      -8.632   3.523 121.489  0.00  0.00    +0.000 A 
ENDBRANCH   1   2
BRANCH   1   8
ATOM      8  O   UNL     1      -8.198   4.313 124.415  0.00  0.00    +0.000 OA
ATOM      9  H   UNL     1      -7.549   4.596 125.074  0.00  0.00    +0.000 HD
ENDBRANCH   1   8
BRANCH   1  10
ATOM     10  C   UNL     1      -8.665   1.899 124.078  0.00  0.00    +0.000 C 
ATOM     11  O   UNL     1      -9.744   1.961 124.685  0.00  0.00    +0.000 OA
BRANCH  10  12
ATOM     12  C   UNL     1      -8.331   0.573 123.514  0.00  0.00    +0.000 A 
ATOM     13  C   UNL     1      -9.386  -0.254 123.102  0.00  0.00    +0.000 A 
ATOM     14  C   UNL     1      -9.136  -1.585 122.774  0.00  0.00    +0.000 A 
ATOM     15  C   UNL     1      -7.829  -2.068 122.771  0.00  0.00    +0.000 A 
ATOM     16  C   UNL     1      -6.776  -1.237 123.141  0.00  0.00    +0.000 A 
ATOM     17  C   UNL     1      -7.031   0.069 123.543  0.00  0.00    +0.000 A 
ENDBRANCH  10  12
ENDBRANCH   1  10
TORSDOF 4
ENDMDL
MODEL 3
REMARK VINA RESULT:      -7.0     10.856     11.851
REMARK  Name = Benzoin
REMARK  4 active torsions:
REMARK  status: ('A' for Active; 'I' for Inactive)
REMARK    1  A    between atoms: O_1  and  C_2
REMARK    2  A    between atoms: C_2  and  C_3
REMARK    3  A    between atoms: C_2  and  C_11
REMARK    4  A    between atoms: C_3  and  C_5
REMARK                            x       y       z     vdW  Elec       q    Type
REMARK                         _______ _______ _______ _____ _____    ______ ____
ROOT
ATOM      1  C   UNL     1     -11.353   6.295 130.308  0.00  0.00    +0.000 C 
ENDROOT
BRANCH   1   2
ATOM      2  C   UNL     1     -12.314   7.228 129.579  0.00  0.00    +0.000 A 
ATOM      3  C   UNL     1     -13.085   6.788 128.491  0.00  0.00    +0.000 A 
ATOM      4  C   UNL     1     -13.787   7.700 127.705  0.00  0.00    +0.000 A 
ATOM      5  C   UNL     1     -13.799   9.050 128.044  0.00  0.00    +0.000 A 
ATOM      6  C   UNL     1     -13.105   9.492 129.166  0.00  0.00    +0.000 A 
ATOM      7  C   UNL     1     -12.385   8.585 129.940  0.00  0.00    +0.000 A 
ENDBRANCH   1   2
BRANCH   1   8
ATOM      8  O   UNL     1     -11.540   4.978 129.798  0.00  0.00    +0.000 OA
ATOM      9  H   UNL     1     -12.143   5.035 129.044  0.00  0.00    +0.000 HD
ENDBRANCH   1   8
BRANCH   1  10
ATOM     10  C   UNL     1      -9.881   6.782 130.195  0.00  0.00    +0.000 C 
ATOM     11  O   UNL     1      -9.424   7.430 129.243  0.00  0.00    +0.000 OA
BRANCH  10  12
ATOM     12  C   UNL     1      -8.939   6.543 131.310  0.00  0.00    +0.000 A 
ATOM     13  C   UNL     1      -7.570   6.730 131.069  0.00  0.00    +0.000 A 
ATOM     14  C   UNL     1      -6.637   6.308 132.013  0.00  0.00    +0.000 A 
ATOM     15  C   UNL     1      -7.066   5.782 133.231  0.00  0.00    +0.000 A 
ATOM     16  C   UNL     1      -8.425   5.634 133.488  0.00  0.00    +0.000 A 
ATOM     17  C   UNL     1      -9.357   5.982 132.516  0.00  0.00    +0.000 A 
ENDBRANCH  10  12
ENDBRANCH   1  10
TORSDOF 4
ENDMDL
MODEL 4
REMARK VINA RESULT:      -7.0     10.278     11.819
REMARK  Name = Benzoin
REMARK  4 active torsions:
REMARK  status: ('A' for Active; 'I' for Inactive)
REMARK    1  A    between atoms: O_1  and  C_2
REMARK    2  A    between atoms: C_2  and  C_3
REMARK    3  A    between atoms: C_2  and  C_11
REMARK    4  A    between atoms: C_3  and  C_5
REMARK                            x       y       z     vdW  Elec       q    Type
REMARK                         _______ _______ _______ _____ _____    ______ ____
ROOT
ATOM      1  C   UNL     1     -10.876   5.447 130.505  0.00  0.00    +0.000 C 
ENDROOT
BRANCH   1   2
ATOM      2  C   UNL     1      -9.524   5.780 131.125  0.00  0.00    +0.000 A 
ATOM      3  C   UNL     1      -8.744   6.851 130.661  0.00  0.00    +0.000 A 
ATOM      4  C   UNL     1      -7.427   7.006 131.088  0.00  0.00    +0.000 A 
ATOM      5  C   UNL     1      -6.898   6.147 132.048  0.00  0.00    +0.000 A 
ATOM      6  C   UNL     1      -7.684   5.128 132.577  0.00  0.00    +0.000 A 
ATOM      7  C   UNL     1      -8.993   4.958 132.135  0.00  0.00    +0.000 A 
ENDBRANCH   1   2
BRANCH   1   8
ATOM      8  O   UNL     1     -11.185   4.091 130.817  0.00  0.00    +0.000 OA
ATOM      9  H   UNL     1     -12.127   3.955 130.646  0.00  0.00    +0.000 HD
ENDBRANCH   1   8
BRANCH   1  10
ATOM     10  C   UNL     1     -11.982   6.437 130.965  0.00  0.00    +0.000 C 
ATOM     11  O   UNL     1     -12.311   6.628 132.144  0.00  0.00    +0.000 OA
BRANCH  10  12
ATOM     12  C   UNL     1     -12.668   7.290 129.970  0.00  0.00    +0.000 A 
ATOM     13  C   UNL     1     -13.239   6.669 128.851  0.00  0.00    +0.000 A 
ATOM     14  C   UNL     1     -13.697   7.444 127.787  0.00  0.00    +0.000 A 
ATOM     15  C   UNL     1     -13.667   8.835 127.874  0.00  0.00    +0.000 A 
ATOM     16  C   UNL     1     -13.137   9.453 129.002  0.00  0.00    +0.000 A 
ATOM     17  C   UNL     1     -12.609   8.682 130.033  0.00  0.00    +0.000 A 
ENDBRANCH  10  12
ENDBRANCH   1  10
TORSDOF 4
ENDMDL
MODEL 5
REMARK VINA RESULT:      -6.9      9.388     11.355
REMARK  Name = Benzoin
REMARK  4 active torsions:
REMARK  status: ('A' for Active; 'I' for Inactive)
REMARK    1  A    between atoms: O_1  and  C_2
REMARK    2  A    between atoms: C_2  and  C_3
REMARK    3  A    between atoms: C_2  and  C_11
REMARK    4  A    between atoms: C_3  and  C_5
REMARK                            x       y       z     vdW  Elec       q    Type
REMARK                         _______ _______ _______ _____ _____    ______ ____
ROOT
ATOM      1  C   UNL     1     -11.441   7.018 131.333  0.00  0.00    +0.000 C 
ENDROOT
BRANCH   1   2
ATOM      2  C   UNL     1     -12.138   7.407 130.033  0.00  0.00    +0.000 A 
ATOM      3  C   UNL     1     -12.366   8.750 129.692  0.00  0.00    +0.000 A 
ATOM      4  C   UNL     1     -13.189   9.078 128.618  0.00  0.00    +0.000 A 
ATOM      5  C   UNL     1     -13.728   8.074 127.818  0.00  0.00    +0.000 A 
ATOM      6  C   UNL     1     -13.447   6.739 128.094  0.00  0.00    +0.000 A 
ATOM      7  C   UNL     1     -12.642   6.409 129.181  0.00  0.00    +0.000 A 
ENDBRANCH   1   2
BRANCH   1   8
ATOM      8  O   UNL     1     -12.307   6.148 132.057  0.00  0.00    +0.000 OA
ATOM      9  H   UNL     1     -12.163   6.305 133.000  0.00  0.00    +0.000 HD
ENDBRANCH   1   8
BRANCH   1  10
ATOM     10  C   UNL     1     -10.041   6.395 131.072  0.00  0.00    +0.000 C 
ATOM     11  O   UNL     1      -9.134   6.943 130.431  0.00  0.00    +0.000 OA
BRANCH  10  12
ATOM     12  C   UNL     1      -9.693   5.089 131.673  0.00  0.00    +0.000 A 
ATOM     13  C   UNL     1      -9.937   3.930 130.923  0.00  0.00    +0.000 A 
ATOM     14  C   UNL     1      -9.833   2.679 131.526  0.00  0.00    +0.000 A 
ATOM     15  C   UNL     1      -9.403   2.576 132.848  0.00  0.00    +0.000 A 
ATOM     16  C   UNL     1      -9.120   3.724 133.582  0.00  0.00    +0.000 A 
ATOM     17  C   UNL     1      -9.297   4.977 133.006  0.00  0.00    +0.000 A 
ENDBRANCH  10  12
ENDBRANCH   1  10
TORSDOF 4
ENDMDL
MODEL 6
REMARK VINA RESULT:      -6.9      4.221      6.406
REMARK  Name = Benzoin
REMARK  4 active torsions:
REMARK  status: ('A' for Active; 'I' for Inactive)
REMARK    1  A    between atoms: O_1  and  C_2
REMARK    2  A    between atoms: C_2  and  C_3
REMARK    3  A    between atoms: C_2  and  C_11
REMARK    4  A    between atoms: C_3  and  C_5
REMARK                            x       y       z     vdW  Elec       q    Type
REMARK                         _______ _______ _______ _____ _____    ______ ____
ROOT
ATOM      1  C   UNL     1      -9.726   1.261 123.055  0.00  0.00    +0.000 C 
ENDROOT
BRANCH   1   2
ATOM      2  C   UNL     1      -8.848   0.033 123.272  0.00  0.00    +0.000 A 
ATOM      3  C   UNL     1      -7.574   0.132 123.854  0.00  0.00    +0.000 A 
ATOM      4  C   UNL     1      -6.705  -0.957 123.845  0.00  0.00    +0.000 A 
ATOM      5  C   UNL     1      -7.124  -2.182 123.332  0.00  0.00    +0.000 A 
ATOM      6  C   UNL     1      -8.411  -2.318 122.823  0.00  0.00    +0.000 A 
ATOM      7  C   UNL     1      -9.274  -1.225 122.812  0.00  0.00    +0.000 A 
ENDBRANCH   1   2
BRANCH   1   8
ATOM      8  O   UNL     1     -10.916   1.096 123.821  0.00  0.00    +0.000 OA
ATOM      9  H   UNL     1     -10.667   0.727 124.680  0.00  0.00    +0.000 HD
ENDBRANCH   1   8
BRANCH   1  10
ATOM     10  C   UNL     1      -8.970   2.577 123.392  0.00  0.00    +0.000 C 
ATOM     11  O   UNL     1      -8.972   3.127 124.502  0.00  0.00    +0.000 OA
BRANCH  10  12
ATOM     12  C   UNL     1      -8.113   3.217 122.370  0.00  0.00    +0.000 A 
ATOM     13  C   UNL     1      -8.700   3.579 121.150  0.00  0.00    +0.000 A 
ATOM     14  C   UNL     1      -7.895   3.978 120.085  0.00  0.00    +0.000 A 
ATOM     15  C   UNL     1      -6.517   4.099 120.260  0.00  0.00    +0.000 A 
ATOM     16  C   UNL     1      -5.937   3.779 121.484  0.00  0.00    +0.000 A 
ATOM     17  C   UNL     1      -6.730   3.307 122.525  0.00  0.00    +0.000 A 
ENDBRANCH  10  12
ENDBRANCH   1  10
TORSDOF 4
ENDMDL
MODEL 7
REMARK VINA RESULT:      -6.7     10.295     11.458
REMARK  Name = Benzoin
REMARK  4 active torsions:
REMARK  status: ('A' for Active; 'I' for Inactive)
REMARK    1  A    between atoms: O_1  and  C_2
REMARK    2  A    between atoms: C_2  and  C_3
REMARK    3  A    between atoms: C_2  and  C_11
REMARK    4  A    between atoms: C_3  and  C_5
REMARK                            x       y       z     vdW  Elec       q    Type
REMARK                         _______ _______ _______ _____ _____    ______ ____
ROOT
ATOM      1  C   UNL     1     -10.893   5.465 130.435  0.00  0.00    +0.000 C 
ENDROOT
BRANCH   1   2
ATOM      2  C   UNL     1     -11.539   6.513 129.534  0.00  0.00    +0.000 A 
ATOM      3  C   UNL     1     -10.886   7.713 129.213  0.00  0.00    +0.000 A 
ATOM      4  C   UNL     1     -11.572   8.744 128.575  0.00  0.00    +0.000 A 
ATOM      5  C   UNL     1     -12.892   8.562 128.173  0.00  0.00    +0.000 A 
ATOM      6  C   UNL     1     -13.530   7.349 128.413  0.00  0.00    +0.000 A 
ATOM      7  C   UNL     1     -12.853   6.325 129.070  0.00  0.00    +0.000 A 
ENDBRANCH   1   2
BRANCH   1   8
ATOM      8  O   UNL     1     -10.018   4.673 129.636  0.00  0.00    +0.000 OA
ATOM      9  H   UNL     1     -10.451   4.520 128.785  0.00  0.00    +0.000 HD
ENDBRANCH   1   8
BRANCH   1  10
ATOM     10  C   UNL     1     -10.175   6.115 131.651  0.00  0.00    +0.000 C 
ATOM     11  O   UNL     1     -10.752   6.624 132.622  0.00  0.00    +0.000 OA
BRANCH  10  12
ATOM     12  C   UNL     1      -8.699   6.083 131.737  0.00  0.00    +0.000 A 
ATOM     13  C   UNL     1      -8.114   5.338 132.771  0.00  0.00    +0.000 A 
ATOM     14  C   UNL     1      -6.749   5.457 133.024  0.00  0.00    +0.000 A 
ATOM     15  C   UNL     1      -5.952   6.247 132.197  0.00  0.00    +0.000 A 
ATOM     16  C   UNL     1      -6.525   6.955 131.145  0.00  0.00    +0.000 A 
ATOM     17  C   UNL     1      -7.899   6.899 130.937  0.00  0.00    +0.000 A 
ENDBRANCH  10  12
ENDBRANCH   1  10
TORSDOF 4
ENDMDL
MODEL 8
REMARK VINA RESULT:      -6.7      8.290     10.337
REMARK  Name = Benzoin
REMARK  4 active torsions:
REMARK  status: ('A' for Active; 'I' for Inactive)
REMARK    1  A    between atoms: O_1  and  C_2
REMARK    2  A    between atoms: C_2  and  C_3
REMARK    3  A    between atoms: C_2  and  C_11
REMARK    4  A    between atoms: C_3  and  C_5
REMARK                            x       y       z     vdW  Elec       q    Type
REMARK                         _______ _______ _______ _____ _____    ______ ____
ROOT
ATOM      1  C   UNL     1     -10.361   5.594 131.316  0.00  0.00    +0.000 C 
ENDROOT
BRANCH   1   2
ATOM      2  C   UNL     1     -10.864   6.791 130.516  0.00  0.00    +0.000 A 
ATOM      3  C   UNL     1     -12.129   7.354 130.748  0.00  0.00    +0.000 A 
ATOM      4  C   UNL     1     -12.656   8.298 129.870  0.00  0.00    +0.000 A 
ATOM      5  C   UNL     1     -11.896   8.756 128.797  0.00  0.00    +0.000 A 
ATOM      6  C   UNL     1     -10.609   8.267 128.598  0.00  0.00    +0.000 A 
ATOM      7  C   UNL     1     -10.089   7.307 129.462  0.00  0.00    +0.000 A 
ENDBRANCH   1   2
BRANCH   1   8
ATOM      8  O   UNL     1     -10.854   5.711 132.647  0.00  0.00    +0.000 OA
ATOM      9  H   UNL     1     -10.152   6.096 133.190  0.00  0.00    +0.000 HD
ENDBRANCH   1   8
BRANCH   1  10
ATOM     10  C   UNL     1     -10.753   4.247 130.645  0.00  0.00    +0.000 C 
ATOM     11  O   UNL     1     -11.743   4.083 129.918  0.00  0.00    +0.000 OA
BRANCH  10  12
ATOM     12  C   UNL     1      -9.874   3.067 130.795  0.00  0.00    +0.000 A 
ATOM     13  C   UNL     1      -8.965   2.786 129.766  0.00  0.00    +0.000 A 
ATOM     14  C   UNL     1      -8.279   1.574 129.759  0.00  0.00    +0.000 A 
ATOM     15  C   UNL     1      -8.432   0.680 130.818  0.00  0.00    +0.000 A 
ATOM     16  C   UNL     1      -9.303   0.976 131.861  0.00  0.00    +0.000 A 
ATOM     17  C   UNL     1     -10.047   2.151 131.832  0.00  0.00    +0.000 A 
ENDBRANCH  10  12
ENDBRANCH   1  10
TORSDOF 4
ENDMDL
MODEL 9
REMARK VINA RESULT:      -6.6      9.919     11.461
REMARK  Name = Benzoin
REMARK  4 active torsions:
REMARK  status: ('A' for Active; 'I' for Inactive)
REMARK    1  A    between atoms: O_1  and  C_2
REMARK    2  A    between atoms: C_2  and  C_3
REMARK    3  A    between atoms: C_2  and  C_11
REMARK    4  A    between atoms: C_3  and  C_5
REMARK                            x       y       z     vdW  Elec       q    Type
REMARK                         _______ _______ _______ _____ _____    ______ ____
ROOT
ATOM      1  C   UNL     1      -9.628   5.794 129.751  0.00  0.00    +0.000 C 
ENDROOT
BRANCH   1   2
ATOM      2  C   UNL     1     -10.773   6.791 129.611  0.00  0.00    +0.000 A 
ATOM      3  C   UNL     1     -10.836   7.696 128.540  0.00  0.00    +0.000 A 
ATOM      4  C   UNL     1     -11.763   8.736 128.544  0.00  0.00    +0.000 A 
ATOM      5  C   UNL     1     -12.694   8.838 129.574  0.00  0.00    +0.000 A 
ATOM      6  C   UNL     1     -12.697   7.902 130.604  0.00  0.00    +0.000 A 
ATOM      7  C   UNL     1     -11.757   6.875 130.612  0.00  0.00    +0.000 A 
ENDBRANCH   1   2
BRANCH   1   8
ATOM      8  O   UNL     1      -9.073   5.572 128.457  0.00  0.00    +0.000 OA
ATOM      9  H   UNL     1      -8.703   4.678 128.443  0.00  0.00    +0.000 HD
ENDBRANCH   1   8
BRANCH   1  10
ATOM     10  C   UNL     1      -8.571   6.272 130.786  0.00  0.00    +0.000 C 
ATOM     11  O   UNL     1      -7.779   7.207 130.604  0.00  0.00    +0.000 OA
BRANCH  10  12
ATOM     12  C   UNL     1      -8.517   5.647 132.125  0.00  0.00    +0.000 A 
ATOM     13  C   UNL     1      -7.442   5.975 132.964  0.00  0.00    +0.000 A 
ATOM     14  C   UNL     1      -7.231   5.250 134.135  0.00  0.00    +0.000 A 
ATOM     15  C   UNL     1      -8.136   4.260 134.515  0.00  0.00    +0.000 A 
ATOM     16  C   UNL     1      -9.226   3.962 133.704  0.00  0.00    +0.000 A 
ATOM     17  C   UNL     1      -9.397   4.630 132.496  0.00  0.00    +0.000 A 
ENDBRANCH  10  12
ENDBRANCH   1  10
TORSDOF 4
ENDMDL
