MODEL 1
REMARK VINA RESULT:     -10.1      0.000      0.000
REMARK  Name = Benzhydrocodone
REMARK  6 active torsions:
REMARK  status: ('A' for Active; 'I' for Inactive)
REMARK    1  A    between atoms: C_5  and  O_6
REMARK    2  A    between atoms: O_6  and  C_7
REMARK    3  A    between atoms: N_15  and  C_16
REMARK    4  A    between atoms: C_24  and  O_25
REMARK    5  A    between atoms: O_25  and  C_26
REMARK    6  A    between atoms: C_26  and  C_28
REMARK                            x       y       z     vdW  Elec       q    Type
REMARK                         _______ _______ _______ _____ _____    ______ ____
ROOT
ATOM      1  C   UNL     1      -5.822  -0.926 126.324  0.00  0.00    +0.000 C 
ATOM      2  O   UNL     1      -5.080  -1.316 127.441  0.00  0.00    +0.000 OA
ATOM      3  C   UNL     1      -5.985  -1.928 128.228  0.00  0.00    +0.000 A 
ATOM      4  C   UNL     1      -5.550  -2.522 129.367  0.00  0.00    +0.000 A 
ATOM      5  C   UNL     1      -6.494  -3.331 129.956  0.00  0.00    +0.000 A 
ATOM      6  C   UNL     1      -7.783  -3.639 129.258  0.00  0.00    +0.000 A 
ATOM      7  C   UNL     1      -8.140  -3.104 127.969  0.00  0.00    +0.000 A 
ATOM      8  C   UNL     1      -7.217  -2.193 127.603  0.00  0.00    +0.000 A 
ATOM      9  C   UNL     1      -7.281  -1.736 126.224  0.00  0.00    +0.000 C 
ATOM     10  C   UNL     1      -8.474  -0.832 125.953  0.00  0.00    +0.000 C 
ATOM     11  C   UNL     1      -8.811  -0.373 124.570  0.00  0.00    +0.000 C 
ATOM     12  N   UNL     1      -9.488  -1.509 124.033  0.00  0.00    +0.000 NA
ATOM     13  C   UNL     1      -9.458  -1.122 122.551  0.00  0.00    +0.000 C 
ATOM     14  C   UNL     1      -8.967  -2.827 124.805  0.00  0.00    +0.000 C 
ATOM     15  C   UNL     1      -9.313  -3.315 126.656  0.00  0.00    +0.000 C 
ATOM     16  C   UNL     1      -7.506  -3.042 125.217  0.00  0.00    +0.000 C 
ATOM     17  C   UNL     1      -6.435  -3.391 124.150  0.00  0.00    +0.000 C 
ATOM     18  C   UNL     1      -5.616  -2.435 124.983  0.00  0.00    +0.000 C 
ATOM     19  C   UNL     1      -5.895  -0.984 124.840  0.00  0.00    +0.000 C 
ENDROOT
BRANCH   4  20
ATOM     20  O   UNL     1      -4.235  -2.439 129.748  0.00  0.00    +0.000 OA
ATOM     21  C   UNL     1      -3.549  -3.660 129.389  0.00  0.00    +0.000 C 
ENDBRANCH   4  20
BRANCH  19  22
ATOM     22  O   UNL     1      -6.522   0.565 125.203  0.00  0.00    +0.000 OA
BRANCH  22  23
ATOM     23  C   UNL     1      -6.823   2.080 125.318  0.00  0.00    +0.000 C 
ATOM     24  O   UNL     1      -6.914   2.558 126.507  0.00  0.00    +0.000 OA
BRANCH  23  25
ATOM     25  C   UNL     1      -6.925   3.260 124.166  0.00  0.00    +0.000 A 
ATOM     26  C   UNL     1      -5.806   4.101 123.892  0.00  0.00    +0.000 A 
ATOM     27  C   UNL     1      -5.351   4.255 122.552  0.00  0.00    +0.000 A 
ATOM     28  C   UNL     1      -6.152   3.844 121.488  0.00  0.00    +0.000 A 
ATOM     29  C   UNL     1      -7.424   3.318 121.765  0.00  0.00    +0.000 A 
ATOM     30  C   UNL     1      -7.848   3.081 123.106  0.00  0.00    +0.000 A 
ENDBRANCH  23  25
ENDBRANCH  22  23
ENDBRANCH  19  22
TORSDOF 4
ENDMDL
MODEL 2
REMARK VINA RESULT:      -9.4      1.606      2.434
REMARK  Name = Benzhydrocodone
REMARK  6 active torsions:
REMARK  status: ('A' for Active; 'I' for Inactive)
REMARK    1  A    between atoms: C_5  and  O_6
REMARK    2  A    between atoms: O_6  and  C_7
REMARK    3  A    between atoms: N_15  and  C_16
REMARK    4  A    between atoms: C_24  and  O_25
REMARK    5  A    between atoms: O_25  and  C_26
REMARK    6  A    between atoms: C_26  and  C_28
REMARK                            x       y       z     vdW  Elec       q    Type
REMARK                         _______ _______ _______ _____ _____    ______ ____
ROOT
ATOM      1  C   UNL     1      -5.723  -1.176 126.313  0.00  0.00    +0.000 C 
ATOM      2  O   UNL     1      -5.019  -1.628 127.431  0.00  0.00    +0.000 OA
ATOM      3  C   UNL     1      -5.976  -2.160 128.216  0.00  0.00    +0.000 A 
ATOM      4  C   UNL     1      -5.597  -2.789 129.355  0.00  0.00    +0.000 A 
ATOM      5  C   UNL     1      -6.608  -3.514 129.942  0.00  0.00    +0.000 A 
ATOM      6  C   UNL     1      -7.917  -3.710 129.241  0.00  0.00    +0.000 A 
ATOM      7  C   UNL     1      -8.224  -3.145 127.952  0.00  0.00    +0.000 A 
ATOM      8  C   UNL     1      -7.225  -2.317 127.588  0.00  0.00    +0.000 A 
ATOM      9  C   UNL     1      -7.246  -1.856 126.209  0.00  0.00    +0.000 C 
ATOM     10  C   UNL     1      -8.356  -0.853 125.936  0.00  0.00    +0.000 C 
ATOM     11  C   UNL     1      -8.649  -0.366 124.552  0.00  0.00    +0.000 C 
ATOM     12  N   UNL     1      -9.420  -1.439 124.013  0.00  0.00    +0.000 NA
ATOM     13  C   UNL     1      -9.354  -1.057 122.532  0.00  0.00    +0.000 C 
ATOM     14  C   UNL     1      -9.017  -2.798 124.786  0.00  0.00    +0.000 C 
ATOM     15  C   UNL     1      -9.408  -3.254 126.636  0.00  0.00    +0.000 C 
ATOM     16  C   UNL     1      -7.581  -3.138 125.201  0.00  0.00    +0.000 C 
ATOM     17  C   UNL     1      -6.542  -3.579 124.137  0.00  0.00    +0.000 C 
ATOM     18  C   UNL     1      -5.645  -2.697 124.971  0.00  0.00    +0.000 C 
ATOM     19  C   UNL     1      -5.797  -1.227 124.828  0.00  0.00    +0.000 C 
ENDROOT
BRANCH   4  20
ATOM     20  O   UNL     1      -4.280  -2.820 129.739  0.00  0.00    +0.000 OA
ATOM     21  C   UNL     1      -4.132  -3.680 130.892  0.00  0.00    +0.000 C 
ENDBRANCH   4  20
BRANCH  19  22
ATOM     22  O   UNL     1      -6.289   0.370 125.190  0.00  0.00    +0.000 OA
BRANCH  22  23
ATOM     23  C   UNL     1      -6.384   1.888 125.482  0.00  0.00    +0.000 C 
ATOM     24  O   UNL     1      -7.386   2.509 124.972  0.00  0.00    +0.000 OA
BRANCH  23  25
ATOM     25  C   UNL     1      -5.483   2.866 126.463  0.00  0.00    +0.000 A 
ATOM     26  C   UNL     1      -5.236   2.498 127.819  0.00  0.00    +0.000 A 
ATOM     27  C   UNL     1      -3.901   2.489 128.314  0.00  0.00    +0.000 A 
ATOM     28  C   UNL     1      -2.882   3.112 127.596  0.00  0.00    +0.000 A 
ATOM     29  C   UNL     1      -3.208   3.780 126.404  0.00  0.00    +0.000 A 
ATOM     30  C   UNL     1      -4.525   3.717 125.860  0.00  0.00    +0.000 A 
ENDBRANCH  23  25
ENDBRANCH  22  23
ENDBRANCH  19  22
TORSDOF 4
ENDMDL
MODEL 3
REMARK VINA RESULT:      -9.2      1.845      3.068
REMARK  Name = Benzhydrocodone
REMARK  6 active torsions:
REMARK  status: ('A' for Active; 'I' for Inactive)
REMARK    1  A    between atoms: C_5  and  O_6
REMARK    2  A    between atoms: O_6  and  C_7
REMARK    3  A    between atoms: N_15  and  C_16
REMARK    4  A    between atoms: C_24  and  O_25
REMARK    5  A    between atoms: O_25  and  C_26
REMARK    6  A    between atoms: C_26  and  C_28
REMARK                            x       y       z     vdW  Elec       q    Type
REMARK                         _______ _______ _______ _____ _____    ______ ____
ROOT
ATOM      1  C   UNL     1      -5.662  -1.295 126.358  0.00  0.00    +0.000 C 
ATOM      2  O   UNL     1      -4.967  -1.813 127.453  0.00  0.00    +0.000 OA
ATOM      3  C   UNL     1      -5.938  -2.328 128.232  0.00  0.00    +0.000 A 
ATOM      4  C   UNL     1      -5.575  -3.009 129.346  0.00  0.00    +0.000 A 
ATOM      5  C   UNL     1      -6.611  -3.706 129.922  0.00  0.00    +0.000 A 
ATOM      6  C   UNL     1      -7.935  -3.822 129.231  0.00  0.00    +0.000 A 
ATOM      7  C   UNL     1      -8.231  -3.204 127.964  0.00  0.00    +0.000 A 
ATOM      8  C   UNL     1      -7.199  -2.409 127.614  0.00  0.00    +0.000 A 
ATOM      9  C   UNL     1      -7.215  -1.904 126.251  0.00  0.00    +0.000 C 
ATOM     10  C   UNL     1      -8.282  -0.844 126.023  0.00  0.00    +0.000 C 
ATOM     11  C   UNL     1      -8.568  -0.301 124.659  0.00  0.00    +0.000 C 
ATOM     12  N   UNL     1      -9.392  -1.321 124.096  0.00  0.00    +0.000 NA
ATOM     13  C   UNL     1      -9.324  -0.894 122.626  0.00  0.00    +0.000 C 
ATOM     14  C   UNL     1      -9.041  -2.720 124.820  0.00  0.00    +0.000 C 
ATOM     15  C   UNL     1      -9.432  -3.217 126.660  0.00  0.00    +0.000 C 
ATOM     16  C   UNL     1      -7.617  -3.137 125.207  0.00  0.00    +0.000 C 
ATOM     17  C   UNL     1      -6.610  -3.588 124.117  0.00  0.00    +0.000 C 
ATOM     18  C   UNL     1      -5.666  -2.774 124.968  0.00  0.00    +0.000 C 
ATOM     19  C   UNL     1      -5.754  -1.295 124.873  0.00  0.00    +0.000 C 
ENDROOT
BRANCH   4  20
ATOM     20  O   UNL     1      -4.257  -3.110 129.713  0.00  0.00    +0.000 OA
ATOM     21  C   UNL     1      -4.015  -2.290 130.879  0.00  0.00    +0.000 C 
ENDBRANCH   4  20
BRANCH  19  22
ATOM     22  O   UNL     1      -6.170   0.310 125.291  0.00  0.00    +0.000 OA
BRANCH  22  23
ATOM     23  C   UNL     1      -6.299   1.717 125.925  0.00  0.00    +0.000 C 
ATOM     24  O   UNL     1      -6.190   2.718 125.127  0.00  0.00    +0.000 OA
BRANCH  23  25
ATOM     25  C   UNL     1      -6.690   2.188 127.459  0.00  0.00    +0.000 A 
ATOM     26  C   UNL     1      -8.012   2.628 127.765  0.00  0.00    +0.000 A 
ATOM     27  C   UNL     1      -8.713   2.046 128.859  0.00  0.00    +0.000 A 
ATOM     28  C   UNL     1      -8.030   1.282 129.804  0.00  0.00    +0.000 A 
ATOM     29  C   UNL     1      -6.638   1.137 129.675  0.00  0.00    +0.000 A 
ATOM     30  C   UNL     1      -5.947   1.644 128.535  0.00  0.00    +0.000 A 
ENDBRANCH  23  25
ENDBRANCH  22  23
ENDBRANCH  19  22
TORSDOF 4
ENDMDL
MODEL 4
REMARK VINA RESULT:      -9.2      6.866      9.021
REMARK  Name = Benzhydrocodone
REMARK  6 active torsions:
REMARK  status: ('A' for Active; 'I' for Inactive)
REMARK    1  A    between atoms: C_5  and  O_6
REMARK    2  A    between atoms: O_6  and  C_7
REMARK    3  A    between atoms: N_15  and  C_16
REMARK    4  A    between atoms: C_24  and  O_25
REMARK    5  A    between atoms: O_25  and  C_26
REMARK    6  A    between atoms: C_26  and  C_28
REMARK                            x       y       z     vdW  Elec       q    Type
REMARK                         _______ _______ _______ _____ _____    ______ ____
ROOT
ATOM      1  C   UNL     1      -9.355   3.983 130.167  0.00  0.00    +0.000 C 
ATOM      2  O   UNL     1      -9.215   3.556 128.844  0.00  0.00    +0.000 OA
ATOM      3  C   UNL     1      -8.015   4.045 128.477  0.00  0.00    +0.000 A 
ATOM      4  C   UNL     1      -7.530   3.712 127.256  0.00  0.00    +0.000 A 
ATOM      5  C   UNL     1      -6.206   4.042 127.085  0.00  0.00    +0.000 A 
ATOM      6  C   UNL     1      -5.384   4.537 128.235  0.00  0.00    +0.000 A 
ATOM      7  C   UNL     1      -5.907   4.733 129.563  0.00  0.00    +0.000 A 
ATOM      8  C   UNL     1      -7.242   4.551 129.539  0.00  0.00    +0.000 A 
ATOM      9  C   UNL     1      -7.900   4.462 130.832  0.00  0.00    +0.000 C 
ATOM     10  C   UNL     1      -7.960   5.797 131.559  0.00  0.00    +0.000 C 
ATOM     11  C   UNL     1      -8.460   5.901 132.966  0.00  0.00    +0.000 C 
ATOM     12  N   UNL     1      -7.322   5.486 133.720  0.00  0.00    +0.000 NA
ATOM     13  C   UNL     1      -8.006   5.255 135.071  0.00  0.00    +0.000 C 
ATOM     14  C   UNL     1      -6.422   4.515 132.797  0.00  0.00    +0.000 C 
ATOM     15  C   UNL     1      -5.382   5.019 131.232  0.00  0.00    +0.000 C 
ATOM     16  C   UNL     1      -7.013   3.476 131.838  0.00  0.00    +0.000 C 
ATOM     17  C   UNL     1      -7.640   2.169 132.390  0.00  0.00    +0.000 C 
ATOM     18  C   UNL     1      -8.650   2.459 131.307  0.00  0.00    +0.000 C 
ATOM     19  C   UNL     1      -9.638   3.539 131.557  0.00  0.00    +0.000 C 
ENDROOT
BRANCH   4  20
ATOM     20  O   UNL     1      -8.273   2.955 126.385  0.00  0.00    +0.000 OA
ATOM     21  C   UNL     1      -8.299   3.596 125.089  0.00  0.00    +0.000 C 
ENDBRANCH   4  20
BRANCH  19  22
ATOM     22  O   UNL     1     -10.370   5.082 131.483  0.00  0.00    +0.000 OA
BRANCH  22  23
ATOM     23  C   UNL     1     -11.277   6.309 131.214  0.00  0.00    +0.000 C 
ATOM     24  O   UNL     1     -12.235   6.507 132.047  0.00  0.00    +0.000 OA
BRANCH  23  25
ATOM     25  C   UNL     1     -11.165   7.522 130.098  0.00  0.00    +0.000 A 
ATOM     26  C   UNL     1     -10.182   7.465 129.066  0.00  0.00    +0.000 A 
ATOM     27  C   UNL     1     -10.574   7.637 127.709  0.00  0.00    +0.000 A 
ATOM     28  C   UNL     1     -11.833   8.150 127.402  0.00  0.00    +0.000 A 
ATOM     29  C   UNL     1     -12.682   8.529 128.455  0.00  0.00    +0.000 A 
ATOM     30  C   UNL     1     -12.328   8.278 129.814  0.00  0.00    +0.000 A 
ENDBRANCH  23  25
ENDBRANCH  22  23
ENDBRANCH  19  22
TORSDOF 4
ENDMDL
MODEL 5
REMARK VINA RESULT:      -9.1      7.028      9.263
REMARK  Name = Benzhydrocodone
REMARK  6 active torsions:
REMARK  status: ('A' for Active; 'I' for Inactive)
REMARK    1  A    between atoms: C_5  and  O_6
REMARK    2  A    between atoms: O_6  and  C_7
REMARK    3  A    between atoms: N_15  and  C_16
REMARK    4  A    between atoms: C_24  and  O_25
REMARK    5  A    between atoms: O_25  and  C_26
REMARK    6  A    between atoms: C_26  and  C_28
REMARK                            x       y       z     vdW  Elec       q    Type
REMARK                         _______ _______ _______ _____ _____    ______ ____
ROOT
ATOM      1  C   UNL     1      -6.428   4.481 129.241  0.00  0.00    +0.000 C 
ATOM      2  O   UNL     1      -5.500   4.294 128.214  0.00  0.00    +0.000 OA
ATOM      3  C   UNL     1      -4.503   5.143 128.527  0.00  0.00    +0.000 A 
ATOM      4  C   UNL     1      -3.381   5.127 127.766  0.00  0.00    +0.000 A 
ATOM      5  C   UNL     1      -2.337   5.833 128.317  0.00  0.00    +0.000 A 
ATOM      6  C   UNL     1      -2.428   6.375 129.710  0.00  0.00    +0.000 A 
ATOM      7  C   UNL     1      -3.593   6.236 130.545  0.00  0.00    +0.000 A 
ATOM      8  C   UNL     1      -4.591   5.695 129.818  0.00  0.00    +0.000 A 
ATOM      9  C   UNL     1      -5.758   5.251 130.564  0.00  0.00    +0.000 C 
ATOM     10  C   UNL     1      -6.593   6.405 131.099  0.00  0.00    +0.000 C 
ATOM     11  C   UNL     1      -7.752   6.173 132.016  0.00  0.00    +0.000 C 
ATOM     12  N   UNL     1      -7.106   5.992 133.276  0.00  0.00    +0.000 NA
ATOM     13  C   UNL     1      -8.280   5.398 134.060  0.00  0.00    +0.000 C 
ATOM     14  C   UNL     1      -5.611   5.445 133.010  0.00  0.00    +0.000 C 
ATOM     15  C   UNL     1      -4.126   6.426 132.226  0.00  0.00    +0.000 C 
ATOM     16  C   UNL     1      -5.267   4.423 131.921  0.00  0.00    +0.000 C 
ATOM     17  C   UNL     1      -5.651   2.931 132.099  0.00  0.00    +0.000 C 
ATOM     18  C   UNL     1      -5.987   3.073 130.634  0.00  0.00    +0.000 C 
ATOM     19  C   UNL     1      -7.237   3.791 130.280  0.00  0.00    +0.000 C 
ENDROOT
BRANCH   4  20
ATOM     20  O   UNL     1      -3.291   4.320 126.660  0.00  0.00    +0.000 OA
ATOM     21  C   UNL     1      -2.151   3.440 126.795  0.00  0.00    +0.000 C 
ENDBRANCH   4  20
BRANCH  19  22
ATOM     22  O   UNL     1      -8.258   5.065 129.772  0.00  0.00    +0.000 OA
BRANCH  22  23
ATOM     23  C   UNL     1      -9.263   5.993 129.045  0.00  0.00    +0.000 C 
ATOM     24  O   UNL     1      -9.484   5.740 127.805  0.00  0.00    +0.000 OA
BRANCH  23  25
ATOM     25  C   UNL     1     -10.232   7.205 129.612  0.00  0.00    +0.000 A 
ATOM     26  C   UNL     1     -10.574   8.308 128.774  0.00  0.00    +0.000 A 
ATOM     27  C   UNL     1     -11.941   8.675 128.615  0.00  0.00    +0.000 A 
ATOM     28  C   UNL     1     -12.908   8.174 129.485  0.00  0.00    +0.000 A 
ATOM     29  C   UNL     1     -12.500   7.338 130.538  0.00  0.00    +0.000 A 
ATOM     30  C   UNL     1     -11.147   6.899 130.648  0.00  0.00    +0.000 A 
ENDBRANCH  23  25
ENDBRANCH  22  23
ENDBRANCH  19  22
TORSDOF 4
ENDMDL
MODEL 6
REMARK VINA RESULT:      -8.9      7.713      9.902
REMARK  Name = Benzhydrocodone
REMARK  6 active torsions:
REMARK  status: ('A' for Active; 'I' for Inactive)
REMARK    1  A    between atoms: C_5  and  O_6
REMARK    2  A    between atoms: O_6  and  C_7
REMARK    3  A    between atoms: N_15  and  C_16
REMARK    4  A    between atoms: C_24  and  O_25
REMARK    5  A    between atoms: O_25  and  C_26
REMARK    6  A    between atoms: C_26  and  C_28
REMARK                            x       y       z     vdW  Elec       q    Type
REMARK                         _______ _______ _______ _____ _____    ______ ____
ROOT
ATOM      1  C   UNL     1      -7.760   5.977 131.756  0.00  0.00    +0.000 C 
ATOM      2  O   UNL     1      -8.835   6.730 131.280  0.00  0.00    +0.000 OA
ATOM      3  C   UNL     1      -9.655   5.809 130.740  0.00  0.00    +0.000 A 
ATOM      4  C   UNL     1     -10.861   6.215 130.273  0.00  0.00    +0.000 A 
ATOM      5  C   UNL     1     -11.716   5.176 129.987  0.00  0.00    +0.000 A 
ATOM      6  C   UNL     1     -11.364   3.769 130.361  0.00  0.00    +0.000 A 
ATOM      7  C   UNL     1     -10.127   3.399 130.999  0.00  0.00    +0.000 A 
ATOM      8  C   UNL     1      -9.319   4.477 131.047  0.00  0.00    +0.000 A 
ATOM      9  C   UNL     1      -8.134   4.353 131.880  0.00  0.00    +0.000 C 
ATOM     10  C   UNL     1      -7.084   3.428 131.282  0.00  0.00    +0.000 C 
ATOM     11  C   UNL     1      -5.855   3.043 132.042  0.00  0.00    +0.000 C 
ATOM     12  N   UNL     1      -6.343   2.014 132.902  0.00  0.00    +0.000 NA
ATOM     13  C   UNL     1      -5.166   1.945 133.880  0.00  0.00    +0.000 C 
ATOM     14  C   UNL     1      -7.921   2.254 133.143  0.00  0.00    +0.000 C 
ATOM     15  C   UNL     1      -9.350   2.045 131.841  0.00  0.00    +0.000 C 
ATOM     16  C   UNL     1      -8.545   3.642 133.328  0.00  0.00    +0.000 C 
ATOM     17  C   UNL     1      -8.348   4.418 134.656  0.00  0.00    +0.000 C 
ATOM     18  C   UNL     1      -8.197   5.575 133.697  0.00  0.00    +0.000 C 
ATOM     19  C   UNL     1      -6.919   5.688 132.949  0.00  0.00    +0.000 C 
ENDROOT
BRANCH   4  20
ATOM     20  O   UNL     1     -11.209   7.543 130.282  0.00  0.00    +0.000 OA
ATOM     21  C   UNL     1     -12.595   7.677 130.672  0.00  0.00    +0.000 C 
ENDBRANCH   4  20
BRANCH  19  22
ATOM     22  O   UNL     1      -5.813   5.566 131.652  0.00  0.00    +0.000 OA
BRANCH  22  23
ATOM     23  C   UNL     1      -4.629   5.704 130.662  0.00  0.00    +0.000 C 
ATOM     24  O   UNL     1      -4.886   6.259 129.533  0.00  0.00    +0.000 OA
BRANCH  23  25
ATOM     25  C   UNL     1      -3.018   5.379 130.840  0.00  0.00    +0.000 A 
ATOM     26  C   UNL     1      -2.045   6.386 130.573  0.00  0.00    +0.000 A 
ATOM     27  C   UNL     1      -1.050   6.681 131.548  0.00  0.00    +0.000 A 
ATOM     28  C   UNL     1      -0.832   5.810 132.614  0.00  0.00    +0.000 A 
ATOM     29  C   UNL     1      -1.582   4.624 132.679  0.00  0.00    +0.000 A 
ATOM     30  C   UNL     1      -2.638   4.368 131.756  0.00  0.00    +0.000 A 
ENDBRANCH  23  25
ENDBRANCH  22  23
ENDBRANCH  19  22
TORSDOF 4
ENDMDL
MODEL 7
REMARK VINA RESULT:      -8.8      7.039      9.062
REMARK  Name = Benzhydrocodone
REMARK  6 active torsions:
REMARK  status: ('A' for Active; 'I' for Inactive)
REMARK    1  A    between atoms: C_5  and  O_6
REMARK    2  A    between atoms: O_6  and  C_7
REMARK    3  A    between atoms: N_15  and  C_16
REMARK    4  A    between atoms: C_24  and  O_25
REMARK    5  A    between atoms: O_25  and  C_26
REMARK    6  A    between atoms: C_26  and  C_28
REMARK                            x       y       z     vdW  Elec       q    Type
REMARK                         _______ _______ _______ _____ _____    ______ ____
ROOT
ATOM      1  C   UNL     1      -7.138   5.593 130.659  0.00  0.00    +0.000 C 
ATOM      2  O   UNL     1      -7.402   5.162 129.357  0.00  0.00    +0.000 OA
ATOM      3  C   UNL     1      -7.629   3.842 129.498  0.00  0.00    +0.000 A 
ATOM      4  C   UNL     1      -8.022   3.137 128.409  0.00  0.00    +0.000 A 
ATOM      5  C   UNL     1      -8.473   1.873 128.709  0.00  0.00    +0.000 A 
ATOM      6  C   UNL     1      -8.672   1.448 130.132  0.00  0.00    +0.000 A 
ATOM      7  C   UNL     1      -8.384   2.291 131.264  0.00  0.00    +0.000 A 
ATOM      8  C   UNL     1      -7.780   3.415 130.830  0.00  0.00    +0.000 A 
ATOM      9  C   UNL     1      -7.645   4.486 131.804  0.00  0.00    +0.000 C 
ATOM     10  C   UNL     1      -6.610   4.185 132.876  0.00  0.00    +0.000 C 
ATOM     11  C   UNL     1      -6.419   5.084 134.056  0.00  0.00    +0.000 C 
ATOM     12  N   UNL     1      -7.492   4.690 134.911  0.00  0.00    +0.000 NA
ATOM     13  C   UNL     1      -7.466   5.872 135.884  0.00  0.00    +0.000 C 
ATOM     14  C   UNL     1      -8.676   4.081 133.999  0.00  0.00    +0.000 C 
ATOM     15  C   UNL     1      -8.652   2.405 133.013  0.00  0.00    +0.000 C 
ATOM     16  C   UNL     1      -9.076   4.661 132.638  0.00  0.00    +0.000 C 
ATOM     17  C   UNL     1      -9.862   5.995 132.555  0.00  0.00    +0.000 C 
ATOM     18  C   UNL     1      -8.922   6.219 131.395  0.00  0.00    +0.000 C 
ATOM     19  C   UNL     1      -7.516   6.578 131.707  0.00  0.00    +0.000 C 
ENDROOT
BRANCH   4  20
ATOM     20  O   UNL     1      -8.115   3.735 127.177  0.00  0.00    +0.000 OA
ATOM     21  C   UNL     1      -7.151   3.143 126.277  0.00  0.00    +0.000 C 
ENDBRANCH   4  20
BRANCH  19  22
ATOM     22  O   UNL     1      -5.833   6.386 131.939  0.00  0.00    +0.000 OA
BRANCH  22  23
ATOM     23  C   UNL     1      -4.287   6.454 131.885  0.00  0.00    +0.000 C 
ATOM     24  O   UNL     1      -3.708   7.122 132.817  0.00  0.00    +0.000 OA
BRANCH  23  25
ATOM     25  C   UNL     1      -3.198   5.698 130.897  0.00  0.00    +0.000 A 
ATOM     26  C   UNL     1      -3.462   4.387 130.401  0.00  0.00    +0.000 A 
ATOM     27  C   UNL     1      -3.365   4.129 129.005  0.00  0.00    +0.000 A 
ATOM     28  C   UNL     1      -2.735   5.045 128.164  0.00  0.00    +0.000 A 
ATOM     29  C   UNL     1      -2.167   6.199 128.729  0.00  0.00    +0.000 A 
ATOM     30  C   UNL     1      -2.338   6.503 130.112  0.00  0.00    +0.000 A 
ENDBRANCH  23  25
ENDBRANCH  22  23
ENDBRANCH  19  22
TORSDOF 4
ENDMDL
MODEL 8
REMARK VINA RESULT:      -8.8      3.697      6.077
REMARK  Name = Benzhydrocodone
REMARK  6 active torsions:
REMARK  status: ('A' for Active; 'I' for Inactive)
REMARK    1  A    between atoms: C_5  and  O_6
REMARK    2  A    between atoms: O_6  and  C_7
REMARK    3  A    between atoms: N_15  and  C_16
REMARK    4  A    between atoms: C_24  and  O_25
REMARK    5  A    between atoms: O_25  and  C_26
REMARK    6  A    between atoms: C_26  and  C_28
REMARK                            x       y       z     vdW  Elec       q    Type
REMARK                         _______ _______ _______ _____ _____    ______ ____
ROOT
ATOM      1  C   UNL     1      -7.766   1.418 127.975  0.00  0.00    +0.000 C 
ATOM      2  O   UNL     1      -8.534   2.531 128.325  0.00  0.00    +0.000 OA
ATOM      3  C   UNL     1      -9.054   2.196 129.522  0.00  0.00    +0.000 A 
ATOM      4  C   UNL     1      -9.780   3.125 130.190  0.00  0.00    +0.000 A 
ATOM      5  C   UNL     1     -10.040   2.780 131.496  0.00  0.00    +0.000 A 
ATOM      6  C   UNL     1      -9.392   1.579 132.115  0.00  0.00    +0.000 A 
ATOM      7  C   UNL     1      -8.500   0.700 131.405  0.00  0.00    +0.000 A 
ATOM      8  C   UNL     1      -8.485   1.048 130.103  0.00  0.00    +0.000 A 
ATOM      9  C   UNL     1      -7.452   0.432 129.287  0.00  0.00    +0.000 C 
ATOM     10  C   UNL     1      -7.705  -1.045 129.026  0.00  0.00    +0.000 C 
ATOM     11  C   UNL     1      -6.693  -1.904 128.336  0.00  0.00    +0.000 C 
ATOM     12  N   UNL     1      -5.778  -2.197 129.391  0.00  0.00    +0.000 NA
ATOM     13  C   UNL     1      -4.614  -2.732 128.551  0.00  0.00    +0.000 C 
ATOM     14  C   UNL     1      -5.854  -1.007 130.479  0.00  0.00    +0.000 C 
ATOM     15  C   UNL     1      -7.333  -0.608 131.677  0.00  0.00    +0.000 C 
ATOM     16  C   UNL     1      -6.002   0.472 130.104  0.00  0.00    +0.000 C 
ATOM     17  C   UNL     1      -4.801   1.254 129.512  0.00  0.00    +0.000 C 
ATOM     18  C   UNL     1      -5.891   1.825 128.636  0.00  0.00    +0.000 C 
ATOM     19  C   UNL     1      -6.416   0.968 127.543  0.00  0.00    +0.000 C 
ENDROOT
BRANCH   4  20
ATOM     20  O   UNL     1     -10.043   4.351 129.632  0.00  0.00    +0.000 OA
ATOM     21  C   UNL     1     -11.132   4.983 130.342  0.00  0.00    +0.000 C 
ENDBRANCH   4  20
BRANCH  19  22
ATOM     22  O   UNL     1      -7.467  -0.092 126.711  0.00  0.00    +0.000 OA
BRANCH  22  23
ATOM     23  C   UNL     1      -8.280  -0.895 125.665  0.00  0.00    +0.000 C 
ATOM     24  O   UNL     1      -9.542  -0.658 125.614  0.00  0.00    +0.000 OA
BRANCH  23  25
ATOM     25  C   UNL     1      -7.797  -1.937 124.477  0.00  0.00    +0.000 A 
ATOM     26  C   UNL     1      -7.532  -1.457 123.160  0.00  0.00    +0.000 A 
ATOM     27  C   UNL     1      -6.296  -1.777 122.529  0.00  0.00    +0.000 A 
ATOM     28  C   UNL     1      -5.482  -2.782 123.048  0.00  0.00    +0.000 A 
ATOM     29  C   UNL     1      -5.927  -3.494 124.175  0.00  0.00    +0.000 A 
ATOM     30  C   UNL     1      -7.120  -3.120 124.860  0.00  0.00    +0.000 A 
ENDBRANCH  23  25
ENDBRANCH  22  23
ENDBRANCH  19  22
TORSDOF 4
ENDMDL
MODEL 9
REMARK VINA RESULT:      -8.8      7.623      9.947
REMARK  Name = Benzhydrocodone
REMARK  6 active torsions:
REMARK  status: ('A' for Active; 'I' for Inactive)
REMARK    1  A    between atoms: C_5  and  O_6
REMARK    2  A    between atoms: O_6  and  C_7
REMARK    3  A    between atoms: N_15  and  C_16
REMARK    4  A    between atoms: C_24  and  O_25
REMARK    5  A    between atoms: O_25  and  C_26
REMARK    6  A    between atoms: C_26  and  C_28
REMARK                            x       y       z     vdW  Elec       q    Type
REMARK                         _______ _______ _______ _____ _____    ______ ____
ROOT
ATOM      1  C   UNL     1      -4.979   3.688 130.961  0.00  0.00    +0.000 C 
ATOM      2  O   UNL     1      -4.561   3.362 129.669  0.00  0.00    +0.000 OA
ATOM      3  C   UNL     1      -3.916   4.469 129.253  0.00  0.00    +0.000 A 
ATOM      4  C   UNL     1      -3.290   4.436 128.051  0.00  0.00    +0.000 A 
ATOM      5  C   UNL     1      -2.455   5.508 127.840  0.00  0.00    +0.000 A 
ATOM      6  C   UNL     1      -2.158   6.477 128.943  0.00  0.00    +0.000 A 
ATOM      7  C   UNL     1      -2.731   6.386 130.261  0.00  0.00    +0.000 A 
ATOM      8  C   UNL     1      -3.661   5.410 130.267  0.00  0.00    +0.000 A 
ATOM      9  C   UNL     1      -4.161   5.010 131.573  0.00  0.00    +0.000 C 
ATOM     10  C   UNL     1      -5.063   6.058 132.208  0.00  0.00    +0.000 C 
ATOM     11  C   UNL     1      -5.563   5.914 133.611  0.00  0.00    +0.000 C 
ATOM     12  N   UNL     1      -4.439   6.346 134.376  0.00  0.00    +0.000 NA
ATOM     13  C   UNL     1      -4.873   5.822 135.749  0.00  0.00    +0.000 C 
ATOM     14  C   UNL     1      -3.102   6.094 133.509  0.00  0.00    +0.000 C 
ATOM     15  C   UNL     1      -2.552   7.038 131.900  0.00  0.00    +0.000 C 
ATOM     16  C   UNL     1      -2.886   4.856 132.631  0.00  0.00    +0.000 C 
ATOM     17  C   UNL     1      -2.580   3.480 133.280  0.00  0.00    +0.000 C 
ATOM     18  C   UNL     1      -3.516   3.010 132.192  0.00  0.00    +0.000 C 
ATOM     19  C   UNL     1      -4.968   3.251 132.382  0.00  0.00    +0.000 C 
ENDROOT
BRANCH   4  20
ATOM     20  O   UNL     1      -3.372   3.329 127.244  0.00  0.00    +0.000 OA
ATOM     21  C   UNL     1      -2.073   3.049 126.674  0.00  0.00    +0.000 C 
ENDBRANCH   4  20
BRANCH  19  22
ATOM     22  O   UNL     1      -6.499   3.993 132.213  0.00  0.00    +0.000 OA
BRANCH  22  23
ATOM     23  C   UNL     1      -7.992   4.333 131.974  0.00  0.00    +0.000 C 
ATOM     24  O   UNL     1      -8.805   3.339 131.920  0.00  0.00    +0.000 OA
BRANCH  23  25
ATOM     25  C   UNL     1      -8.781   5.783 131.904  0.00  0.00    +0.000 A 
ATOM     26  C   UNL     1      -8.487   6.714 130.864  0.00  0.00    +0.000 A 
ATOM     27  C   UNL     1      -9.548   7.258 130.084  0.00  0.00    +0.000 A 
ATOM     28  C   UNL     1     -10.869   7.128 130.509  0.00  0.00    +0.000 A 
ATOM     29  C   UNL     1     -11.123   6.490 131.735  0.00  0.00    +0.000 A 
ATOM     30  C   UNL     1     -10.074   5.869 132.474  0.00  0.00    +0.000 A 
ENDBRANCH  23  25
ENDBRANCH  22  23
ENDBRANCH  19  22
TORSDOF 4
ENDMDL
