MODEL 1
REMARK VINA RESULT:      -6.0      0.000      0.000
REMARK  Name = Benzyl benzoate
REMARK  4 active torsions:
REMARK  status: ('A' for Active; 'I' for Inactive)
REMARK    1  A    between atoms: C_2  and  O_3
REMARK    2  A    between atoms: C_2  and  C_11
REMARK    3  A    between atoms: O_3  and  C_4
REMARK    4  A    between atoms: C_4  and  C_5
REMARK                            x       y       z     vdW  Elec       q    Type
REMARK                         _______ _______ _______ _____ _____    ______ ____
ROOT
ATOM      1  O   UNL     1     -10.044  -2.740 123.119  0.00  0.00    +0.000 OA
ATOM      2  C   UNL     1      -9.211  -2.547 124.004  0.00  0.00    +0.000 C 
ENDROOT
BRANCH   2   3
ATOM      3  C   UNL     1      -7.773  -2.738 123.710  0.00  0.00    +0.000 A 
ATOM      4  C   UNL     1      -7.046  -3.751 124.343  0.00  0.00    +0.000 A 
ATOM      5  C   UNL     1      -5.667  -3.827 124.196  0.00  0.00    +0.000 A 
ATOM      6  C   UNL     1      -5.032  -3.013 123.265  0.00  0.00    +0.000 A 
ATOM      7  C   UNL     1      -5.767  -2.075 122.536  0.00  0.00    +0.000 A 
ATOM      8  C   UNL     1      -7.137  -1.919 122.772  0.00  0.00    +0.000 A 
ENDBRANCH   2   3
BRANCH   2   9
ATOM      9  O   UNL     1      -9.567  -2.134 125.247  0.00  0.00    +0.000 OA
BRANCH   9  10
ATOM     10  C   UNL     1      -9.169  -0.871 125.829  0.00  0.00    +0.000 C 
BRANCH  10  11
ATOM     11  C   UNL     1      -7.856  -1.071 126.528  0.00  0.00    +0.000 A 
ATOM     12  C   UNL     1      -6.712  -0.366 126.119  0.00  0.00    +0.000 A 
ATOM     13  C   UNL     1      -5.462  -0.718 126.619  0.00  0.00    +0.000 A 
ATOM     14  C   UNL     1      -5.360  -1.709 127.593  0.00  0.00    +0.000 A 
ATOM     15  C   UNL     1      -6.503  -2.358 128.058  0.00  0.00    +0.000 A 
ATOM     16  C   UNL     1      -7.749  -2.044 127.523  0.00  0.00    +0.000 A 
ENDBRANCH  10  11
ENDBRANCH   9  10
ENDBRANCH   2   9
TORSDOF 4
ENDMDL
MODEL 2
REMARK VINA RESULT:      -6.0     10.878     11.276
REMARK  Name = Benzyl benzoate
REMARK  4 active torsions:
REMARK  status: ('A' for Active; 'I' for Inactive)
REMARK    1  A    between atoms: C_2  and  O_3
REMARK    2  A    between atoms: C_2  and  C_11
REMARK    3  A    between atoms: O_3  and  C_4
REMARK    4  A    between atoms: C_4  and  C_5
REMARK                            x       y       z     vdW  Elec       q    Type
REMARK                         _______ _______ _______ _____ _____    ______ ____
ROOT
ATOM      1  O   UNL     1     -13.119   6.961 131.575  0.00  0.00    +0.000 OA
ATOM      2  C   UNL     1     -12.012   7.084 131.052  0.00  0.00    +0.000 C 
ENDROOT
BRANCH   2   3
ATOM      3  C   UNL     1     -11.913   7.261 129.585  0.00  0.00    +0.000 A 
ATOM      4  C   UNL     1     -10.776   7.843 129.015  0.00  0.00    +0.000 A 
ATOM      5  C   UNL     1     -10.749   8.161 127.664  0.00  0.00    +0.000 A 
ATOM      6  C   UNL     1     -11.779   7.726 126.837  0.00  0.00    +0.000 A 
ATOM      7  C   UNL     1     -12.868   7.037 127.377  0.00  0.00    +0.000 A 
ATOM      8  C   UNL     1     -12.949   6.821 128.756  0.00  0.00    +0.000 A 
ENDBRANCH   2   3
BRANCH   2   9
ATOM      9  O   UNL     1     -10.869   7.091 131.784  0.00  0.00    +0.000 OA
BRANCH   9  10
ATOM     10  C   UNL     1     -10.233   5.903 132.307  0.00  0.00    +0.000 C 
BRANCH  10  11
ATOM     11  C   UNL     1      -8.749   6.127 132.305  0.00  0.00    +0.000 A 
ATOM     12  C   UNL     1      -8.120   6.751 131.216  0.00  0.00    +0.000 A 
ATOM     13  C   UNL     1      -6.731   6.754 131.122  0.00  0.00    +0.000 A 
ATOM     14  C   UNL     1      -5.967   6.216 132.156  0.00  0.00    +0.000 A 
ATOM     15  C   UNL     1      -6.587   5.665 133.276  0.00  0.00    +0.000 A 
ATOM     16  C   UNL     1      -7.976   5.616 133.349  0.00  0.00    +0.000 A 
ENDBRANCH  10  11
ENDBRANCH   9  10
ENDBRANCH   2   9
TORSDOF 4
ENDMDL
MODEL 3
REMARK VINA RESULT:      -5.9      0.998      4.022
REMARK  Name = Benzyl benzoate
REMARK  4 active torsions:
REMARK  status: ('A' for Active; 'I' for Inactive)
REMARK    1  A    between atoms: C_2  and  O_3
REMARK    2  A    between atoms: C_2  and  C_11
REMARK    3  A    between atoms: O_3  and  C_4
REMARK    4  A    between atoms: C_4  and  C_5
REMARK                            x       y       z     vdW  Elec       q    Type
REMARK                         _______ _______ _______ _____ _____    ______ ____
ROOT
ATOM      1  O   UNL     1      -9.690  -0.731 125.613  0.00  0.00    +0.000 OA
ATOM      2  C   UNL     1      -9.341  -1.897 125.793  0.00  0.00    +0.000 C 
ENDROOT
BRANCH   2   3
ATOM      3  C   UNL     1      -8.396  -2.217 126.886  0.00  0.00    +0.000 A 
ATOM      4  C   UNL     1      -8.635  -3.299 127.739  0.00  0.00    +0.000 A 
ATOM      5  C   UNL     1      -7.843  -3.500 128.862  0.00  0.00    +0.000 A 
ATOM      6  C   UNL     1      -6.693  -2.739 129.035  0.00  0.00    +0.000 A 
ATOM      7  C   UNL     1      -6.377  -1.729 128.122  0.00  0.00    +0.000 A 
ATOM      8  C   UNL     1      -7.239  -1.450 127.057  0.00  0.00    +0.000 A 
ENDBRANCH   2   3
BRANCH   2   9
ATOM      9  O   UNL     1      -9.819  -2.915 125.032  0.00  0.00    +0.000 OA
BRANCH   9  10
ATOM     10  C   UNL     1      -9.366  -3.207 123.690  0.00  0.00    +0.000 C 
BRANCH  10  11
ATOM     11  C   UNL     1      -7.880  -3.005 123.643  0.00  0.00    +0.000 A 
ATOM     12  C   UNL     1      -7.322  -1.975 122.867  0.00  0.00    +0.000 A 
ATOM     13  C   UNL     1      -5.947  -1.934 122.651  0.00  0.00    +0.000 A 
ATOM     14  C   UNL     1      -5.119  -2.861 123.280  0.00  0.00    +0.000 A 
ATOM     15  C   UNL     1      -5.663  -3.838 124.114  0.00  0.00    +0.000 A 
ATOM     16  C   UNL     1      -7.042  -3.913 124.292  0.00  0.00    +0.000 A 
ENDBRANCH  10  11
ENDBRANCH   9  10
ENDBRANCH   2   9
TORSDOF 4
ENDMDL
MODEL 4
REMARK VINA RESULT:      -5.8      4.837      5.870
REMARK  Name = Benzyl benzoate
REMARK  4 active torsions:
REMARK  status: ('A' for Active; 'I' for Inactive)
REMARK    1  A    between atoms: C_2  and  O_3
REMARK    2  A    between atoms: C_2  and  C_11
REMARK    3  A    between atoms: O_3  and  C_4
REMARK    4  A    between atoms: C_4  and  C_5
REMARK                            x       y       z     vdW  Elec       q    Type
REMARK                         _______ _______ _______ _____ _____    ______ ____
ROOT
ATOM      1  O   UNL     1      -8.577   3.328 123.202  0.00  0.00    +0.000 OA
ATOM      2  C   UNL     1      -7.562   2.859 122.687  0.00  0.00    +0.000 C 
ENDROOT
BRANCH   2   3
ATOM      3  C   UNL     1      -6.902   3.585 121.579  0.00  0.00    +0.000 A 
ATOM      4  C   UNL     1      -5.575   4.009 121.699  0.00  0.00    +0.000 A 
ATOM      5  C   UNL     1      -5.008   4.832 120.734  0.00  0.00    +0.000 A 
ATOM      6  C   UNL     1      -5.697   5.077 119.552  0.00  0.00    +0.000 A 
ATOM      7  C   UNL     1      -6.981   4.558 119.369  0.00  0.00    +0.000 A 
ATOM      8  C   UNL     1      -7.597   3.829 120.391  0.00  0.00    +0.000 A 
ENDBRANCH   2   3
BRANCH   2   9
ATOM      9  O   UNL     1      -7.007   1.699 123.123  0.00  0.00    +0.000 OA
BRANCH   9  10
ATOM     10  C   UNL     1      -7.766   0.557 123.579  0.00  0.00    +0.000 C 
BRANCH  10  11
ATOM     11  C   UNL     1      -6.812  -0.579 123.806  0.00  0.00    +0.000 A 
ATOM     12  C   UNL     1      -6.468  -1.447 122.756  0.00  0.00    +0.000 A 
ATOM     13  C   UNL     1      -5.767  -2.619 123.023  0.00  0.00    +0.000 A 
ATOM     14  C   UNL     1      -5.328  -2.883 124.320  0.00  0.00    +0.000 A 
ATOM     15  C   UNL     1      -5.601  -1.985 125.351  0.00  0.00    +0.000 A 
ATOM     16  C   UNL     1      -6.345  -0.837 125.096  0.00  0.00    +0.000 A 
ENDBRANCH  10  11
ENDBRANCH   9  10
ENDBRANCH   2   9
TORSDOF 4
ENDMDL
MODEL 5
REMARK VINA RESULT:      -5.8      4.213      5.607
REMARK  Name = Benzyl benzoate
REMARK  4 active torsions:
REMARK  status: ('A' for Active; 'I' for Inactive)
REMARK    1  A    between atoms: C_2  and  O_3
REMARK    2  A    between atoms: C_2  and  C_11
REMARK    3  A    between atoms: O_3  and  C_4
REMARK    4  A    between atoms: C_4  and  C_5
REMARK                            x       y       z     vdW  Elec       q    Type
REMARK                         _______ _______ _______ _____ _____    ______ ____
ROOT
ATOM      1  O   UNL     1     -10.104   0.289 124.211  0.00  0.00    +0.000 OA
ATOM      2  C   UNL     1      -8.968   0.163 123.756  0.00  0.00    +0.000 C 
ENDROOT
BRANCH   2   3
ATOM      3  C   UNL     1      -8.248  -1.119 123.929  0.00  0.00    +0.000 A 
ATOM      4  C   UNL     1      -6.920  -1.251 123.512  0.00  0.00    +0.000 A 
ATOM      5  C   UNL     1      -6.299  -2.493 123.520  0.00  0.00    +0.000 A 
ATOM      6  C   UNL     1      -6.934  -3.572 124.123  0.00  0.00    +0.000 A 
ATOM      7  C   UNL     1      -8.218  -3.424 124.652  0.00  0.00    +0.000 A 
ATOM      8  C   UNL     1      -8.889  -2.203 124.538  0.00  0.00    +0.000 A 
ENDBRANCH   2   3
BRANCH   2   9
ATOM      9  O   UNL     1      -8.355   1.162 123.070  0.00  0.00    +0.000 OA
BRANCH   9  10
ATOM     10  C   UNL     1      -8.853   2.517 122.990  0.00  0.00    +0.000 C 
BRANCH  10  11
ATOM     11  C   UNL     1      -8.069   3.243 121.937  0.00  0.00    +0.000 A 
ATOM     12  C   UNL     1      -8.695   3.701 120.766  0.00  0.00    +0.000 A 
ATOM     13  C   UNL     1      -7.927   4.170 119.704  0.00  0.00    +0.000 A 
ATOM     14  C   UNL     1      -6.544   4.269 119.841  0.00  0.00    +0.000 A 
ATOM     15  C   UNL     1      -5.926   3.888 121.031  0.00  0.00    +0.000 A 
ATOM     16  C   UNL     1      -6.686   3.372 122.077  0.00  0.00    +0.000 A 
ENDBRANCH  10  11
ENDBRANCH   9  10
ENDBRANCH   2   9
TORSDOF 4
ENDMDL
MODEL 6
REMARK VINA RESULT:      -5.7      5.177      6.725
REMARK  Name = Benzyl benzoate
REMARK  4 active torsions:
REMARK  status: ('A' for Active; 'I' for Inactive)
REMARK    1  A    between atoms: C_2  and  O_3
REMARK    2  A    between atoms: C_2  and  C_11
REMARK    3  A    between atoms: O_3  and  C_4
REMARK    4  A    between atoms: C_4  and  C_5
REMARK                            x       y       z     vdW  Elec       q    Type
REMARK                         _______ _______ _______ _____ _____    ______ ____
ROOT
ATOM      1  O   UNL     1      -8.676   2.921 125.146  0.00  0.00    +0.000 OA
ATOM      2  C   UNL     1      -8.538   2.582 123.971  0.00  0.00    +0.000 C 
ENDROOT
BRANCH   2   3
ATOM      3  C   UNL     1      -8.314   1.156 123.643  0.00  0.00    +0.000 A 
ATOM      4  C   UNL     1      -7.026   0.613 123.676  0.00  0.00    +0.000 A 
ATOM      5  C   UNL     1      -6.792  -0.674 123.210  0.00  0.00    +0.000 A 
ATOM      6  C   UNL     1      -7.868  -1.493 122.888  0.00  0.00    +0.000 A 
ATOM      7  C   UNL     1      -9.173  -0.998 122.965  0.00  0.00    +0.000 A 
ATOM      8  C   UNL     1      -9.399   0.334 123.321  0.00  0.00    +0.000 A 
ENDBRANCH   2   3
BRANCH   2   9
ATOM      9  O   UNL     1      -8.611   3.477 122.953  0.00  0.00    +0.000 OA
BRANCH   9  10
ATOM     10  C   UNL     1      -8.716   3.113 121.558  0.00  0.00    +0.000 C 
BRANCH  10  11
ATOM     11  C   UNL     1      -7.546   3.706 120.829  0.00  0.00    +0.000 A 
ATOM     12  C   UNL     1      -6.285   3.782 121.442  0.00  0.00    +0.000 A 
ATOM     13  C   UNL     1      -5.268   4.529 120.853  0.00  0.00    +0.000 A 
ATOM     14  C   UNL     1      -5.478   5.125 119.611  0.00  0.00    +0.000 A 
ATOM     15  C   UNL     1      -6.705   4.987 118.963  0.00  0.00    +0.000 A 
ATOM     16  C   UNL     1      -7.740   4.283 119.573  0.00  0.00    +0.000 A 
ENDBRANCH  10  11
ENDBRANCH   9  10
ENDBRANCH   2   9
TORSDOF 4
ENDMDL
MODEL 7
REMARK VINA RESULT:      -5.7     10.814     11.998
REMARK  Name = Benzyl benzoate
REMARK  4 active torsions:
REMARK  status: ('A' for Active; 'I' for Inactive)
REMARK    1  A    between atoms: C_2  and  O_3
REMARK    2  A    between atoms: C_2  and  C_11
REMARK    3  A    between atoms: O_3  and  C_4
REMARK    4  A    between atoms: C_4  and  C_5
REMARK                            x       y       z     vdW  Elec       q    Type
REMARK                         _______ _______ _______ _____ _____    ______ ____
ROOT
ATOM      1  O   UNL     1      -9.062   7.217 129.722  0.00  0.00    +0.000 OA
ATOM      2  C   UNL     1      -9.303   6.882 130.881  0.00  0.00    +0.000 C 
ENDROOT
BRANCH   2   3
ATOM      3  C   UNL     1      -8.198   6.429 131.756  0.00  0.00    +0.000 A 
ATOM      4  C   UNL     1      -8.469   5.814 132.982  0.00  0.00    +0.000 A 
ATOM      5  C   UNL     1      -7.442   5.540 133.876  0.00  0.00    +0.000 A 
ATOM      6  C   UNL     1      -6.121   5.702 133.472  0.00  0.00    +0.000 A 
ATOM      7  C   UNL     1      -5.834   6.206 132.201  0.00  0.00    +0.000 A 
ATOM      8  C   UNL     1      -6.871   6.592 131.347  0.00  0.00    +0.000 A 
ENDBRANCH   2   3
BRANCH   2   9
ATOM      9  O   UNL     1     -10.557   6.939 131.399  0.00  0.00    +0.000 OA
BRANCH   9  10
ATOM     10  C   UNL     1     -11.683   6.194 130.882  0.00  0.00    +0.000 C 
BRANCH  10  11
ATOM     11  C   UNL     1     -12.458   7.093 129.964  0.00  0.00    +0.000 A 
ATOM     12  C   UNL     1     -13.080   6.578 128.814  0.00  0.00    +0.000 A 
ATOM     13  C   UNL     1     -13.602   7.445 127.858  0.00  0.00    +0.000 A 
ATOM     14  C   UNL     1     -13.587   8.819 128.088  0.00  0.00    +0.000 A 
ATOM     15  C   UNL     1     -13.039   9.329 129.265  0.00  0.00    +0.000 A 
ATOM     16  C   UNL     1     -12.472   8.468 130.199  0.00  0.00    +0.000 A 
ENDBRANCH  10  11
ENDBRANCH   9  10
ENDBRANCH   2   9
TORSDOF 4
ENDMDL
MODEL 8
REMARK VINA RESULT:      -5.6      4.249      5.629
REMARK  Name = Benzyl benzoate
REMARK  4 active torsions:
REMARK  status: ('A' for Active; 'I' for Inactive)
REMARK    1  A    between atoms: C_2  and  O_3
REMARK    2  A    between atoms: C_2  and  C_11
REMARK    3  A    between atoms: O_3  and  C_4
REMARK    4  A    between atoms: C_4  and  C_5
REMARK                            x       y       z     vdW  Elec       q    Type
REMARK                         _______ _______ _______ _____ _____    ______ ____
ROOT
ATOM      1  O   UNL     1      -8.873   3.385 124.647  0.00  0.00    +0.000 OA
ATOM      2  C   UNL     1      -8.477   2.636 123.755  0.00  0.00    +0.000 C 
ENDROOT
BRANCH   2   3
ATOM      3  C   UNL     1      -7.832   3.208 122.552  0.00  0.00    +0.000 A 
ATOM      4  C   UNL     1      -8.586   3.490 121.408  0.00  0.00    +0.000 A 
ATOM      5  C   UNL     1      -7.960   3.868 120.227  0.00  0.00    +0.000 A 
ATOM      6  C   UNL     1      -6.599   4.154 120.234  0.00  0.00    +0.000 A 
ATOM      7  C   UNL     1      -5.855   3.991 121.405  0.00  0.00    +0.000 A 
ATOM      8  C   UNL     1      -6.464   3.496 122.562  0.00  0.00    +0.000 A 
ENDBRANCH   2   3
BRANCH   2   9
ATOM      9  O   UNL     1      -8.587   1.286 123.850  0.00  0.00    +0.000 OA
BRANCH   9  10
ATOM     10  C   UNL     1      -7.580   0.355 123.394  0.00  0.00    +0.000 C 
BRANCH  10  11
ATOM     11  C   UNL     1      -8.009  -1.029 123.786  0.00  0.00    +0.000 A 
ATOM     12  C   UNL     1      -7.316  -1.740 124.779  0.00  0.00    +0.000 A 
ATOM     13  C   UNL     1      -7.577  -3.093 124.977  0.00  0.00    +0.000 A 
ATOM     14  C   UNL     1      -8.590  -3.715 124.251  0.00  0.00    +0.000 A 
ATOM     15  C   UNL     1      -9.333  -2.993 123.318  0.00  0.00    +0.000 A 
ATOM     16  C   UNL     1      -9.041  -1.653 123.083  0.00  0.00    +0.000 A 
ENDBRANCH  10  11
ENDBRANCH   9  10
ENDBRANCH   2   9
TORSDOF 4
ENDMDL
MODEL 9
REMARK VINA RESULT:      -5.6      1.360      4.088
REMARK  Name = Benzyl benzoate
REMARK  4 active torsions:
REMARK  status: ('A' for Active; 'I' for Inactive)
REMARK    1  A    between atoms: C_2  and  O_3
REMARK    2  A    between atoms: C_2  and  C_11
REMARK    3  A    between atoms: O_3  and  C_4
REMARK    4  A    between atoms: C_4  and  C_5
REMARK                            x       y       z     vdW  Elec       q    Type
REMARK                         _______ _______ _______ _____ _____    ______ ____
ROOT
ATOM      1  O   UNL     1      -9.314   1.562 125.205  0.00  0.00    +0.000 OA
ATOM      2  C   UNL     1      -8.953   0.389 125.107  0.00  0.00    +0.000 C 
ENDROOT
BRANCH   2   3
ATOM      3  C   UNL     1      -7.782  -0.083 125.881  0.00  0.00    +0.000 A 
ATOM      4  C   UNL     1      -6.510   0.440 125.634  0.00  0.00    +0.000 A 
ATOM      5  C   UNL     1      -5.389  -0.117 126.238  0.00  0.00    +0.000 A 
ATOM      6  C   UNL     1      -5.552  -1.069 127.237  0.00  0.00    +0.000 A 
ATOM      7  C   UNL     1      -6.831  -1.516 127.579  0.00  0.00    +0.000 A 
ATOM      8  C   UNL     1      -7.949  -1.040 126.887  0.00  0.00    +0.000 A 
ENDBRANCH   2   3
BRANCH   2   9
ATOM      9  O   UNL     1      -9.615  -0.502 124.327  0.00  0.00    +0.000 OA
BRANCH   9  10
ATOM     10  C   UNL     1      -9.145  -0.959 123.038  0.00  0.00    +0.000 C 
BRANCH  10  11
ATOM     11  C   UNL     1      -8.035  -1.943 123.267  0.00  0.00    +0.000 A 
ATOM     12  C   UNL     1      -8.248  -3.097 124.039  0.00  0.00    +0.000 A 
ATOM     13  C   UNL     1      -7.167  -3.882 124.430  0.00  0.00    +0.000 A 
ATOM     14  C   UNL     1      -5.886  -3.572 123.977  0.00  0.00    +0.000 A 
ATOM     15  C   UNL     1      -5.682  -2.471 123.146  0.00  0.00    +0.000 A 
ATOM     16  C   UNL     1      -6.753  -1.655 122.795  0.00  0.00    +0.000 A 
ENDBRANCH  10  11
ENDBRANCH   9  10
ENDBRANCH   2   9
TORSDOF 4
ENDMDL
