MODEL 1
REMARK VINA RESULT:      -7.1      0.000      0.000
REMARK  Name = Benzphetamine
REMARK  7 active torsions:
REMARK  status: ('A' for Active; 'I' for Inactive)
REMARK    1  A    between atoms: C_1  and  C_2
REMARK    2  A    between atoms: C_2  and  C_3
REMARK    3  A    between atoms: C_2  and  N_10
REMARK    4  A    between atoms: C_3  and  C_4
REMARK    5  A    between atoms: N_10  and  C_11
REMARK    6  A    between atoms: N_10  and  C_12
REMARK    7  A    between atoms: C_12  and  C_13
REMARK                            x       y       z     vdW  Elec       q    Type
REMARK                         _______ _______ _______ _____ _____    ______ ____
ROOT
ATOM      1  C   UNL     1      -9.411   1.922 122.763  0.00  0.00    +0.000 C 
ATOM      2  C   UNL     1      -8.140   1.950 123.659  0.00  0.00    +0.000 C 
ENDROOT
BRANCH   2   3
ATOM      3  N   UNL     1      -7.339   3.171 123.385  0.00  0.00    +0.000 NA
ATOM      4  C   UNL     1      -6.804   3.648 124.667  0.00  0.00    +0.000 C 
BRANCH   3   5
ATOM      5  C   UNL     1      -6.256   2.918 122.371  0.00  0.00    +0.000 C 
BRANCH   5   6
ATOM      6  C   UNL     1      -6.293   3.810 121.141  0.00  0.00    +0.000 A 
ATOM      7  C   UNL     1      -5.216   4.622 120.751  0.00  0.00    +0.000 A 
ATOM      8  C   UNL     1      -5.313   5.380 119.579  0.00  0.00    +0.000 A 
ATOM      9  C   UNL     1      -6.400   5.231 118.718  0.00  0.00    +0.000 A 
ATOM     10  C   UNL     1      -7.474   4.449 119.111  0.00  0.00    +0.000 A 
ATOM     11  C   UNL     1      -7.452   3.889 120.369  0.00  0.00    +0.000 A 
ENDBRANCH   5   6
ENDBRANCH   3   5
ENDBRANCH   2   3
BRANCH   2  12
ATOM     12  C   UNL     1      -7.357   0.646 123.416  0.00  0.00    +0.000 C 
BRANCH  12  13
ATOM     13  C   UNL     1      -8.094  -0.606 123.828  0.00  0.00    +0.000 A 
ATOM     14  C   UNL     1      -8.501  -0.848 125.151  0.00  0.00    +0.000 A 
ATOM     15  C   UNL     1      -9.055  -2.062 125.518  0.00  0.00    +0.000 A 
ATOM     16  C   UNL     1      -9.221  -3.051 124.558  0.00  0.00    +0.000 A 
ATOM     17  C   UNL     1      -8.840  -2.821 123.236  0.00  0.00    +0.000 A 
ATOM     18  C   UNL     1      -8.282  -1.601 122.868  0.00  0.00    +0.000 A 
ENDBRANCH  12  13
ENDBRANCH   2  12
TORSDOF 5
ENDMDL
MODEL 2
REMARK VINA RESULT:      -7.0      3.664      5.713
REMARK  Name = Benzphetamine
REMARK  7 active torsions:
REMARK  status: ('A' for Active; 'I' for Inactive)
REMARK    1  A    between atoms: C_1  and  C_2
REMARK    2  A    between atoms: C_2  and  C_3
REMARK    3  A    between atoms: C_2  and  N_10
REMARK    4  A    between atoms: C_3  and  C_4
REMARK    5  A    between atoms: N_10  and  C_11
REMARK    6  A    between atoms: N_10  and  C_12
REMARK    7  A    between atoms: C_12  and  C_13
REMARK                            x       y       z     vdW  Elec       q    Type
REMARK                         _______ _______ _______ _____ _____    ______ ____
ROOT
ATOM      1  C   UNL     1      -8.818   2.349 124.332  0.00  0.00    +0.000 C 
ATOM      2  C   UNL     1      -8.713   0.810 124.524  0.00  0.00    +0.000 C 
ENDROOT
BRANCH   2   3
ATOM      3  N   UNL     1      -9.788   0.117 123.767  0.00  0.00    +0.000 NA
ATOM      4  C   UNL     1     -10.702   1.147 123.253  0.00  0.00    +0.000 C 
BRANCH   3   5
ATOM      5  C   UNL     1      -9.233  -0.753 122.672  0.00  0.00    +0.000 C 
BRANCH   5   6
ATOM      6  C   UNL     1      -8.177  -1.757 123.109  0.00  0.00    +0.000 A 
ATOM      7  C   UNL     1      -6.811  -1.604 122.825  0.00  0.00    +0.000 A 
ATOM      8  C   UNL     1      -5.897  -2.550 123.304  0.00  0.00    +0.000 A 
ATOM      9  C   UNL     1      -6.303  -3.558 124.177  0.00  0.00    +0.000 A 
ATOM     10  C   UNL     1      -7.653  -3.725 124.441  0.00  0.00    +0.000 A 
ATOM     11  C   UNL     1      -8.554  -2.919 123.782  0.00  0.00    +0.000 A 
ENDBRANCH   5   6
ENDBRANCH   3   5
ENDBRANCH   2   3
BRANCH   2  12
ATOM     12  C   UNL     1      -8.753   0.515 126.036  0.00  0.00    +0.000 C 
BRANCH  12  13
ATOM     13  C   UNL     1      -7.701  -0.462 126.506  0.00  0.00    +0.000 A 
ATOM     14  C   UNL     1      -7.998  -1.560 127.332  0.00  0.00    +0.000 A 
ATOM     15  C   UNL     1      -6.992  -2.357 127.851  0.00  0.00    +0.000 A 
ATOM     16  C   UNL     1      -5.670  -2.071 127.539  0.00  0.00    +0.000 A 
ATOM     17  C   UNL     1      -5.358  -0.996 126.706  0.00  0.00    +0.000 A 
ATOM     18  C   UNL     1      -6.369  -0.195 126.185  0.00  0.00    +0.000 A 
ENDBRANCH  12  13
ENDBRANCH   2  12
TORSDOF 5
ENDMDL
MODEL 3
REMARK VINA RESULT:      -6.8      1.104      6.897
REMARK  Name = Benzphetamine
REMARK  7 active torsions:
REMARK  status: ('A' for Active; 'I' for Inactive)
REMARK    1  A    between atoms: C_1  and  C_2
REMARK    2  A    between atoms: C_2  and  C_3
REMARK    3  A    between atoms: C_2  and  N_10
REMARK    4  A    between atoms: C_3  and  C_4
REMARK    5  A    between atoms: N_10  and  C_11
REMARK    6  A    between atoms: N_10  and  C_12
REMARK    7  A    between atoms: C_12  and  C_13
REMARK                            x       y       z     vdW  Elec       q    Type
REMARK                         _______ _______ _______ _____ _____    ______ ____
ROOT
ATOM      1  C   UNL     1      -8.242   3.779 125.032  0.00  0.00    +0.000 C 
ATOM      2  C   UNL     1      -8.143   2.798 123.831  0.00  0.00    +0.000 C 
ENDROOT
BRANCH   2   3
ATOM      3  N   UNL     1      -8.591   1.439 124.232  0.00  0.00    +0.000 NA
ATOM      4  C   UNL     1     -10.059   1.423 124.179  0.00  0.00    +0.000 C 
BRANCH   3   5
ATOM      5  C   UNL     1      -7.975   0.367 123.373  0.00  0.00    +0.000 C 
BRANCH   5   6
ATOM      6  C   UNL     1      -8.277  -1.061 123.798  0.00  0.00    +0.000 A 
ATOM      7  C   UNL     1      -9.103  -1.922 123.058  0.00  0.00    +0.000 A 
ATOM      8  C   UNL     1      -9.293  -3.238 123.494  0.00  0.00    +0.000 A 
ATOM      9  C   UNL     1      -8.562  -3.749 124.566  0.00  0.00    +0.000 A 
ATOM     10  C   UNL     1      -7.764  -2.897 125.311  0.00  0.00    +0.000 A 
ATOM     11  C   UNL     1      -7.766  -1.556 124.998  0.00  0.00    +0.000 A 
ENDBRANCH   5   6
ENDBRANCH   3   5
ENDBRANCH   2   3
BRANCH   2  12
ATOM     12  C   UNL     1      -6.693   2.827 123.311  0.00  0.00    +0.000 C 
BRANCH  12  13
ATOM     13  C   UNL     1      -6.538   3.437 121.938  0.00  0.00    +0.000 A 
ATOM     14  C   UNL     1      -5.346   4.045 121.507  0.00  0.00    +0.000 A 
ATOM     15  C   UNL     1      -5.281   4.710 120.294  0.00  0.00    +0.000 A 
ATOM     16  C   UNL     1      -6.410   4.764 119.488  0.00  0.00    +0.000 A 
ATOM     17  C   UNL     1      -7.596   4.150 119.892  0.00  0.00    +0.000 A 
ATOM     18  C   UNL     1      -7.661   3.483 121.111  0.00  0.00    +0.000 A 
ENDBRANCH  12  13
ENDBRANCH   2  12
TORSDOF 5
ENDMDL
MODEL 4
REMARK VINA RESULT:      -6.7      1.055      2.190
REMARK  Name = Benzphetamine
REMARK  7 active torsions:
REMARK  status: ('A' for Active; 'I' for Inactive)
REMARK    1  A    between atoms: C_1  and  C_2
REMARK    2  A    between atoms: C_2  and  C_3
REMARK    3  A    between atoms: C_2  and  N_10
REMARK    4  A    between atoms: C_3  and  C_4
REMARK    5  A    between atoms: N_10  and  C_11
REMARK    6  A    between atoms: N_10  and  C_12
REMARK    7  A    between atoms: C_12  and  C_13
REMARK                            x       y       z     vdW  Elec       q    Type
REMARK                         _______ _______ _______ _____ _____    ______ ____
ROOT
ATOM      1  C   UNL     1      -5.860   1.598 125.536  0.00  0.00    +0.000 C 
ATOM      2  C   UNL     1      -6.954   1.206 124.503  0.00  0.00    +0.000 C 
ENDROOT
BRANCH   2   3
ATOM      3  N   UNL     1      -7.366   2.391 123.708  0.00  0.00    +0.000 NA
ATOM      4  C   UNL     1      -8.513   3.007 124.391  0.00  0.00    +0.000 C 
BRANCH   3   5
ATOM      5  C   UNL     1      -6.231   3.359 123.512  0.00  0.00    +0.000 C 
BRANCH   5   6
ATOM      6  C   UNL     1      -6.048   3.870 122.091  0.00  0.00    +0.000 A 
ATOM      7  C   UNL     1      -7.000   3.673 121.079  0.00  0.00    +0.000 A 
ATOM      8  C   UNL     1      -6.777   4.214 119.808  0.00  0.00    +0.000 A 
ATOM      9  C   UNL     1      -5.699   5.067 119.573  0.00  0.00    +0.000 A 
ATOM     10  C   UNL     1      -4.745   5.245 120.563  0.00  0.00    +0.000 A 
ATOM     11  C   UNL     1      -4.870   4.524 121.729  0.00  0.00    +0.000 A 
ENDBRANCH   5   6
ENDBRANCH   3   5
ENDBRANCH   2   3
BRANCH   2  12
ATOM     12  C   UNL     1      -8.122   0.557 125.271  0.00  0.00    +0.000 C 
BRANCH  12  13
ATOM     13  C   UNL     1      -8.459  -0.845 124.819  0.00  0.00    +0.000 A 
ATOM     14  C   UNL     1      -8.418  -1.238 123.470  0.00  0.00    +0.000 A 
ATOM     15  C   UNL     1      -8.860  -2.490 123.078  0.00  0.00    +0.000 A 
ATOM     16  C   UNL     1      -9.340  -3.373 124.036  0.00  0.00    +0.000 A 
ATOM     17  C   UNL     1      -9.370  -3.005 125.382  0.00  0.00    +0.000 A 
ATOM     18  C   UNL     1      -8.927  -1.746 125.776  0.00  0.00    +0.000 A 
ENDBRANCH  12  13
ENDBRANCH   2  12
TORSDOF 5
ENDMDL
MODEL 5
REMARK VINA RESULT:      -6.7      3.711      5.578
REMARK  Name = Benzphetamine
REMARK  7 active torsions:
REMARK  status: ('A' for Active; 'I' for Inactive)
REMARK    1  A    between atoms: C_1  and  C_2
REMARK    2  A    between atoms: C_2  and  C_3
REMARK    3  A    between atoms: C_2  and  N_10
REMARK    4  A    between atoms: C_3  and  C_4
REMARK    5  A    between atoms: N_10  and  C_11
REMARK    6  A    between atoms: N_10  and  C_12
REMARK    7  A    between atoms: C_12  and  C_13
REMARK                            x       y       z     vdW  Elec       q    Type
REMARK                         _______ _______ _______ _____ _____    ______ ____
ROOT
ATOM      1  C   UNL     1      -7.574  -3.411 129.184  0.00  0.00    +0.000 C 
ATOM      2  C   UNL     1      -7.605  -2.598 127.859  0.00  0.00    +0.000 C 
ENDROOT
BRANCH   2   3
ATOM      3  N   UNL     1      -7.922  -1.173 128.131  0.00  0.00    +0.000 NA
ATOM      4  C   UNL     1      -7.812  -0.963 129.581  0.00  0.00    +0.000 C 
BRANCH   3   5
ATOM      5  C   UNL     1      -7.037  -0.240 127.349  0.00  0.00    +0.000 C 
BRANCH   5   6
ATOM      6  C   UNL     1      -7.656   0.342 126.088  0.00  0.00    +0.000 A 
ATOM      7  C   UNL     1      -6.906   0.667 124.947  0.00  0.00    +0.000 A 
ATOM      8  C   UNL     1      -7.558   1.156 123.809  0.00  0.00    +0.000 A 
ATOM      9  C   UNL     1      -8.950   1.187 123.742  0.00  0.00    +0.000 A 
ATOM     10  C   UNL     1      -9.692   0.890 124.873  0.00  0.00    +0.000 A 
ATOM     11  C   UNL     1      -9.021   0.626 126.046  0.00  0.00    +0.000 A 
ENDBRANCH   5   6
ENDBRANCH   3   5
ENDBRANCH   2   3
BRANCH   2  12
ATOM     12  C   UNL     1      -8.615  -3.272 126.911  0.00  0.00    +0.000 C 
BRANCH  12  13
ATOM     13  C   UNL     1      -8.316  -3.075 125.443  0.00  0.00    +0.000 A 
ATOM     14  C   UNL     1      -7.006  -3.014 124.937  0.00  0.00    +0.000 A 
ATOM     15  C   UNL     1      -6.767  -2.701 123.610  0.00  0.00    +0.000 A 
ATOM     16  C   UNL     1      -7.841  -2.454 122.766  0.00  0.00    +0.000 A 
ATOM     17  C   UNL     1      -9.148  -2.528 123.248  0.00  0.00    +0.000 A 
ATOM     18  C   UNL     1      -9.388  -2.842 124.581  0.00  0.00    +0.000 A 
ENDBRANCH  12  13
ENDBRANCH   2  12
TORSDOF 5
ENDMDL
MODEL 6
REMARK VINA RESULT:      -6.6      4.774      6.348
REMARK  Name = Benzphetamine
REMARK  7 active torsions:
REMARK  status: ('A' for Active; 'I' for Inactive)
REMARK    1  A    between atoms: C_1  and  C_2
REMARK    2  A    between atoms: C_2  and  C_3
REMARK    3  A    between atoms: C_2  and  N_10
REMARK    4  A    between atoms: C_3  and  C_4
REMARK    5  A    between atoms: N_10  and  C_11
REMARK    6  A    between atoms: N_10  and  C_12
REMARK    7  A    between atoms: C_12  and  C_13
REMARK                            x       y       z     vdW  Elec       q    Type
REMARK                         _______ _______ _______ _____ _____    ______ ____
ROOT
ATOM      1  C   UNL     1      -7.787  -3.489 129.387  0.00  0.00    +0.000 C 
ATOM      2  C   UNL     1      -7.617  -3.185 127.871  0.00  0.00    +0.000 C 
ENDROOT
BRANCH   2   3
ATOM      3  N   UNL     1      -6.952  -1.870 127.677  0.00  0.00    +0.000 NA
ATOM      4  C   UNL     1      -6.942  -1.182 128.975  0.00  0.00    +0.000 C 
BRANCH   3   5
ATOM      5  C   UNL     1      -5.571  -2.019 127.098  0.00  0.00    +0.000 C 
BRANCH   5   6
ATOM      6  C   UNL     1      -5.514  -2.221 125.592  0.00  0.00    +0.000 A 
ATOM      7  C   UNL     1      -5.164  -3.443 124.996  0.00  0.00    +0.000 A 
ATOM      8  C   UNL     1      -5.180  -3.559 123.601  0.00  0.00    +0.000 A 
ATOM      9  C   UNL     1      -5.676  -2.529 122.804  0.00  0.00    +0.000 A 
ATOM     10  C   UNL     1      -6.001  -1.315 123.386  0.00  0.00    +0.000 A 
ATOM     11  C   UNL     1      -5.766  -1.151 124.733  0.00  0.00    +0.000 A 
ENDBRANCH   5   6
ENDBRANCH   3   5
ENDBRANCH   2   3
BRANCH   2  12
ATOM     12  C   UNL     1      -9.007  -3.262 127.212  0.00  0.00    +0.000 C 
BRANCH  12  13
ATOM     13  C   UNL     1      -9.052  -2.736 125.796  0.00  0.00    +0.000 A 
ATOM     14  C   UNL     1      -9.293  -1.384 125.496  0.00  0.00    +0.000 A 
ATOM     15  C   UNL     1      -9.459  -0.962 124.188  0.00  0.00    +0.000 A 
ATOM     16  C   UNL     1      -9.375  -1.889 123.158  0.00  0.00    +0.000 A 
ATOM     17  C   UNL     1      -9.118  -3.232 123.438  0.00  0.00    +0.000 A 
ATOM     18  C   UNL     1      -8.953  -3.656 124.752  0.00  0.00    +0.000 A 
ENDBRANCH  12  13
ENDBRANCH   2  12
TORSDOF 5
ENDMDL
MODEL 7
REMARK VINA RESULT:      -6.6      3.618      6.656
REMARK  Name = Benzphetamine
REMARK  7 active torsions:
REMARK  status: ('A' for Active; 'I' for Inactive)
REMARK    1  A    between atoms: C_1  and  C_2
REMARK    2  A    between atoms: C_2  and  C_3
REMARK    3  A    between atoms: C_2  and  N_10
REMARK    4  A    between atoms: C_3  and  C_4
REMARK    5  A    between atoms: N_10  and  C_11
REMARK    6  A    between atoms: N_10  and  C_12
REMARK    7  A    between atoms: C_12  and  C_13
REMARK                            x       y       z     vdW  Elec       q    Type
REMARK                         _______ _______ _______ _____ _____    ______ ____
ROOT
ATOM      1  C   UNL     1      -7.819  -0.633 129.333  0.00  0.00    +0.000 C 
ATOM      2  C   UNL     1      -7.798  -1.035 127.831  0.00  0.00    +0.000 C 
ENDROOT
BRANCH   2   3
ATOM      3  N   UNL     1      -7.224  -2.395 127.667  0.00  0.00    +0.000 NA
ATOM      4  C   UNL     1      -6.926  -2.916 129.008  0.00  0.00    +0.000 C 
BRANCH   3   5
ATOM      5  C   UNL     1      -8.140  -3.302 126.891  0.00  0.00    +0.000 C 
BRANCH   5   6
ATOM      6  C   UNL     1      -8.193  -3.049 125.393  0.00  0.00    +0.000 A 
ATOM      7  C   UNL     1      -9.391  -3.025 124.662  0.00  0.00    +0.000 A 
ATOM      8  C   UNL     1      -9.358  -2.739 123.292  0.00  0.00    +0.000 A 
ATOM      9  C   UNL     1      -8.175  -2.336 122.674  0.00  0.00    +0.000 A 
ATOM     10  C   UNL     1      -6.987  -2.381 123.387  0.00  0.00    +0.000 A 
ATOM     11  C   UNL     1      -7.012  -2.879 124.670  0.00  0.00    +0.000 A 
ENDBRANCH   5   6
ENDBRANCH   3   5
ENDBRANCH   2   3
BRANCH   2  12
ATOM     12  C   UNL     1      -7.018   0.047 127.060  0.00  0.00    +0.000 C 
BRANCH  12  13
ATOM     13  C   UNL     1      -7.725   0.562 125.828  0.00  0.00    +0.000 A 
ATOM     14  C   UNL     1      -9.125   0.571 125.704  0.00  0.00    +0.000 A 
ATOM     15  C   UNL     1      -9.735   0.925 124.513  0.00  0.00    +0.000 A 
ATOM     16  C   UNL     1      -8.948   1.286 123.428  0.00  0.00    +0.000 A 
ATOM     17  C   UNL     1      -7.557   1.300 123.539  0.00  0.00    +0.000 A 
ATOM     18  C   UNL     1      -6.945   0.943 124.736  0.00  0.00    +0.000 A 
ENDBRANCH  12  13
ENDBRANCH   2  12
TORSDOF 5
ENDMDL
MODEL 8
REMARK VINA RESULT:      -6.4      2.701      5.923
REMARK  Name = Benzphetamine
REMARK  7 active torsions:
REMARK  status: ('A' for Active; 'I' for Inactive)
REMARK    1  A    between atoms: C_1  and  C_2
REMARK    2  A    between atoms: C_2  and  C_3
REMARK    3  A    between atoms: C_2  and  N_10
REMARK    4  A    between atoms: C_3  and  C_4
REMARK    5  A    between atoms: N_10  and  C_11
REMARK    6  A    between atoms: N_10  and  C_12
REMARK    7  A    between atoms: C_12  and  C_13
REMARK                            x       y       z     vdW  Elec       q    Type
REMARK                         _______ _______ _______ _____ _____    ______ ____
ROOT
ATOM      1  C   UNL     1      -6.238   2.452 125.217  0.00  0.00    +0.000 C 
ATOM      2  C   UNL     1      -6.703   0.988 124.975  0.00  0.00    +0.000 C 
ENDROOT
BRANCH   2   3
ATOM      3  N   UNL     1      -7.338   0.860 123.638  0.00  0.00    +0.000 NA
ATOM      4  C   UNL     1      -7.081   2.106 122.903  0.00  0.00    +0.000 C 
BRANCH   3   5
ATOM      5  C   UNL     1      -6.846  -0.354 122.896  0.00  0.00    +0.000 C 
BRANCH   5   6
ATOM      6  C   UNL     1      -7.290  -1.691 123.467  0.00  0.00    +0.000 A 
ATOM      7  C   UNL     1      -6.389  -2.653 123.952  0.00  0.00    +0.000 A 
ATOM      8  C   UNL     1      -6.881  -3.841 124.505  0.00  0.00    +0.000 A 
ATOM      9  C   UNL     1      -8.248  -4.021 124.713  0.00  0.00    +0.000 A 
ATOM     10  C   UNL     1      -9.140  -3.084 124.214  0.00  0.00    +0.000 A 
ATOM     11  C   UNL     1      -8.642  -2.033 123.478  0.00  0.00    +0.000 A 
ENDBRANCH   5   6
ENDBRANCH   3   5
ENDBRANCH   2   3
BRANCH   2  12
ATOM     12  C   UNL     1      -7.641   0.590 126.130  0.00  0.00    +0.000 C 
BRANCH  12  13
ATOM     13  C   UNL     1      -7.138  -0.562 126.969  0.00  0.00    +0.000 A 
ATOM     14  C   UNL     1      -5.770  -0.815 127.169  0.00  0.00    +0.000 A 
ATOM     15  C   UNL     1      -5.343  -1.952 127.832  0.00  0.00    +0.000 A 
ATOM     16  C   UNL     1      -6.285  -2.851 128.315  0.00  0.00    +0.000 A 
ATOM     17  C   UNL     1      -7.647  -2.606 128.142  0.00  0.00    +0.000 A 
ATOM     18  C   UNL     1      -8.076  -1.463 127.475  0.00  0.00    +0.000 A 
ENDBRANCH  12  13
ENDBRANCH   2  12
TORSDOF 5
ENDMDL
MODEL 9
REMARK VINA RESULT:      -6.4      1.603      2.876
REMARK  Name = Benzphetamine
REMARK  7 active torsions:
REMARK  status: ('A' for Active; 'I' for Inactive)
REMARK    1  A    between atoms: C_1  and  C_2
REMARK    2  A    between atoms: C_2  and  C_3
REMARK    3  A    between atoms: C_2  and  N_10
REMARK    4  A    between atoms: C_3  and  C_4
REMARK    5  A    between atoms: N_10  and  C_11
REMARK    6  A    between atoms: N_10  and  C_12
REMARK    7  A    between atoms: C_12  and  C_13
REMARK                            x       y       z     vdW  Elec       q    Type
REMARK                         _______ _______ _______ _____ _____    ______ ____
ROOT
ATOM      1  C   UNL     1      -6.777  -0.633 123.259  0.00  0.00    +0.000 C 
ATOM      2  C   UNL     1      -8.167  -0.204 123.808  0.00  0.00    +0.000 C 
ENDROOT
BRANCH   2   3
ATOM      3  N   UNL     1      -8.695   0.952 123.038  0.00  0.00    +0.000 NA
ATOM      4  C   UNL     1     -10.151   0.784 122.928  0.00  0.00    +0.000 C 
BRANCH   3   5
ATOM      5  C   UNL     1      -8.317   2.266 123.665  0.00  0.00    +0.000 C 
BRANCH   5   6
ATOM      6  C   UNL     1      -7.279   3.076 122.904  0.00  0.00    +0.000 A 
ATOM      7  C   UNL     1      -6.120   3.592 123.505  0.00  0.00    +0.000 A 
ATOM      8  C   UNL     1      -5.190   4.289 122.725  0.00  0.00    +0.000 A 
ATOM      9  C   UNL     1      -5.325   4.352 121.338  0.00  0.00    +0.000 A 
ATOM     10  C   UNL     1      -6.478   3.864 120.745  0.00  0.00    +0.000 A 
ATOM     11  C   UNL     1      -7.480   3.382 121.558  0.00  0.00    +0.000 A 
ENDBRANCH   5   6
ENDBRANCH   3   5
ENDBRANCH   2   3
BRANCH   2  12
ATOM     12  C   UNL     1      -8.014   0.091 125.312  0.00  0.00    +0.000 C 
BRANCH  12  13
ATOM     13  C   UNL     1      -8.285  -1.095 126.208  0.00  0.00    +0.000 A 
ATOM     14  C   UNL     1      -7.708  -1.231 127.482  0.00  0.00    +0.000 A 
ATOM     15  C   UNL     1      -7.872  -2.391 128.220  0.00  0.00    +0.000 A 
ATOM     16  C   UNL     1      -8.629  -3.429 127.695  0.00  0.00    +0.000 A 
ATOM     17  C   UNL     1      -9.224  -3.303 126.439  0.00  0.00    +0.000 A 
ATOM     18  C   UNL     1      -9.058  -2.138 125.697  0.00  0.00    +0.000 A 
ENDBRANCH  12  13
ENDBRANCH   2  12
TORSDOF 5
ENDMDL
