MODEL 1
REMARK VINA RESULT:      -5.2      0.000      0.000
REMARK  Name = Benzoic acid
REMARK  2 active torsions:
REMARK  status: ('A' for Active; 'I' for Inactive)
REMARK    1  A    between atoms: O_1  and  C_2
REMARK    2  A    between atoms: C_2  and  C_4
REMARK                            x       y       z     vdW  Elec       q    Type
REMARK                         _______ _______ _______ _____ _____    ______ ____
ROOT
ATOM      1  C   UNL     1     -12.586   6.977 129.770  0.00  0.00    +0.000 A 
ATOM      2  C   UNL     1     -13.246   6.731 128.558  0.00  0.00    +0.000 A 
ATOM      3  C   UNL     1     -13.698   7.803 127.783  0.00  0.00    +0.000 A 
ATOM      4  C   UNL     1     -13.544   9.112 128.243  0.00  0.00    +0.000 A 
ATOM      5  C   UNL     1     -12.891   9.355 129.452  0.00  0.00    +0.000 A 
ATOM      6  C   UNL     1     -12.400   8.292 130.209  0.00  0.00    +0.000 A 
ENDROOT
BRANCH   1   7
ATOM      7  C   UNL     1     -11.976   5.854 130.519  0.00  0.00    +0.000 C 
ATOM      8  O   UNL     1     -11.468   4.890 129.965  0.00  0.00    +0.000 OA
BRANCH   7   9
ATOM      9  O   UNL     1     -12.026   5.996 131.860  0.00  0.00    +0.000 OA
ATOM     10  H   UNL     1     -11.367   5.480 132.361  0.00  0.00    +0.000 HD
ENDBRANCH   7   9
ENDBRANCH   1   7
TORSDOF 2
ENDMDL
MODEL 2
REMARK VINA RESULT:      -5.2     12.011     13.068
REMARK  Name = Benzoic acid
REMARK  2 active torsions:
REMARK  status: ('A' for Active; 'I' for Inactive)
REMARK    1  A    between atoms: O_1  and  C_2
REMARK    2  A    between atoms: C_2  and  C_4
REMARK                            x       y       z     vdW  Elec       q    Type
REMARK                         _______ _______ _______ _____ _____    ______ ____
ROOT
ATOM      1  C   UNL     1      -8.000  -2.983 123.820  0.00  0.00    +0.000 A 
ATOM      2  C   UNL     1      -7.018  -3.775 124.431  0.00  0.00    +0.000 A 
ATOM      3  C   UNL     1      -5.672  -3.588 124.106  0.00  0.00    +0.000 A 
ATOM      4  C   UNL     1      -5.311  -2.656 123.131  0.00  0.00    +0.000 A 
ATOM      5  C   UNL     1      -6.289  -1.872 122.520  0.00  0.00    +0.000 A 
ATOM      6  C   UNL     1      -7.631  -2.023 122.872  0.00  0.00    +0.000 A 
ENDROOT
BRANCH   1   7
ATOM      7  C   UNL     1      -9.408  -3.075 124.270  0.00  0.00    +0.000 C 
ATOM      8  O   UNL     1      -9.767  -2.726 125.385  0.00  0.00    +0.000 OA
BRANCH   7   9
ATOM      9  O   UNL     1     -10.251  -3.567 123.339  0.00  0.00    +0.000 OA
ATOM     10  H   UNL     1     -11.037  -4.029 123.687  0.00  0.00    +0.000 HD
ENDBRANCH   7   9
ENDBRANCH   1   7
TORSDOF 2
ENDMDL
MODEL 3
REMARK VINA RESULT:      -5.2     12.012     13.042
REMARK  Name = Benzoic acid
REMARK  2 active torsions:
REMARK  status: ('A' for Active; 'I' for Inactive)
REMARK    1  A    between atoms: O_1  and  C_2
REMARK    2  A    between atoms: C_2  and  C_4
REMARK                            x       y       z     vdW  Elec       q    Type
REMARK                         _______ _______ _______ _____ _____    ______ ____
ROOT
ATOM      1  C   UNL     1      -7.987  -2.894 123.943  0.00  0.00    +0.000 A 
ATOM      2  C   UNL     1      -7.646  -1.971 122.945  0.00  0.00    +0.000 A 
ATOM      3  C   UNL     1      -6.325  -1.893 122.492  0.00  0.00    +0.000 A 
ATOM      4  C   UNL     1      -5.339  -2.691 123.074  0.00  0.00    +0.000 A 
ATOM      5  C   UNL     1      -5.678  -3.606 124.071  0.00  0.00    +0.000 A 
ATOM      6  C   UNL     1      -7.002  -3.719 124.497  0.00  0.00    +0.000 A 
ENDROOT
BRANCH   1   7
ATOM      7  C   UNL     1      -9.407  -3.083 124.319  0.00  0.00    +0.000 C 
ATOM      8  O   UNL     1      -9.830  -2.842 125.440  0.00  0.00    +0.000 OA
BRANCH   7   9
ATOM      9  O   UNL     1     -10.186  -3.536 123.314  0.00  0.00    +0.000 OA
ATOM     10  H   UNL     1      -9.716  -3.771 122.492  0.00  0.00    +0.000 HD
ENDBRANCH   7   9
ENDBRANCH   1   7
TORSDOF 2
ENDMDL
MODEL 4
REMARK VINA RESULT:      -5.2      1.633      2.465
REMARK  Name = Benzoic acid
REMARK  2 active torsions:
REMARK  status: ('A' for Active; 'I' for Inactive)
REMARK    1  A    between atoms: O_1  and  C_2
REMARK    2  A    between atoms: C_2  and  C_4
REMARK                            x       y       z     vdW  Elec       q    Type
REMARK                         _______ _______ _______ _____ _____    ______ ____
ROOT
ATOM      1  C   UNL     1     -12.105   7.174 129.777  0.00  0.00    +0.000 A 
ATOM      2  C   UNL     1     -10.910   7.845 129.483  0.00  0.00    +0.000 A 
ATOM      3  C   UNL     1     -10.614   8.191 128.161  0.00  0.00    +0.000 A 
ATOM      4  C   UNL     1     -11.478   7.816 127.131  0.00  0.00    +0.000 A 
ATOM      5  C   UNL     1     -12.664   7.144 127.424  0.00  0.00    +0.000 A 
ATOM      6  C   UNL     1     -12.986   6.834 128.745  0.00  0.00    +0.000 A 
ENDROOT
BRANCH   1   7
ATOM      7  C   UNL     1     -12.491   6.939 131.187  0.00  0.00    +0.000 C 
ATOM      8  O   UNL     1     -13.272   7.664 131.786  0.00  0.00    +0.000 OA
BRANCH   7   9
ATOM      9  O   UNL     1     -11.912   5.854 131.742  0.00  0.00    +0.000 OA
ATOM     10  H   UNL     1     -12.046   5.753 132.703  0.00  0.00    +0.000 HD
ENDBRANCH   7   9
ENDBRANCH   1   7
TORSDOF 2
ENDMDL
MODEL 5
REMARK VINA RESULT:      -5.2      1.643      1.995
REMARK  Name = Benzoic acid
REMARK  2 active torsions:
REMARK  status: ('A' for Active; 'I' for Inactive)
REMARK    1  A    between atoms: O_1  and  C_2
REMARK    2  A    between atoms: C_2  and  C_4
REMARK                            x       y       z     vdW  Elec       q    Type
REMARK                         _______ _______ _______ _____ _____    ______ ____
ROOT
ATOM      1  C   UNL     1     -12.132   7.255 129.644  0.00  0.00    +0.000 A 
ATOM      2  C   UNL     1     -12.976   6.872 128.593  0.00  0.00    +0.000 A 
ATOM      3  C   UNL     1     -12.607   7.141 127.271  0.00  0.00    +0.000 A 
ATOM      4  C   UNL     1     -11.430   7.842 127.004  0.00  0.00    +0.000 A 
ATOM      5  C   UNL     1     -10.594   8.228 128.051  0.00  0.00    +0.000 A 
ATOM      6  C   UNL     1     -10.935   7.924 129.369  0.00  0.00    +0.000 A 
ENDROOT
BRANCH   1   7
ATOM      7  C   UNL     1     -12.446   6.840 131.031  0.00  0.00    +0.000 C 
ATOM      8  O   UNL     1     -13.292   7.402 131.711  0.00  0.00    +0.000 OA
BRANCH   7   9
ATOM      9  O   UNL     1     -11.723   5.788 131.467  0.00  0.00    +0.000 OA
ATOM     10  H   UNL     1     -11.797   5.595 132.420  0.00  0.00    +0.000 HD
ENDBRANCH   7   9
ENDBRANCH   1   7
TORSDOF 2
ENDMDL
MODEL 6
REMARK VINA RESULT:      -5.1      2.810      3.644
REMARK  Name = Benzoic acid
REMARK  2 active torsions:
REMARK  status: ('A' for Active; 'I' for Inactive)
REMARK    1  A    between atoms: O_1  and  C_2
REMARK    2  A    between atoms: C_2  and  C_4
REMARK                            x       y       z     vdW  Elec       q    Type
REMARK                         _______ _______ _______ _____ _____    ______ ____
ROOT
ATOM      1  C   UNL     1     -11.177   7.615 127.916  0.00  0.00    +0.000 A 
ATOM      2  C   UNL     1     -10.773   6.822 128.998  0.00  0.00    +0.000 A 
ATOM      3  C   UNL     1     -11.398   6.971 130.240  0.00  0.00    +0.000 A 
ATOM      4  C   UNL     1     -12.380   7.947 130.416  0.00  0.00    +0.000 A 
ATOM      5  C   UNL     1     -12.777   8.740 129.339  0.00  0.00    +0.000 A 
ATOM      6  C   UNL     1     -12.188   8.567 128.087  0.00  0.00    +0.000 A 
ENDROOT
BRANCH   1   7
ATOM      7  C   UNL     1     -10.624   7.359 126.566  0.00  0.00    +0.000 C 
ATOM      8  O   UNL     1     -10.915   8.040 125.594  0.00  0.00    +0.000 OA
BRANCH   7   9
ATOM      9  O   UNL     1      -9.768   6.317 126.511  0.00  0.00    +0.000 OA
ATOM     10  H   UNL     1     -10.178   5.434 126.572  0.00  0.00    +0.000 HD
ENDBRANCH   7   9
ENDBRANCH   1   7
TORSDOF 2
ENDMDL
MODEL 7
REMARK VINA RESULT:      -4.9      2.670      3.786
REMARK  Name = Benzoic acid
REMARK  2 active torsions:
REMARK  status: ('A' for Active; 'I' for Inactive)
REMARK    1  A    between atoms: O_1  and  C_2
REMARK    2  A    between atoms: C_2  and  C_4
REMARK                            x       y       z     vdW  Elec       q    Type
REMARK                         _______ _______ _______ _____ _____    ______ ____
ROOT
ATOM      1  C   UNL     1     -12.199   8.086 129.644  0.00  0.00    +0.000 A 
ATOM      2  C   UNL     1     -10.844   7.906 129.331  0.00  0.00    +0.000 A 
ATOM      3  C   UNL     1     -10.047   7.090 130.139  0.00  0.00    +0.000 A 
ATOM      4  C   UNL     1     -10.583   6.505 131.287  0.00  0.00    +0.000 A 
ATOM      5  C   UNL     1     -11.930   6.689 131.601  0.00  0.00    +0.000 A 
ATOM      6  C   UNL     1     -12.742   7.467 130.775  0.00  0.00    +0.000 A 
ENDROOT
BRANCH   1   7
ATOM      7  C   UNL     1     -13.080   8.826 128.712  0.00  0.00    +0.000 C 
ATOM      8  O   UNL     1     -13.800   8.264 127.900  0.00  0.00    +0.000 OA
BRANCH   7   9
ATOM      9  O   UNL     1     -13.020  10.168 128.846  0.00  0.00    +0.000 OA
ATOM     10  H   UNL     1     -12.826  10.663 128.028  0.00  0.00    +0.000 HD
ENDBRANCH   7   9
ENDBRANCH   1   7
TORSDOF 2
ENDMDL
MODEL 8
REMARK VINA RESULT:      -4.6      2.930      4.272
REMARK  Name = Benzoic acid
REMARK  2 active torsions:
REMARK  status: ('A' for Active; 'I' for Inactive)
REMARK    1  A    between atoms: O_1  and  C_2
REMARK    2  A    between atoms: C_2  and  C_4
REMARK                            x       y       z     vdW  Elec       q    Type
REMARK                         _______ _______ _______ _____ _____    ______ ____
ROOT
ATOM      1  C   UNL     1     -10.467   7.186 129.677  0.00  0.00    +0.000 A 
ATOM      2  C   UNL     1      -9.263   6.888 130.330  0.00  0.00    +0.000 A 
ATOM      3  C   UNL     1      -9.285   6.381 131.632  0.00  0.00    +0.000 A 
ATOM      4  C   UNL     1     -10.500   6.229 132.302  0.00  0.00    +0.000 A 
ATOM      5  C   UNL     1     -11.698   6.532 131.654  0.00  0.00    +0.000 A 
ATOM      6  C   UNL     1     -11.685   6.997 130.339  0.00  0.00    +0.000 A 
ENDROOT
BRANCH   1   7
ATOM      7  C   UNL     1     -10.455   7.581 128.250  0.00  0.00    +0.000 C 
ATOM      8  O   UNL     1     -10.886   8.655 127.859  0.00  0.00    +0.000 OA
BRANCH   7   9
ATOM      9  O   UNL     1      -9.919   6.654 127.428  0.00  0.00    +0.000 OA
ATOM     10  H   UNL     1     -10.348   6.569 126.556  0.00  0.00    +0.000 HD
ENDBRANCH   7   9
ENDBRANCH   1   7
TORSDOF 2
ENDMDL
MODEL 9
REMARK VINA RESULT:      -4.4     11.289     12.596
REMARK  Name = Benzoic acid
REMARK  2 active torsions:
REMARK  status: ('A' for Active; 'I' for Inactive)
REMARK    1  A    between atoms: O_1  and  C_2
REMARK    2  A    between atoms: C_2  and  C_4
REMARK                            x       y       z     vdW  Elec       q    Type
REMARK                         _______ _______ _______ _____ _____    ______ ____
ROOT
ATOM      1  C   UNL     1      -8.007  -1.770 123.289  0.00  0.00    +0.000 A 
ATOM      2  C   UNL     1      -8.363  -2.902 124.034  0.00  0.00    +0.000 A 
ATOM      3  C   UNL     1      -7.379  -3.812 124.430  0.00  0.00    +0.000 A 
ATOM      4  C   UNL     1      -6.054  -3.624 124.034  0.00  0.00    +0.000 A 
ATOM      5  C   UNL     1      -5.700  -2.500 123.288  0.00  0.00    +0.000 A 
ATOM      6  C   UNL     1      -6.671  -1.566 122.926  0.00  0.00    +0.000 A 
ENDROOT
BRANCH   1   7
ATOM      7  C   UNL     1      -9.020  -0.730 122.996  0.00  0.00    +0.000 C 
ATOM      8  O   UNL     1     -10.154  -0.999 122.630  0.00  0.00    +0.000 OA
BRANCH   7   9
ATOM      9  O   UNL     1      -8.579   0.533 123.177  0.00  0.00    +0.000 OA
ATOM     10  H   UNL     1      -9.274   1.202 123.321  0.00  0.00    +0.000 HD
ENDBRANCH   7   9
ENDBRANCH   1   7
TORSDOF 2
ENDMDL
