MODEL 1
REMARK VINA RESULT:      -4.9      0.000      0.000
REMARK  Name = Benzyl alcohol
REMARK  2 active torsions:
REMARK  status: ('A' for Active; 'I' for Inactive)
REMARK    1  A    between atoms: O_1  and  C_2
REMARK    2  A    between atoms: C_2  and  C_3
REMARK                            x       y       z     vdW  Elec       q    Type
REMARK                         _______ _______ _______ _____ _____    ______ ____
ROOT
ATOM      1  C   UNL     1     -13.168   9.517 129.774  0.00  0.00    +0.000 A 
ATOM      2  C   UNL     1     -13.445   9.246 128.425  0.00  0.00    +0.000 A 
ATOM      3  C   UNL     1     -13.454   7.931 127.956  0.00  0.00    +0.000 A 
ATOM      4  C   UNL     1     -13.128   6.884 128.812  0.00  0.00    +0.000 A 
ATOM      5  C   UNL     1     -12.791   7.147 130.141  0.00  0.00    +0.000 A 
ATOM      6  C   UNL     1     -12.813   8.459 130.619  0.00  0.00    +0.000 A 
ENDROOT
BRANCH   1   7
ATOM      7  C   UNL     1     -13.307  10.916 130.305  0.00  0.00    +0.000 C 
BRANCH   7   8
ATOM      8  O   UNL     1     -13.246  11.821 129.208  0.00  0.00    +0.000 OA
ATOM      9  H   UNL     1     -14.009  11.633 128.639  0.00  0.00    +0.000 HD
ENDBRANCH   7   8
ENDBRANCH   1   7
TORSDOF 2
ENDMDL
MODEL 2
REMARK VINA RESULT:      -4.7      2.398      3.677
REMARK  Name = Benzyl alcohol
REMARK  2 active torsions:
REMARK  status: ('A' for Active; 'I' for Inactive)
REMARK    1  A    between atoms: O_1  and  C_2
REMARK    2  A    between atoms: C_2  and  C_3
REMARK                            x       y       z     vdW  Elec       q    Type
REMARK                         _______ _______ _______ _____ _____    ______ ____
ROOT
ATOM      1  C   UNL     1     -12.603   7.451 128.061  0.00  0.00    +0.000 A 
ATOM      2  C   UNL     1     -12.551   6.494 129.087  0.00  0.00    +0.000 A 
ATOM      3  C   UNL     1     -12.685   6.881 130.421  0.00  0.00    +0.000 A 
ATOM      4  C   UNL     1     -12.812   8.227 130.746  0.00  0.00    +0.000 A 
ATOM      5  C   UNL     1     -12.804   9.193 129.739  0.00  0.00    +0.000 A 
ATOM      6  C   UNL     1     -12.702   8.805 128.402  0.00  0.00    +0.000 A 
ENDROOT
BRANCH   1   7
ATOM      7  C   UNL     1     -12.609   7.014 126.623  0.00  0.00    +0.000 C 
BRANCH   7   8
ATOM      8  O   UNL     1     -11.294   6.594 126.276  0.00  0.00    +0.000 OA
ATOM      9  H   UNL     1     -11.351   6.164 125.408  0.00  0.00    +0.000 HD
ENDBRANCH   7   8
ENDBRANCH   1   7
TORSDOF 2
ENDMDL
MODEL 3
REMARK VINA RESULT:      -4.7      1.681      2.308
REMARK  Name = Benzyl alcohol
REMARK  2 active torsions:
REMARK  status: ('A' for Active; 'I' for Inactive)
REMARK    1  A    between atoms: O_1  and  C_2
REMARK    2  A    between atoms: C_2  and  C_3
REMARK                            x       y       z     vdW  Elec       q    Type
REMARK                         _______ _______ _______ _____ _____    ______ ____
ROOT
ATOM      1  C   UNL     1     -12.525   8.707 128.709  0.00  0.00    +0.000 A 
ATOM      2  C   UNL     1     -11.186   8.687 128.289  0.00  0.00    +0.000 A 
ATOM      3  C   UNL     1     -10.804   7.923 127.185  0.00  0.00    +0.000 A 
ATOM      4  C   UNL     1     -11.739   7.128 126.531  0.00  0.00    +0.000 A 
ATOM      5  C   UNL     1     -13.061   7.093 126.977  0.00  0.00    +0.000 A 
ATOM      6  C   UNL     1     -13.452   7.881 128.061  0.00  0.00    +0.000 A 
ENDROOT
BRANCH   1   7
ATOM      7  C   UNL     1     -12.958   9.645 129.801  0.00  0.00    +0.000 C 
BRANCH   7   8
ATOM      8  O   UNL     1     -13.238  10.913 129.219  0.00  0.00    +0.000 OA
ATOM      9  H   UNL     1     -13.316  10.778 128.261  0.00  0.00    +0.000 HD
ENDBRANCH   7   8
ENDBRANCH   1   7
TORSDOF 2
ENDMDL
MODEL 4
REMARK VINA RESULT:      -4.7      2.881      3.411
REMARK  Name = Benzyl alcohol
REMARK  2 active torsions:
REMARK  status: ('A' for Active; 'I' for Inactive)
REMARK    1  A    between atoms: O_1  and  C_2
REMARK    2  A    between atoms: C_2  and  C_3
REMARK                            x       y       z     vdW  Elec       q    Type
REMARK                         _______ _______ _______ _____ _____    ______ ____
ROOT
ATOM      1  C   UNL     1     -12.368   7.410 129.758  0.00  0.00    +0.000 A 
ATOM      2  C   UNL     1     -11.118   7.963 129.442  0.00  0.00    +0.000 A 
ATOM      3  C   UNL     1     -10.742   8.147 128.110  0.00  0.00    +0.000 A 
ATOM      4  C   UNL     1     -11.582   7.726 127.085  0.00  0.00    +0.000 A 
ATOM      5  C   UNL     1     -12.802   7.119 127.387  0.00  0.00    +0.000 A 
ATOM      6  C   UNL     1     -13.194   6.964 128.718  0.00  0.00    +0.000 A 
ENDROOT
BRANCH   1   7
ATOM      7  C   UNL     1     -12.828   7.354 131.187  0.00  0.00    +0.000 C 
BRANCH   7   8
ATOM      8  O   UNL     1     -12.224   6.226 131.810  0.00  0.00    +0.000 OA
ATOM      9  H   UNL     1     -12.541   6.201 132.726  0.00  0.00    +0.000 HD
ENDBRANCH   7   8
ENDBRANCH   1   7
TORSDOF 2
ENDMDL
MODEL 5
REMARK VINA RESULT:      -4.7      2.808      3.175
REMARK  Name = Benzyl alcohol
REMARK  2 active torsions:
REMARK  status: ('A' for Active; 'I' for Inactive)
REMARK    1  A    between atoms: O_1  and  C_2
REMARK    2  A    between atoms: C_2  and  C_3
REMARK                            x       y       z     vdW  Elec       q    Type
REMARK                         _______ _______ _______ _____ _____    ______ ____
ROOT
ATOM      1  C   UNL     1     -12.489   7.538 129.783  0.00  0.00    +0.000 A 
ATOM      2  C   UNL     1     -13.375   7.125 128.776  0.00  0.00    +0.000 A 
ATOM      3  C   UNL     1     -12.973   7.117 127.440  0.00  0.00    +0.000 A 
ATOM      4  C   UNL     1     -11.707   7.577 127.091  0.00  0.00    +0.000 A 
ATOM      5  C   UNL     1     -10.838   8.047 128.077  0.00  0.00    +0.000 A 
ATOM      6  C   UNL     1     -11.228   8.025 129.417  0.00  0.00    +0.000 A 
ENDROOT
BRANCH   1   7
ATOM      7  C   UNL     1     -12.874   7.402 131.229  0.00  0.00    +0.000 C 
BRANCH   7   8
ATOM      8  O   UNL     1     -12.231   6.249 131.759  0.00  0.00    +0.000 OA
ATOM      9  H   UNL     1     -11.812   6.513 132.593  0.00  0.00    +0.000 HD
ENDBRANCH   7   8
ENDBRANCH   1   7
TORSDOF 2
ENDMDL
MODEL 6
REMARK VINA RESULT:      -4.6     13.868     14.788
REMARK  Name = Benzyl alcohol
REMARK  2 active torsions:
REMARK  status: ('A' for Active; 'I' for Inactive)
REMARK    1  A    between atoms: O_1  and  C_2
REMARK    2  A    between atoms: C_2  and  C_3
REMARK                            x       y       z     vdW  Elec       q    Type
REMARK                         _______ _______ _______ _____ _____    ______ ____
ROOT
ATOM      1  C   UNL     1      -7.927  -3.020 123.907  0.00  0.00    +0.000 A 
ATOM      2  C   UNL     1      -6.901  -3.824 124.427  0.00  0.00    +0.000 A 
ATOM      3  C   UNL     1      -5.576  -3.614 124.043  0.00  0.00    +0.000 A 
ATOM      4  C   UNL     1      -5.271  -2.643 123.095  0.00  0.00    +0.000 A 
ATOM      5  C   UNL     1      -6.290  -1.878 122.525  0.00  0.00    +0.000 A 
ATOM      6  C   UNL     1      -7.612  -2.065 122.932  0.00  0.00    +0.000 A 
ENDROOT
BRANCH   1   7
ATOM      7  C   UNL     1      -9.328  -3.150 124.436  0.00  0.00    +0.000 C 
BRANCH   7   8
ATOM      8  O   UNL     1     -10.187  -3.493 123.354  0.00  0.00    +0.000 OA
ATOM      9  H   UNL     1      -9.778  -4.241 122.891  0.00  0.00    +0.000 HD
ENDBRANCH   7   8
ENDBRANCH   1   7
TORSDOF 2
ENDMDL
MODEL 7
REMARK VINA RESULT:      -4.5      2.627      3.458
REMARK  Name = Benzyl alcohol
REMARK  2 active torsions:
REMARK  status: ('A' for Active; 'I' for Inactive)
REMARK    1  A    between atoms: O_1  and  C_2
REMARK    2  A    between atoms: C_2  and  C_3
REMARK                            x       y       z     vdW  Elec       q    Type
REMARK                         _______ _______ _______ _____ _____    ______ ____
ROOT
ATOM      1  C   UNL     1     -11.591   7.582 128.383  0.00  0.00    +0.000 A 
ATOM      2  C   UNL     1     -12.200   8.804 128.707  0.00  0.00    +0.000 A 
ATOM      3  C   UNL     1     -12.792   8.989 129.958  0.00  0.00    +0.000 A 
ATOM      4  C   UNL     1     -12.834   7.940 130.870  0.00  0.00    +0.000 A 
ATOM      5  C   UNL     1     -12.286   6.701 130.535  0.00  0.00    +0.000 A 
ATOM      6  C   UNL     1     -11.665   6.524 129.297  0.00  0.00    +0.000 A 
ENDROOT
BRANCH   1   7
ATOM      7  C   UNL     1     -10.826   7.439 127.097  0.00  0.00    +0.000 C 
BRANCH   7   8
ATOM      8  O   UNL     1     -11.587   6.629 126.209  0.00  0.00    +0.000 OA
ATOM      9  H   UNL     1     -11.670   7.117 125.375  0.00  0.00    +0.000 HD
ENDBRANCH   7   8
ENDBRANCH   1   7
TORSDOF 2
ENDMDL
MODEL 8
REMARK VINA RESULT:      -4.5     10.824     11.969
REMARK  Name = Benzyl alcohol
REMARK  2 active torsions:
REMARK  status: ('A' for Active; 'I' for Inactive)
REMARK    1  A    between atoms: O_1  and  C_2
REMARK    2  A    between atoms: C_2  and  C_3
REMARK                            x       y       z     vdW  Elec       q    Type
REMARK                         _______ _______ _______ _____ _____    ______ ____
ROOT
ATOM      1  C   UNL     1      -6.815   3.560 121.602  0.00  0.00    +0.000 A 
ATOM      2  C   UNL     1      -5.523   4.032 121.881  0.00  0.00    +0.000 A 
ATOM      3  C   UNL     1      -4.854   4.845 120.964  0.00  0.00    +0.000 A 
ATOM      4  C   UNL     1      -5.442   5.143 119.740  0.00  0.00    +0.000 A 
ATOM      5  C   UNL     1      -6.702   4.630 119.426  0.00  0.00    +0.000 A 
ATOM      6  C   UNL     1      -7.385   3.844 120.355  0.00  0.00    +0.000 A 
ENDROOT
BRANCH   1   7
ATOM      7  C   UNL     1      -7.587   2.813 122.653  0.00  0.00    +0.000 C 
BRANCH   7   8
ATOM      8  O   UNL     1      -8.269   3.760 123.468  0.00  0.00    +0.000 OA
ATOM      9  H   UNL     1      -9.209   3.521 123.458  0.00  0.00    +0.000 HD
ENDBRANCH   7   8
ENDBRANCH   1   7
TORSDOF 2
ENDMDL
MODEL 9
REMARK VINA RESULT:      -4.4      1.812      2.594
REMARK  Name = Benzyl alcohol
REMARK  2 active torsions:
REMARK  status: ('A' for Active; 'I' for Inactive)
REMARK    1  A    between atoms: O_1  and  C_2
REMARK    2  A    between atoms: C_2  and  C_3
REMARK                            x       y       z     vdW  Elec       q    Type
REMARK                         _______ _______ _______ _____ _____    ______ ____
ROOT
ATOM      1  C   UNL     1     -12.214   8.143 129.584  0.00  0.00    +0.000 A 
ATOM      2  C   UNL     1     -10.851   7.956 129.310  0.00  0.00    +0.000 A 
ATOM      3  C   UNL     1     -10.076   7.119 130.114  0.00  0.00    +0.000 A 
ATOM      4  C   UNL     1     -10.639   6.511 131.232  0.00  0.00    +0.000 A 
ATOM      5  C   UNL     1     -11.978   6.739 131.550  0.00  0.00    +0.000 A 
ATOM      6  C   UNL     1     -12.763   7.550 130.728  0.00  0.00    +0.000 A 
ENDROOT
BRANCH   1   7
ATOM      7  C   UNL     1     -13.075   8.923 128.631  0.00  0.00    +0.000 C 
BRANCH   7   8
ATOM      8  O   UNL     1     -13.018  10.297 128.995  0.00  0.00    +0.000 OA
ATOM      9  H   UNL     1     -12.440  10.364 129.770  0.00  0.00    +0.000 HD
ENDBRANCH   7   8
ENDBRANCH   1   7
TORSDOF 2
ENDMDL
