MODEL 1
REMARK VINA RESULT:      -7.9      0.000      0.000
REMARK  Name = Benzthiazide
REMARK  6 active torsions:
REMARK  status: ('A' for Active; 'I' for Inactive)
REMARK    1  A    between atoms: N_1  and  S_2
REMARK    2  A    between atoms: S_2  and  C_5
REMARK    3  A    between atoms: C_13  and  C_14
REMARK    4  A    between atoms: C_14  and  S_15
REMARK    5  A    between atoms: S_15  and  C_16
REMARK    6  A    between atoms: C_16  and  C_17
REMARK                            x       y       z     vdW  Elec       q    Type
REMARK                         _______ _______ _______ _____ _____    ______ ____
ROOT
ATOM      1  C   UNL     1     -10.557   6.850 129.923  0.00  0.00    +0.000 A 
ATOM      2  C   UNL     1      -9.177   6.673 129.918  0.00  0.00    +0.000 A 
ATOM      3  C   UNL     1      -8.521   6.356 131.110  0.00  0.00    +0.000 A 
ATOM      4  C   UNL     1      -9.171   6.199 132.330  0.00  0.00    +0.000 A 
ATOM      5  C   UNL     1     -10.559   6.385 132.312  0.00  0.00    +0.000 A 
ATOM      6  C   UNL     1     -11.251   6.720 131.128  0.00  0.00    +0.000 A 
ATOM      7 CL   UNL     1     -12.948   6.994 131.295  0.00  0.00    +0.000 Cl
ATOM      8  N   UNL     1      -8.555   5.871 133.561  0.00  0.00    +0.000 NA
ATOM      9  C   UNL     1      -7.274   5.708 133.652  0.00  0.00    +0.000 C 
ATOM     10  N   UNL     1      -6.412   5.847 132.561  0.00  0.00    +0.000 N 
ATOM     11  S   UNL     1      -6.809   6.138 131.016  0.00  0.00    +0.000 S 
ATOM     12  O   UNL     1      -6.561   4.934 130.264  0.00  0.00    +0.000 OA
ATOM     13  O   UNL     1      -6.219   7.411 130.654  0.00  0.00    +0.000 OA
ATOM     14  H   UNL     1      -5.417   5.669 132.710  0.00  0.00    +0.000 HD
ENDROOT
BRANCH   1  15
ATOM     15  S   UNL     1     -11.312   7.248 128.378  0.00  0.00    +0.000 S 
ATOM     16  O   UNL     1     -11.459   8.684 128.302  0.00  0.00    +0.000 OA
ATOM     17  O   UNL     1     -12.433   6.357 128.199  0.00  0.00    +0.000 OA
BRANCH  15  18
ATOM     18  N   UNL     1     -10.177   6.850 127.208  0.00  0.00    +0.000 NA
ATOM     19  H   UNL     1      -9.790   5.924 127.404  0.00  0.00    +0.000 HD
ATOM     20  H   UNL     1      -9.429   7.548 127.185  0.00  0.00    +0.000 HD
ENDBRANCH  15  18
ENDBRANCH   1  15
BRANCH   9  21
ATOM     21  C   UNL     1      -6.576   5.347 134.988  0.00  0.00    +0.000 C 
BRANCH  21  22
ATOM     22  S   UNL     1      -7.658   5.939 136.330  0.00  0.00    +0.000 S 
BRANCH  22  23
ATOM     23  C   UNL     1      -6.815   7.322 137.143  0.00  0.00    +0.000 C 
BRANCH  23  24
ATOM     24  C   UNL     1      -7.843   8.298 137.717  0.00  0.00    +0.000 A 
ATOM     25  C   UNL     1      -7.558   9.168 138.793  0.00  0.00    +0.000 A 
ATOM     26  C   UNL     1      -8.549   9.891 139.444  0.00  0.00    +0.000 A 
ATOM     27  C   UNL     1      -9.834   9.889 138.931  0.00  0.00    +0.000 A 
ATOM     28  C   UNL     1     -10.111   9.169 137.769  0.00  0.00    +0.000 A 
ATOM     29  C   UNL     1      -9.144   8.330 137.200  0.00  0.00    +0.000 A 
ENDBRANCH  23  24
ENDBRANCH  22  23
ENDBRANCH  21  22
ENDBRANCH   9  21
TORSDOF 6
ENDMDL
MODEL 2
REMARK VINA RESULT:      -7.8      3.683      4.546
REMARK  Name = Benzthiazide
REMARK  6 active torsions:
REMARK  status: ('A' for Active; 'I' for Inactive)
REMARK    1  A    between atoms: N_1  and  S_2
REMARK    2  A    between atoms: S_2  and  C_5
REMARK    3  A    between atoms: C_13  and  C_14
REMARK    4  A    between atoms: C_14  and  S_15
REMARK    5  A    between atoms: S_15  and  C_16
REMARK    6  A    between atoms: C_16  and  C_17
REMARK                            x       y       z     vdW  Elec       q    Type
REMARK                         _______ _______ _______ _____ _____    ______ ____
ROOT
ATOM      1  C   UNL     1     -11.610   6.699 129.619  0.00  0.00    +0.000 A 
ATOM      2  C   UNL     1     -10.571   5.849 129.252  0.00  0.00    +0.000 A 
ATOM      3  C   UNL     1      -9.815   5.221 130.245  0.00  0.00    +0.000 A 
ATOM      4  C   UNL     1     -10.039   5.389 131.608  0.00  0.00    +0.000 A 
ATOM      5  C   UNL     1     -11.087   6.251 131.953  0.00  0.00    +0.000 A 
ATOM      6  C   UNL     1     -11.862   6.914 130.975  0.00  0.00    +0.000 A 
ATOM      7 CL   UNL     1     -13.061   8.004 131.571  0.00  0.00    +0.000 Cl
ATOM      8  N   UNL     1      -9.309   4.771 132.650  0.00  0.00    +0.000 NA
ATOM      9  C   UNL     1      -8.313   3.982 132.401  0.00  0.00    +0.000 C 
ATOM     10  N   UNL     1      -7.885   3.688 131.103  0.00  0.00    +0.000 N 
ATOM     11  S   UNL     1      -8.553   4.170 129.707  0.00  0.00    +0.000 S 
ATOM     12  O   UNL     1      -9.170   3.021 129.094  0.00  0.00    +0.000 OA
ATOM     13  O   UNL     1      -7.567   4.978 129.017  0.00  0.00    +0.000 OA
ATOM     14  H   UNL     1      -7.111   3.029 130.991  0.00  0.00    +0.000 HD
ENDROOT
BRANCH   1  15
ATOM     15  S   UNL     1     -12.518   7.455 128.307  0.00  0.00    +0.000 S 
ATOM     16  O   UNL     1     -12.214   8.867 128.301  0.00  0.00    +0.000 OA
ATOM     17  O   UNL     1     -13.874   6.967 128.380  0.00  0.00    +0.000 OA
BRANCH  15  18
ATOM     18  N   UNL     1     -11.853   6.845 126.892  0.00  0.00    +0.000 NA
ATOM     19  H   UNL     1     -12.599   6.558 126.256  0.00  0.00    +0.000 HD
ATOM     20  H   UNL     1     -11.241   6.052 127.099  0.00  0.00    +0.000 HD
ENDBRANCH  15  18
ENDBRANCH   1  15
BRANCH   9  21
ATOM     21  C   UNL     1      -7.500   3.291 133.524  0.00  0.00    +0.000 C 
BRANCH  21  22
ATOM     22  S   UNL     1      -5.778   3.867 133.363  0.00  0.00    +0.000 S 
BRANCH  22  23
ATOM     23  C   UNL     1      -5.762   5.647 133.704  0.00  0.00    +0.000 C 
BRANCH  23  24
ATOM     24  C   UNL     1      -4.987   6.383 132.610  0.00  0.00    +0.000 A 
ATOM     25  C   UNL     1      -3.644   6.792 132.763  0.00  0.00    +0.000 A 
ATOM     26  C   UNL     1      -3.020   7.641 131.858  0.00  0.00    +0.000 A 
ATOM     27  C   UNL     1      -3.672   7.975 130.685  0.00  0.00    +0.000 A 
ATOM     28  C   UNL     1      -4.939   7.451 130.427  0.00  0.00    +0.000 A 
ATOM     29  C   UNL     1      -5.620   6.713 131.405  0.00  0.00    +0.000 A 
ENDBRANCH  23  24
ENDBRANCH  22  23
ENDBRANCH  21  22
ENDBRANCH   9  21
TORSDOF 6
ENDMDL
MODEL 3
REMARK VINA RESULT:      -7.6      6.397      8.415
REMARK  Name = Benzthiazide
REMARK  6 active torsions:
REMARK  status: ('A' for Active; 'I' for Inactive)
REMARK    1  A    between atoms: N_1  and  S_2
REMARK    2  A    between atoms: S_2  and  C_5
REMARK    3  A    between atoms: C_13  and  C_14
REMARK    4  A    between atoms: C_14  and  S_15
REMARK    5  A    between atoms: S_15  and  C_16
REMARK    6  A    between atoms: C_16  and  C_17
REMARK                            x       y       z     vdW  Elec       q    Type
REMARK                         _______ _______ _______ _____ _____    ______ ____
ROOT
ATOM      1  C   UNL     1      -6.653   3.632 123.031  0.00  0.00    +0.000 A 
ATOM      2  C   UNL     1      -5.896   3.996 124.140  0.00  0.00    +0.000 A 
ATOM      3  C   UNL     1      -6.446   3.866 125.418  0.00  0.00    +0.000 A 
ATOM      4  C   UNL     1      -7.727   3.383 125.662  0.00  0.00    +0.000 A 
ATOM      5  C   UNL     1      -8.471   3.027 124.531  0.00  0.00    +0.000 A 
ATOM      6  C   UNL     1      -7.952   3.159 123.224  0.00  0.00    +0.000 A 
ATOM      7 CL   UNL     1      -9.029   2.751 121.937  0.00  0.00    +0.000 Cl
ATOM      8  N   UNL     1      -8.325   3.225 126.935  0.00  0.00    +0.000 NA
ATOM      9  C   UNL     1      -7.701   3.558 128.019  0.00  0.00    +0.000 C 
ATOM     10  N   UNL     1      -6.411   4.096 128.018  0.00  0.00    +0.000 N 
ATOM     11  S   UNL     1      -5.435   4.326 126.744  0.00  0.00    +0.000 S 
ATOM     12  O   UNL     1      -4.363   3.367 126.831  0.00  0.00    +0.000 OA
ATOM     13  O   UNL     1      -5.191   5.750 126.642  0.00  0.00    +0.000 OA
ATOM     14  H   UNL     1      -5.976   4.301 128.920  0.00  0.00    +0.000 HD
ENDROOT
BRANCH   1  15
ATOM     15  S   UNL     1      -5.889   3.824 121.451  0.00  0.00    +0.000 S 
ATOM     16  O   UNL     1      -5.501   2.517 120.974  0.00  0.00    +0.000 OA
ATOM     17  O   UNL     1      -4.944   4.910 121.553  0.00  0.00    +0.000 OA
BRANCH  15  18
ATOM     18  N   UNL     1      -7.112   4.334 120.421  0.00  0.00    +0.000 NA
ATOM     19  H   UNL     1      -8.021   4.087 120.817  0.00  0.00    +0.000 HD
ATOM     20  H   UNL     1      -7.001   3.908 119.497  0.00  0.00    +0.000 HD
ENDBRANCH  15  18
ENDBRANCH   1  15
BRANCH   9  21
ATOM     21  C   UNL     1      -8.334   3.393 129.425  0.00  0.00    +0.000 C 
BRANCH  21  22
ATOM     22  S   UNL     1      -8.741   5.066 130.023  0.00  0.00    +0.000 S 
BRANCH  22  23
ATOM     23  C   UNL     1     -10.533   5.131 130.288  0.00  0.00    +0.000 C 
BRANCH  23  24
ATOM     24  C   UNL     1     -11.129   6.333 129.553  0.00  0.00    +0.000 A 
ATOM     25  C   UNL     1     -12.503   6.442 129.249  0.00  0.00    +0.000 A 
ATOM     26  C   UNL     1     -12.998   7.424 128.400  0.00  0.00    +0.000 A 
ATOM     27  C   UNL     1     -12.153   8.427 127.962  0.00  0.00    +0.000 A 
ATOM     28  C   UNL     1     -10.823   8.439 128.380  0.00  0.00    +0.000 A 
ATOM     29  C   UNL     1     -10.295   7.370 129.118  0.00  0.00    +0.000 A 
ENDBRANCH  23  24
ENDBRANCH  22  23
ENDBRANCH  21  22
ENDBRANCH   9  21
TORSDOF 6
ENDMDL
MODEL 4
REMARK VINA RESULT:      -7.6      9.152     11.872
REMARK  Name = Benzthiazide
REMARK  6 active torsions:
REMARK  status: ('A' for Active; 'I' for Inactive)
REMARK    1  A    between atoms: N_1  and  S_2
REMARK    2  A    between atoms: S_2  and  C_5
REMARK    3  A    between atoms: C_13  and  C_14
REMARK    4  A    between atoms: C_14  and  S_15
REMARK    5  A    between atoms: S_15  and  C_16
REMARK    6  A    between atoms: C_16  and  C_17
REMARK                            x       y       z     vdW  Elec       q    Type
REMARK                         _______ _______ _______ _____ _____    ______ ____
ROOT
ATOM      1  C   UNL     1      -7.880  -1.820 125.106  0.00  0.00    +0.000 A 
ATOM      2  C   UNL     1      -8.251  -1.022 126.183  0.00  0.00    +0.000 A 
ATOM      3  C   UNL     1      -7.411   0.018 126.589  0.00  0.00    +0.000 A 
ATOM      4  C   UNL     1      -6.201   0.319 125.970  0.00  0.00    +0.000 A 
ATOM      5  C   UNL     1      -5.847  -0.499 124.890  0.00  0.00    +0.000 A 
ATOM      6  C   UNL     1      -6.666  -1.569 124.464  0.00  0.00    +0.000 A 
ATOM      7 CL   UNL     1      -6.044  -2.529 123.171  0.00  0.00    +0.000 Cl
ATOM      8  N   UNL     1      -5.321   1.364 126.336  0.00  0.00    +0.000 NA
ATOM      9  C   UNL     1      -5.576   2.141 127.339  0.00  0.00    +0.000 C 
ATOM     10  N   UNL     1      -6.721   2.009 128.130  0.00  0.00    +0.000 N 
ATOM     11  S   UNL     1      -7.951   0.972 127.925  0.00  0.00    +0.000 S 
ATOM     12  O   UNL     1      -9.097   1.728 127.490  0.00  0.00    +0.000 OA
ATOM     13  O   UNL     1      -7.988   0.116 129.094  0.00  0.00    +0.000 OA
ATOM     14  H   UNL     1      -6.865   2.685 128.882  0.00  0.00    +0.000 HD
ENDROOT
BRANCH   1  15
ATOM     15  S   UNL     1      -8.995  -3.113 124.654  0.00  0.00    +0.000 S 
ATOM     16  O   UNL     1      -8.296  -4.373 124.766  0.00  0.00    +0.000 OA
ATOM     17  O   UNL     1      -9.654  -2.713 123.434  0.00  0.00    +0.000 OA
BRANCH  15  18
ATOM     18  N   UNL     1     -10.164  -3.138 125.858  0.00  0.00    +0.000 NA
ATOM     19  H   UNL     1     -10.925  -2.503 125.612  0.00  0.00    +0.000 HD
ATOM     20  H   UNL     1      -9.755  -2.868 126.757  0.00  0.00    +0.000 HD
ENDBRANCH  15  18
ENDBRANCH   1  15
BRANCH   9  21
ATOM     21  C   UNL     1      -4.629   3.294 127.758  0.00  0.00    +0.000 C 
BRANCH  21  22
ATOM     22  S   UNL     1      -4.091   4.123 126.226  0.00  0.00    +0.000 S 
BRANCH  22  23
ATOM     23  C   UNL     1      -5.573   4.759 125.399  0.00  0.00    +0.000 C 
BRANCH  23  24
ATOM     24  C   UNL     1      -5.670   4.187 123.984  0.00  0.00    +0.000 A 
ATOM     25  C   UNL     1      -4.879   4.655 122.911  0.00  0.00    +0.000 A 
ATOM     26  C   UNL     1      -5.122   4.283 121.595  0.00  0.00    +0.000 A 
ATOM     27  C   UNL     1      -6.061   3.303 121.331  0.00  0.00    +0.000 A 
ATOM     28  C   UNL     1      -6.744   2.701 122.388  0.00  0.00    +0.000 A 
ATOM     29  C   UNL     1      -6.599   3.179 123.698  0.00  0.00    +0.000 A 
ENDBRANCH  23  24
ENDBRANCH  22  23
ENDBRANCH  21  22
ENDBRANCH   9  21
TORSDOF 6
ENDMDL
MODEL 5
REMARK VINA RESULT:      -7.5      3.303      4.798
REMARK  Name = Benzthiazide
REMARK  6 active torsions:
REMARK  status: ('A' for Active; 'I' for Inactive)
REMARK    1  A    between atoms: N_1  and  S_2
REMARK    2  A    between atoms: S_2  and  C_5
REMARK    3  A    between atoms: C_13  and  C_14
REMARK    4  A    between atoms: C_14  and  S_15
REMARK    5  A    between atoms: S_15  and  C_16
REMARK    6  A    between atoms: C_16  and  C_17
REMARK                            x       y       z     vdW  Elec       q    Type
REMARK                         _______ _______ _______ _____ _____    ______ ____
ROOT
ATOM      1  C   UNL     1     -11.069   7.386 129.988  0.00  0.00    +0.000 A 
ATOM      2  C   UNL     1      -9.702   7.144 129.886  0.00  0.00    +0.000 A 
ATOM      3  C   UNL     1      -9.033   6.525 130.944  0.00  0.00    +0.000 A 
ATOM      4  C   UNL     1      -9.656   6.120 132.120  0.00  0.00    +0.000 A 
ATOM      5  C   UNL     1     -11.031   6.375 132.202  0.00  0.00    +0.000 A 
ATOM      6  C   UNL     1     -11.736   7.013 131.157  0.00  0.00    +0.000 A 
ATOM      7 CL   UNL     1     -13.407   7.326 131.453  0.00  0.00    +0.000 Cl
ATOM      8  N   UNL     1      -9.027   5.482 133.215  0.00  0.00    +0.000 NA
ATOM      9  C   UNL     1      -7.756   5.238 133.213  0.00  0.00    +0.000 C 
ATOM     10  N   UNL     1      -6.918   5.585 132.149  0.00  0.00    +0.000 N 
ATOM     11  S   UNL     1      -7.340   6.248 130.732  0.00  0.00    +0.000 S 
ATOM     12  O   UNL     1      -7.185   5.243 129.711  0.00  0.00    +0.000 OA
ATOM     13  O   UNL     1      -6.687   7.539 130.651  0.00  0.00    +0.000 OA
ATOM     14  H   UNL     1      -5.931   5.327 132.213  0.00  0.00    +0.000 HD
ENDROOT
BRANCH   1  15
ATOM     15  S   UNL     1     -11.842   8.172 128.610  0.00  0.00    +0.000 S 
ATOM     16  O   UNL     1     -12.478   9.383 129.077  0.00  0.00    +0.000 OA
ATOM     17  O   UNL     1     -12.571   7.159 127.884  0.00  0.00    +0.000 OA
BRANCH  15  18
ATOM     18  N   UNL     1     -10.586   8.677 127.619  0.00  0.00    +0.000 NA
ATOM     19  H   UNL     1      -9.704   8.282 127.951  0.00  0.00    +0.000 HD
ATOM     20  H   UNL     1     -10.532   9.699 127.604  0.00  0.00    +0.000 HD
ENDBRANCH  15  18
ENDBRANCH   1  15
BRANCH   9  21
ATOM     21  C   UNL     1      -7.043   4.539 134.399  0.00  0.00    +0.000 C 
BRANCH  21  22
ATOM     22  S   UNL     1      -5.501   5.462 134.709  0.00  0.00    +0.000 S 
BRANCH  22  23
ATOM     23  C   UNL     1      -4.126   4.448 134.104  0.00  0.00    +0.000 C 
BRANCH  23  24
ATOM     24  C   UNL     1      -3.153   5.312 133.300  0.00  0.00    +0.000 A 
ATOM     25  C   UNL     1      -3.495   6.584 132.792  0.00  0.00    +0.000 A 
ATOM     26  C   UNL     1      -2.687   7.263 131.889  0.00  0.00    +0.000 A 
ATOM     27  C   UNL     1      -1.433   6.761 131.594  0.00  0.00    +0.000 A 
ATOM     28  C   UNL     1      -0.998   5.587 132.209  0.00  0.00    +0.000 A 
ATOM     29  C   UNL     1      -1.870   4.833 133.007  0.00  0.00    +0.000 A 
ENDBRANCH  23  24
ENDBRANCH  22  23
ENDBRANCH  21  22
ENDBRANCH   9  21
TORSDOF 6
ENDMDL
MODEL 6
REMARK VINA RESULT:      -7.4      5.927     10.469
REMARK  Name = Benzthiazide
REMARK  6 active torsions:
REMARK  status: ('A' for Active; 'I' for Inactive)
REMARK    1  A    between atoms: N_1  and  S_2
REMARK    2  A    between atoms: S_2  and  C_5
REMARK    3  A    between atoms: C_13  and  C_14
REMARK    4  A    between atoms: C_14  and  S_15
REMARK    5  A    between atoms: S_15  and  C_16
REMARK    6  A    between atoms: C_16  and  C_17
REMARK                            x       y       z     vdW  Elec       q    Type
REMARK                         _______ _______ _______ _____ _____    ______ ____
ROOT
ATOM      1  C   UNL     1      -8.571   4.978 131.278  0.00  0.00    +0.000 A 
ATOM      2  C   UNL     1      -7.226   5.238 131.035  0.00  0.00    +0.000 A 
ATOM      3  C   UNL     1      -6.656   4.833 129.826  0.00  0.00    +0.000 A 
ATOM      4  C   UNL     1      -7.361   4.177 128.822  0.00  0.00    +0.000 A 
ATOM      5  C   UNL     1      -8.712   3.924 129.089  0.00  0.00    +0.000 A 
ATOM      6  C   UNL     1      -9.316   4.306 130.307  0.00  0.00    +0.000 A 
ATOM      7 CL   UNL     1     -10.968   3.846 130.509  0.00  0.00    +0.000 Cl
ATOM      8  N   UNL     1      -6.833   3.756 127.578  0.00  0.00    +0.000 NA
ATOM      9  C   UNL     1      -5.587   3.937 127.278  0.00  0.00    +0.000 C 
ATOM     10  N   UNL     1      -4.679   4.549 128.146  0.00  0.00    +0.000 N 
ATOM     11  S   UNL     1      -4.984   5.206 129.596  0.00  0.00    +0.000 S 
ATOM     12  O   UNL     1      -4.867   6.636 129.465  0.00  0.00    +0.000 OA
ATOM     13  O   UNL     1      -4.224   4.455 130.575  0.00  0.00    +0.000 OA
ATOM     14  H   UNL     1      -3.720   4.684 127.819  0.00  0.00    +0.000 HD
ENDROOT
BRANCH   1  15
ATOM     15  S   UNL     1      -9.217   5.520 132.829  0.00  0.00    +0.000 S 
ATOM     16  O   UNL     1     -10.354   6.375 132.572  0.00  0.00    +0.000 OA
ATOM     17  O   UNL     1      -8.103   5.955 133.637  0.00  0.00    +0.000 OA
BRANCH  15  18
ATOM     18  N   UNL     1      -9.844   4.145 133.558  0.00  0.00    +0.000 NA
ATOM     19  H   UNL     1     -10.858   4.236 133.650  0.00  0.00    +0.000 HD
ATOM     20  H   UNL     1      -9.417   4.003 134.477  0.00  0.00    +0.000 HD
ENDBRANCH  15  18
ENDBRANCH   1  15
BRANCH   9  21
ATOM     21  C   UNL     1      -4.986   3.487 125.922  0.00  0.00    +0.000 C 
BRANCH  21  22
ATOM     22  S   UNL     1      -6.038   4.197 124.613  0.00  0.00    +0.000 S 
BRANCH  22  23
ATOM     23  C   UNL     1      -6.515   2.847 123.502  0.00  0.00    +0.000 C 
BRANCH  23  24
ATOM     24  C   UNL     1      -6.976   3.412 122.158  0.00  0.00    +0.000 A 
ATOM     25  C   UNL     1      -8.334   3.478 121.777  0.00  0.00    +0.000 A 
ATOM     26  C   UNL     1      -8.727   3.790 120.482  0.00  0.00    +0.000 A 
ATOM     27  C   UNL     1      -7.774   4.206 119.569  0.00  0.00    +0.000 A 
ATOM     28  C   UNL     1      -6.441   4.310 119.964  0.00  0.00    +0.000 A 
ATOM     29  C   UNL     1      -6.031   3.859 121.225  0.00  0.00    +0.000 A 
ENDBRANCH  23  24
ENDBRANCH  22  23
ENDBRANCH  21  22
ENDBRANCH   9  21
TORSDOF 6
ENDMDL
MODEL 7
REMARK VINA RESULT:      -7.3      7.157     11.042
REMARK  Name = Benzthiazide
REMARK  6 active torsions:
REMARK  status: ('A' for Active; 'I' for Inactive)
REMARK    1  A    between atoms: N_1  and  S_2
REMARK    2  A    between atoms: S_2  and  C_5
REMARK    3  A    between atoms: C_13  and  C_14
REMARK    4  A    between atoms: C_14  and  S_15
REMARK    5  A    between atoms: S_15  and  C_16
REMARK    6  A    between atoms: C_16  and  C_17
REMARK                            x       y       z     vdW  Elec       q    Type
REMARK                         _______ _______ _______ _____ _____    ______ ____
ROOT
ATOM      1  C   UNL     1      -8.825   4.485 131.079  0.00  0.00    +0.000 A 
ATOM      2  C   UNL     1      -8.369   4.706 129.783  0.00  0.00    +0.000 A 
ATOM      3  C   UNL     1      -8.138   3.615 128.941  0.00  0.00    +0.000 A 
ATOM      4  C   UNL     1      -8.341   2.292 129.319  0.00  0.00    +0.000 A 
ATOM      5  C   UNL     1      -8.798   2.093 130.628  0.00  0.00    +0.000 A 
ATOM      6  C   UNL     1      -9.028   3.172 131.510  0.00  0.00    +0.000 A 
ATOM      7 CL   UNL     1      -9.510   2.749 133.113  0.00  0.00    +0.000 Cl
ATOM      8  N   UNL     1      -8.131   1.156 128.503  0.00  0.00    +0.000 NA
ATOM      9  C   UNL     1      -7.688   1.267 127.292  0.00  0.00    +0.000 C 
ATOM     10  N   UNL     1      -7.382   2.499 126.706  0.00  0.00    +0.000 N 
ATOM     11  S   UNL     1      -7.586   3.976 127.343  0.00  0.00    +0.000 S 
ATOM     12  O   UNL     1      -8.669   4.614 126.639  0.00  0.00    +0.000 OA
ATOM     13  O   UNL     1      -6.274   4.580 127.453  0.00  0.00    +0.000 OA
ATOM     14  H   UNL     1      -7.069   2.503 125.733  0.00  0.00    +0.000 HD
ENDROOT
BRANCH   1  15
ATOM     15  S   UNL     1      -9.094   5.914 132.081  0.00  0.00    +0.000 S 
ATOM     16  O   UNL     1      -9.139   7.071 131.216  0.00  0.00    +0.000 OA
ATOM     17  O   UNL     1      -8.190   5.834 133.203  0.00  0.00    +0.000 OA
BRANCH  15  18
ATOM     18  N   UNL     1     -10.648   5.747 132.691  0.00  0.00    +0.000 NA
ATOM     19  H   UNL     1     -11.124   6.651 132.675  0.00  0.00    +0.000 HD
ATOM     20  H   UNL     1     -10.619   5.380 133.646  0.00  0.00    +0.000 HD
ENDBRANCH  15  18
ENDBRANCH   1  15
BRANCH   9  21
ATOM     21  C   UNL     1      -7.451   0.038 126.377  0.00  0.00    +0.000 C 
BRANCH  21  22
ATOM     22  S   UNL     1      -8.678   0.134 125.032  0.00  0.00    +0.000 S 
BRANCH  22  23
ATOM     23  C   UNL     1      -8.948  -1.550 124.417  0.00  0.00    +0.000 C 
BRANCH  23  24
ATOM     24  C   UNL     1      -7.631  -2.142 123.915  0.00  0.00    +0.000 A 
ATOM     25  C   UNL     1      -7.008  -3.254 124.523  0.00  0.00    +0.000 A 
ATOM     26  C   UNL     1      -5.717  -3.650 124.198  0.00  0.00    +0.000 A 
ATOM     27  C   UNL     1      -5.071  -3.042 123.136  0.00  0.00    +0.000 A 
ATOM     28  C   UNL     1      -5.726  -2.050 122.408  0.00  0.00    +0.000 A 
ATOM     29  C   UNL     1      -6.969  -1.557 122.828  0.00  0.00    +0.000 A 
ENDBRANCH  23  24
ENDBRANCH  22  23
ENDBRANCH  21  22
ENDBRANCH   9  21
TORSDOF 6
ENDMDL
MODEL 8
REMARK VINA RESULT:      -7.3      3.745      4.921
REMARK  Name = Benzthiazide
REMARK  6 active torsions:
REMARK  status: ('A' for Active; 'I' for Inactive)
REMARK    1  A    between atoms: N_1  and  S_2
REMARK    2  A    between atoms: S_2  and  C_5
REMARK    3  A    between atoms: C_13  and  C_14
REMARK    4  A    between atoms: C_14  and  S_15
REMARK    5  A    between atoms: S_15  and  C_16
REMARK    6  A    between atoms: C_16  and  C_17
REMARK                            x       y       z     vdW  Elec       q    Type
REMARK                         _______ _______ _______ _____ _____    ______ ____
ROOT
ATOM      1  C   UNL     1     -11.332   6.626 129.731  0.00  0.00    +0.000 A 
ATOM      2  C   UNL     1     -10.175   5.902 129.465  0.00  0.00    +0.000 A 
ATOM      3  C   UNL     1      -9.417   5.404 130.527  0.00  0.00    +0.000 A 
ATOM      4  C   UNL     1      -9.751   5.584 131.865  0.00  0.00    +0.000 A 
ATOM      5  C   UNL     1     -10.918   6.319 132.110  0.00  0.00    +0.000 A 
ATOM      6  C   UNL     1     -11.700   6.849 131.060  0.00  0.00    +0.000 A 
ATOM      7 CL   UNL     1     -13.061   7.799 131.536  0.00  0.00    +0.000 Cl
ATOM      8  N   UNL     1      -9.024   5.094 132.975  0.00  0.00    +0.000 NA
ATOM      9  C   UNL     1      -7.924   4.428 132.820  0.00  0.00    +0.000 C 
ATOM     10  N   UNL     1      -7.376   4.150 131.565  0.00  0.00    +0.000 N 
ATOM     11  S   UNL     1      -8.002   4.502 130.111  0.00  0.00    +0.000 S 
ATOM     12  O   UNL     1      -8.431   3.266 129.506  0.00  0.00    +0.000 OA
ATOM     13  O   UNL     1      -7.078   5.404 129.454  0.00  0.00    +0.000 OA
ATOM     14  H   UNL     1      -6.522   3.589 131.528  0.00  0.00    +0.000 HD
ENDROOT
BRANCH   1  15
ATOM     15  S   UNL     1     -12.236   7.222 128.336  0.00  0.00    +0.000 S 
ATOM     16  O   UNL     1     -13.638   6.954 128.558  0.00  0.00    +0.000 OA
ATOM     17  O   UNL     1     -11.551   6.769 127.149  0.00  0.00    +0.000 OA
BRANCH  15  18
ATOM     18  N   UNL     1     -12.083   8.892 128.383  0.00  0.00    +0.000 NA
ATOM     19  H   UNL     1     -11.523   9.210 127.590  0.00  0.00    +0.000 HD
ATOM     20  H   UNL     1     -11.648   9.185 129.263  0.00  0.00    +0.000 HD
ENDBRANCH  15  18
ENDBRANCH   1  15
BRANCH   9  21
ATOM     21  C   UNL     1      -7.110   3.878 134.019  0.00  0.00    +0.000 C 
BRANCH  21  22
ATOM     22  S   UNL     1      -5.774   5.075 134.346  0.00  0.00    +0.000 S 
BRANCH  22  23
ATOM     23  C   UNL     1      -4.291   4.489 133.485  0.00  0.00    +0.000 C 
BRANCH  23  24
ATOM     24  C   UNL     1      -3.880   5.492 132.406  0.00  0.00    +0.000 A 
ATOM     25  C   UNL     1      -4.710   6.558 131.994  0.00  0.00    +0.000 A 
ATOM     26  C   UNL     1      -4.424   7.329 130.874  0.00  0.00    +0.000 A 
ATOM     27  C   UNL     1      -3.212   7.161 130.229  0.00  0.00    +0.000 A 
ATOM     28  C   UNL     1      -2.297   6.226 130.714  0.00  0.00    +0.000 A 
ATOM     29  C   UNL     1      -2.649   5.354 131.754  0.00  0.00    +0.000 A 
ENDBRANCH  23  24
ENDBRANCH  22  23
ENDBRANCH  21  22
ENDBRANCH   9  21
TORSDOF 6
ENDMDL
MODEL 9
REMARK VINA RESULT:      -7.3      6.696      8.585
REMARK  Name = Benzthiazide
REMARK  6 active torsions:
REMARK  status: ('A' for Active; 'I' for Inactive)
REMARK    1  A    between atoms: N_1  and  S_2
REMARK    2  A    between atoms: S_2  and  C_5
REMARK    3  A    between atoms: C_13  and  C_14
REMARK    4  A    between atoms: C_14  and  S_15
REMARK    5  A    between atoms: S_15  and  C_16
REMARK    6  A    between atoms: C_16  and  C_17
REMARK                            x       y       z     vdW  Elec       q    Type
REMARK                         _______ _______ _______ _____ _____    ______ ____
ROOT
ATOM      1  C   UNL     1      -8.120  -1.335 125.536  0.00  0.00    +0.000 A 
ATOM      2  C   UNL     1      -8.075  -0.012 125.108  0.00  0.00    +0.000 A 
ATOM      3  C   UNL     1      -7.936   1.010 126.050  0.00  0.00    +0.000 A 
ATOM      4  C   UNL     1      -7.831   0.789 127.419  0.00  0.00    +0.000 A 
ATOM      5  C   UNL     1      -7.881  -0.549 127.827  0.00  0.00    +0.000 A 
ATOM      6  C   UNL     1      -8.037  -1.606 126.903  0.00  0.00    +0.000 A 
ATOM      7 CL   UNL     1      -8.161  -3.190 127.580  0.00  0.00    +0.000 Cl
ATOM      8  N   UNL     1      -7.680   1.787 128.410  0.00  0.00    +0.000 NA
ATOM      9  C   UNL     1      -7.651   3.044 128.104  0.00  0.00    +0.000 C 
ATOM     10  N   UNL     1      -7.769   3.508 126.790  0.00  0.00    +0.000 N 
ATOM     11  S   UNL     1      -7.875   2.625 125.434  0.00  0.00    +0.000 S 
ATOM     12  O   UNL     1      -6.636   2.773 124.714  0.00  0.00    +0.000 OA
ATOM     13  O   UNL     1      -9.159   2.918 124.831  0.00  0.00    +0.000 OA
ATOM     14  H   UNL     1      -7.702   4.515 126.629  0.00  0.00    +0.000 HD
ENDROOT
BRANCH   1  15
ATOM     15  S   UNL     1      -8.297  -2.569 124.286  0.00  0.00    +0.000 S 
ATOM     16  O   UNL     1      -9.645  -3.086 124.349  0.00  0.00    +0.000 OA
ATOM     17  O   UNL     1      -7.145  -3.434 124.362  0.00  0.00    +0.000 OA
BRANCH  15  18
ATOM     18  N   UNL     1      -8.198  -1.747 122.827  0.00  0.00    +0.000 NA
ATOM     19  H   UNL     1      -9.132  -1.642 122.426  0.00  0.00    +0.000 HD
ATOM     20  H   UNL     1      -7.588  -2.249 122.176  0.00  0.00    +0.000 HD
ENDBRANCH  15  18
ENDBRANCH   1  15
BRANCH   9  21
ATOM     21  C   UNL     1      -7.484   4.156 129.171  0.00  0.00    +0.000 C 
BRANCH  21  22
ATOM     22  S   UNL     1      -8.974   4.113 130.219  0.00  0.00    +0.000 S 
BRANCH  22  23
ATOM     23  C   UNL     1      -8.957   5.599 131.256  0.00  0.00    +0.000 C 
BRANCH  23  24
ATOM     24  C   UNL     1     -10.178   6.467 130.949  0.00  0.00    +0.000 A 
ATOM     25  C   UNL     1     -11.342   6.465 131.749  0.00  0.00    +0.000 A 
ATOM     26  C   UNL     1     -12.517   7.087 131.349  0.00  0.00    +0.000 A 
ATOM     27  C   UNL     1     -12.513   7.871 130.209  0.00  0.00    +0.000 A 
ATOM     28  C   UNL     1     -11.331   8.028 129.485  0.00  0.00    +0.000 A 
ATOM     29  C   UNL     1     -10.188   7.285 129.813  0.00  0.00    +0.000 A 
ENDBRANCH  23  24
ENDBRANCH  22  23
ENDBRANCH  21  22
ENDBRANCH   9  21
TORSDOF 6
ENDMDL
