MODEL 1
REMARK VINA RESULT:      -7.7      0.000      0.000
REMARK  Name = Benzylpenicillin
REMARK  7 active torsions:
REMARK  status: ('A' for Active; 'I' for Inactive)
REMARK    1  A    between atoms: C_4  and  C_5
REMARK    2  A    between atoms: C_4  and  C_6
REMARK    3  A    between atoms: CA_7  and  C_22
REMARK    4  A    between atoms: CA_11  and  N_12
REMARK    5  A    between atoms: C_13  and  C_15
REMARK    6  A    between atoms: C_15  and  C_16
REMARK    7  A    between atoms: C_22  and  O_23
REMARK                            x       y       z     vdW  Elec       q    Type
REMARK                         _______ _______ _______ _____ _____    ______ ____
ROOT
ATOM      1  C   UNL     1      -8.661   1.719 125.881  0.00  0.00    +0.000 C 
ATOM      2  S   UNL     1      -6.994   1.038 126.192  0.00  0.00    +0.000 S 
ATOM      3  C   UNL     1      -6.293   2.767 126.358  0.00  0.00    +0.000 C 
ATOM      4  C   UNL     1      -4.793   2.658 126.066  0.00  0.00    +0.000 C 
ATOM      5  C   UNL     1      -6.581   3.182 127.813  0.00  0.00    +0.000 C 
ATOM      6  CA  UNL     1      -7.045   3.574 125.274  0.00  0.00    +0.000 C 
ATOM      7  N   UNL     1      -8.407   3.003 125.202  0.00  0.00    +0.000 N 
ATOM      8  C   UNL     1      -8.928   2.565 124.007  0.00  0.00    +0.000 C 
ATOM      9  O   UNL     1      -8.819   3.022 122.886  0.00  0.00    +0.000 OA
ATOM     10  CA  UNL     1      -9.428   1.235 124.642  0.00  0.00    +0.000 C 
ENDROOT
BRANCH  10  11
ATOM     11  N   UNL     1      -8.979  -0.043 124.001  0.00  0.00    +0.000 N 
ATOM     12  C   UNL     1      -9.666  -0.519 122.903  0.00  0.00    +0.000 C 
ATOM     13  O   UNL     1     -10.649   0.082 122.474  0.00  0.00    +0.000 OA
ATOM     14  H   UNL     1      -8.181  -0.551 124.367  0.00  0.00    +0.000 HD
BRANCH  12  15
ATOM     15  C   UNL     1      -9.149  -1.832 122.314  0.00  0.00    +0.000 C 
BRANCH  15  16
ATOM     16  C   UNL     1      -7.898  -2.301 123.027  0.00  0.00    +0.000 A 
ATOM     17  C   UNL     1      -6.635  -1.882 122.586  0.00  0.00    +0.000 A 
ATOM     18  C   UNL     1      -5.482  -2.503 123.069  0.00  0.00    +0.000 A 
ATOM     19  C   UNL     1      -5.573  -3.475 124.063  0.00  0.00    +0.000 A 
ATOM     20  C   UNL     1      -6.822  -3.869 124.537  0.00  0.00    +0.000 A 
ATOM     21  C   UNL     1      -7.980  -3.293 124.015  0.00  0.00    +0.000 A 
ENDBRANCH  15  16
ENDBRANCH  12  15
ENDBRANCH  10  11
BRANCH   6  22
ATOM     22  C   UNL     1      -7.092   5.120 125.373  0.00  0.00    +0.000 C 
ATOM     23  OXT UNL     1      -6.082   5.813 125.377  0.00  0.00    +0.000 OA
BRANCH  22  24
ATOM     24  O   UNL     1      -8.286   5.737 125.491  0.00  0.00    +0.000 OA
ATOM     25  H   UNL     1      -8.985   5.374 126.054  0.00  0.00    +0.000 HD
ENDBRANCH  22  24
ENDBRANCH   6  22
TORSDOF 5
ENDMDL
MODEL 2
REMARK VINA RESULT:      -7.7      3.512      6.634
REMARK  Name = Benzylpenicillin
REMARK  7 active torsions:
REMARK  status: ('A' for Active; 'I' for Inactive)
REMARK    1  A    between atoms: C_4  and  C_5
REMARK    2  A    between atoms: C_4  and  C_6
REMARK    3  A    between atoms: CA_7  and  C_22
REMARK    4  A    between atoms: CA_11  and  N_12
REMARK    5  A    between atoms: C_13  and  C_15
REMARK    6  A    between atoms: C_15  and  C_16
REMARK    7  A    between atoms: C_22  and  O_23
REMARK                            x       y       z     vdW  Elec       q    Type
REMARK                         _______ _______ _______ _____ _____    ______ ____
ROOT
ATOM      1  C   UNL     1      -8.931  -0.411 123.564  0.00  0.00    +0.000 C 
ATOM      2  S   UNL     1      -7.544  -1.380 122.872  0.00  0.00    +0.000 S 
ATOM      3  C   UNL     1      -7.952  -2.817 124.002  0.00  0.00    +0.000 C 
ATOM      4  C   UNL     1      -6.668  -3.640 124.140  0.00  0.00    +0.000 C 
ATOM      5  C   UNL     1      -9.074  -3.590 123.284  0.00  0.00    +0.000 C 
ATOM      6  CA  UNL     1      -8.357  -2.135 125.330  0.00  0.00    +0.000 C 
ATOM      7  N   UNL     1      -9.035  -0.874 124.960  0.00  0.00    +0.000 N 
ATOM      8  C   UNL     1      -8.617   0.330 125.473  0.00  0.00    +0.000 C 
ATOM      9  O   UNL     1      -8.209   0.615 126.583  0.00  0.00    +0.000 OA
ATOM     10  CA  UNL     1      -8.647   1.009 124.073  0.00  0.00    +0.000 C 
ENDROOT
BRANCH  10  11
ATOM     11  N   UNL     1      -7.390   1.677 123.606  0.00  0.00    +0.000 N 
ATOM     12  C   UNL     1      -7.331   3.056 123.587  0.00  0.00    +0.000 C 
ATOM     13  O   UNL     1      -8.306   3.726 123.923  0.00  0.00    +0.000 OA
ATOM     14  H   UNL     1      -6.592   1.126 123.309  0.00  0.00    +0.000 HD
BRANCH  12  15
ATOM     15  C   UNL     1      -6.016   3.658 123.090  0.00  0.00    +0.000 C 
BRANCH  15  16
ATOM     16  C   UNL     1      -6.088   3.996 121.616  0.00  0.00    +0.000 A 
ATOM     17  C   UNL     1      -5.072   4.752 121.015  0.00  0.00    +0.000 A 
ATOM     18  C   UNL     1      -5.253   5.280 119.736  0.00  0.00    +0.000 A 
ATOM     19  C   UNL     1      -6.404   4.978 119.009  0.00  0.00    +0.000 A 
ATOM     20  C   UNL     1      -7.402   4.194 119.584  0.00  0.00    +0.000 A 
ATOM     21  C   UNL     1      -7.250   3.713 120.884  0.00  0.00    +0.000 A 
ENDBRANCH  15  16
ENDBRANCH  12  15
ENDBRANCH  10  11
BRANCH   6  22
ATOM     22  C   UNL     1      -9.188  -2.930 126.370  0.00  0.00    +0.000 C 
ATOM     23  OXT UNL     1      -8.686  -3.444 127.363  0.00  0.00    +0.000 OA
BRANCH  22  24
ATOM     24  O   UNL     1     -10.511  -3.094 126.170  0.00  0.00    +0.000 OA
ATOM     25  H   UNL     1     -11.101  -2.334 126.061  0.00  0.00    +0.000 HD
ENDBRANCH  22  24
ENDBRANCH   6  22
TORSDOF 5
ENDMDL
MODEL 3
REMARK VINA RESULT:      -7.4      3.729      5.528
REMARK  Name = Benzylpenicillin
REMARK  7 active torsions:
REMARK  status: ('A' for Active; 'I' for Inactive)
REMARK    1  A    between atoms: C_4  and  C_5
REMARK    2  A    between atoms: C_4  and  C_6
REMARK    3  A    between atoms: CA_7  and  C_22
REMARK    4  A    between atoms: CA_11  and  N_12
REMARK    5  A    between atoms: C_13  and  C_15
REMARK    6  A    between atoms: C_15  and  C_16
REMARK    7  A    between atoms: C_22  and  O_23
REMARK                            x       y       z     vdW  Elec       q    Type
REMARK                         _______ _______ _______ _____ _____    ______ ____
ROOT
ATOM      1  C   UNL     1      -6.059   2.681 126.724  0.00  0.00    +0.000 C 
ATOM      2  S   UNL     1      -4.400   1.998 126.374  0.00  0.00    +0.000 S 
ATOM      3  C   UNL     1      -3.648   3.077 127.707  0.00  0.00    +0.000 C 
ATOM      4  C   UNL     1      -2.163   3.224 127.361  0.00  0.00    +0.000 C 
ATOM      5  C   UNL     1      -3.873   2.309 129.023  0.00  0.00    +0.000 C 
ATOM      6  CA  UNL     1      -4.417   4.413 127.576  0.00  0.00    +0.000 C 
ATOM      7  N   UNL     1      -5.796   4.061 127.173  0.00  0.00    +0.000 N 
ATOM      8  C   UNL     1      -6.370   4.618 126.055  0.00  0.00    +0.000 C 
ATOM      9  O   UNL     1      -6.289   5.744 125.606  0.00  0.00    +0.000 OA
ATOM     10  CA  UNL     1      -6.882   3.236 125.553  0.00  0.00    +0.000 C 
ENDROOT
BRANCH  10  11
ATOM     11  N   UNL     1      -6.490   2.820 124.169  0.00  0.00    +0.000 N 
ATOM     12  C   UNL     1      -7.396   2.980 123.140  0.00  0.00    +0.000 C 
ATOM     13  O   UNL     1      -8.518   3.432 123.362  0.00  0.00    +0.000 OA
ATOM     14  H   UNL     1      -5.573   2.428 123.987  0.00  0.00    +0.000 HD
BRANCH  12  15
ATOM     15  C   UNL     1      -6.921   2.523 121.760  0.00  0.00    +0.000 C 
BRANCH  15  16
ATOM     16  C   UNL     1      -6.573   3.705 120.878  0.00  0.00    +0.000 A 
ATOM     17  C   UNL     1      -7.357   4.003 119.756  0.00  0.00    +0.000 A 
ATOM     18  C   UNL     1      -6.903   4.920 118.806  0.00  0.00    +0.000 A 
ATOM     19  C   UNL     1      -5.714   5.616 119.017  0.00  0.00    +0.000 A 
ATOM     20  C   UNL     1      -4.948   5.355 120.151  0.00  0.00    +0.000 A 
ATOM     21  C   UNL     1      -5.369   4.397 121.072  0.00  0.00    +0.000 A 
ENDBRANCH  15  16
ENDBRANCH  12  15
ENDBRANCH  10  11
BRANCH   6  22
ATOM     22  C   UNL     1      -4.419   5.408 128.763  0.00  0.00    +0.000 C 
ATOM     23  OXT UNL     1      -3.399   5.945 129.178  0.00  0.00    +0.000 OA
BRANCH  22  24
ATOM     24  O   UNL     1      -5.581   5.681 129.392  0.00  0.00    +0.000 OA
ATOM     25  H   UNL     1      -6.080   4.987 129.849  0.00  0.00    +0.000 HD
ENDBRANCH  22  24
ENDBRANCH   6  22
TORSDOF 5
ENDMDL
MODEL 4
REMARK VINA RESULT:      -7.4      3.441      6.051
REMARK  Name = Benzylpenicillin
REMARK  7 active torsions:
REMARK  status: ('A' for Active; 'I' for Inactive)
REMARK    1  A    between atoms: C_4  and  C_5
REMARK    2  A    between atoms: C_4  and  C_6
REMARK    3  A    between atoms: CA_7  and  C_22
REMARK    4  A    between atoms: CA_11  and  N_12
REMARK    5  A    between atoms: C_13  and  C_15
REMARK    6  A    between atoms: C_15  and  C_16
REMARK    7  A    between atoms: C_22  and  O_23
REMARK                            x       y       z     vdW  Elec       q    Type
REMARK                         _______ _______ _______ _____ _____    ______ ____
ROOT
ATOM      1  C   UNL     1      -8.880  -1.189 124.561  0.00  0.00    +0.000 C 
ATOM      2  S   UNL     1      -7.868  -1.926 123.228  0.00  0.00    +0.000 S 
ATOM      3  C   UNL     1      -6.835  -2.847 124.489  0.00  0.00    +0.000 C 
ATOM      4  C   UNL     1      -5.496  -3.156 123.812  0.00  0.00    +0.000 C 
ATOM      5  C   UNL     1      -7.638  -4.120 124.816  0.00  0.00    +0.000 C 
ATOM      6  CA  UNL     1      -6.685  -1.837 125.651  0.00  0.00    +0.000 C 
ATOM      7  N   UNL     1      -7.948  -1.069 125.698  0.00  0.00    +0.000 N 
ATOM      8  C   UNL     1      -7.943   0.305 125.650  0.00  0.00    +0.000 C 
ATOM      9  O   UNL     1      -7.176   1.107 126.146  0.00  0.00    +0.000 OA
ATOM     10  CA  UNL     1      -9.069   0.334 124.576  0.00  0.00    +0.000 C 
ENDROOT
BRANCH  10  11
ATOM     11  N   UNL     1      -8.790   1.083 123.309  0.00  0.00    +0.000 N 
ATOM     12  C   UNL     1      -8.904   2.459 123.305  0.00  0.00    +0.000 C 
ATOM     13  O   UNL     1      -9.255   3.058 124.319  0.00  0.00    +0.000 OA
ATOM     14  H   UNL     1      -8.521   0.589 122.465  0.00  0.00    +0.000 HD
BRANCH  12  15
ATOM     15  C   UNL     1      -8.611   3.145 121.970  0.00  0.00    +0.000 C 
BRANCH  15  16
ATOM     16  C   UNL     1      -7.153   3.541 121.863  0.00  0.00    +0.000 A 
ATOM     17  C   UNL     1      -6.392   3.753 123.021  0.00  0.00    +0.000 A 
ATOM     18  C   UNL     1      -5.137   4.359 122.935  0.00  0.00    +0.000 A 
ATOM     19  C   UNL     1      -4.592   4.668 121.690  0.00  0.00    +0.000 A 
ATOM     20  C   UNL     1      -5.325   4.424 120.531  0.00  0.00    +0.000 A 
ATOM     21  C   UNL     1      -6.604   3.873 120.616  0.00  0.00    +0.000 A 
ENDBRANCH  15  16
ENDBRANCH  12  15
ENDBRANCH  10  11
BRANCH   6  22
ATOM     22  C   UNL     1      -6.293  -2.351 127.059  0.00  0.00    +0.000 C 
ATOM     23  OXT UNL     1      -5.127  -2.515 127.401  0.00  0.00    +0.000 OA
BRANCH  22  24
ATOM     24  O   UNL     1      -7.263  -2.661 127.942  0.00  0.00    +0.000 OA
ATOM     25  H   UNL     1      -8.026  -3.200 127.683  0.00  0.00    +0.000 HD
ENDBRANCH  22  24
ENDBRANCH   6  22
TORSDOF 5
ENDMDL
MODEL 5
REMARK VINA RESULT:      -7.2      2.349      3.464
REMARK  Name = Benzylpenicillin
REMARK  7 active torsions:
REMARK  status: ('A' for Active; 'I' for Inactive)
REMARK    1  A    between atoms: C_4  and  C_5
REMARK    2  A    between atoms: C_4  and  C_6
REMARK    3  A    between atoms: CA_7  and  C_22
REMARK    4  A    between atoms: CA_11  and  N_12
REMARK    5  A    between atoms: C_13  and  C_15
REMARK    6  A    between atoms: C_15  and  C_16
REMARK    7  A    between atoms: C_22  and  O_23
REMARK                            x       y       z     vdW  Elec       q    Type
REMARK                         _______ _______ _______ _____ _____    ______ ____
ROOT
ATOM      1  C   UNL     1      -5.946   3.085 126.939  0.00  0.00    +0.000 C 
ATOM      2  S   UNL     1      -4.506   2.064 126.462  0.00  0.00    +0.000 S 
ATOM      3  C   UNL     1      -3.341   3.292 127.262  0.00  0.00    +0.000 C 
ATOM      4  C   UNL     1      -1.976   3.095 126.596  0.00  0.00    +0.000 C 
ATOM      5  C   UNL     1      -3.325   2.919 128.757  0.00  0.00    +0.000 C 
ATOM      6  CA  UNL     1      -3.965   4.666 126.925  0.00  0.00    +0.000 C 
ATOM      7  N   UNL     1      -5.431   4.467 126.924  0.00  0.00    +0.000 N 
ATOM      8  C   UNL     1      -6.192   4.824 125.837  0.00  0.00    +0.000 C 
ATOM      9  O   UNL     1      -6.097   5.776 125.087  0.00  0.00    +0.000 OA
ATOM     10  CA  UNL     1      -6.960   3.470 125.853  0.00  0.00    +0.000 C 
ENDROOT
BRANCH  10  11
ATOM     11  N   UNL     1      -6.962   2.667 124.587  0.00  0.00    +0.000 N 
ATOM     12  C   UNL     1      -7.868   1.635 124.450  0.00  0.00    +0.000 C 
ATOM     13  O   UNL     1      -8.644   1.362 125.364  0.00  0.00    +0.000 OA
ATOM     14  H   UNL     1      -6.309   2.879 123.841  0.00  0.00    +0.000 HD
BRANCH  12  15
ATOM     15  C   UNL     1      -7.799   0.862 123.133  0.00  0.00    +0.000 C 
BRANCH  15  16
ATOM     16  C   UNL     1      -7.771  -0.633 123.373  0.00  0.00    +0.000 A 
ATOM     17  C   UNL     1      -8.903  -1.413 123.101  0.00  0.00    +0.000 A 
ATOM     18  C   UNL     1      -8.973  -2.732 123.554  0.00  0.00    +0.000 A 
ATOM     19  C   UNL     1      -7.878  -3.311 124.194  0.00  0.00    +0.000 A 
ATOM     20  C   UNL     1      -6.733  -2.555 124.433  0.00  0.00    +0.000 A 
ATOM     21  C   UNL     1      -6.682  -1.220 124.034  0.00  0.00    +0.000 A 
ENDBRANCH  15  16
ENDBRANCH  12  15
ENDBRANCH  10  11
BRANCH   6  22
ATOM     22  C   UNL     1      -3.572   5.907 127.765  0.00  0.00    +0.000 C 
ATOM     23  OXT UNL     1      -4.401   6.633 128.301  0.00  0.00    +0.000 OA
BRANCH  22  24
ATOM     24  O   UNL     1      -2.268   6.229 127.896  0.00  0.00    +0.000 OA
ATOM     25  H   UNL     1      -1.902   7.022 127.476  0.00  0.00    +0.000 HD
ENDBRANCH  22  24
ENDBRANCH   6  22
TORSDOF 5
ENDMDL
MODEL 6
REMARK VINA RESULT:      -7.2      7.914     10.241
REMARK  Name = Benzylpenicillin
REMARK  7 active torsions:
REMARK  status: ('A' for Active; 'I' for Inactive)
REMARK    1  A    between atoms: C_4  and  C_5
REMARK    2  A    between atoms: C_4  and  C_6
REMARK    3  A    between atoms: CA_7  and  C_22
REMARK    4  A    between atoms: CA_11  and  N_12
REMARK    5  A    between atoms: C_13  and  C_15
REMARK    6  A    between atoms: C_15  and  C_16
REMARK    7  A    between atoms: C_22  and  O_23
REMARK                            x       y       z     vdW  Elec       q    Type
REMARK                         _______ _______ _______ _____ _____    ______ ____
ROOT
ATOM      1  C   UNL     1     -11.308   5.055 130.271  0.00  0.00    +0.000 C 
ATOM      2  S   UNL     1     -12.225   6.402 131.099  0.00  0.00    +0.000 S 
ATOM      3  C   UNL     1     -12.267   7.385 129.506  0.00  0.00    +0.000 C 
ATOM      4  C   UNL     1     -12.462   8.851 129.904  0.00  0.00    +0.000 C 
ATOM      5  C   UNL     1     -13.466   6.824 128.717  0.00  0.00    +0.000 C 
ATOM      6  CA  UNL     1     -10.877   7.127 128.877  0.00  0.00    +0.000 C 
ATOM      7  N   UNL     1     -10.509   5.741 129.239  0.00  0.00    +0.000 N 
ATOM      8  C   UNL     1      -9.318   5.467 129.867  0.00  0.00    +0.000 C 
ATOM      9  O   UNL     1      -8.216   5.956 129.713  0.00  0.00    +0.000 OA
ATOM     10  CA  UNL     1     -10.010   4.550 130.917  0.00  0.00    +0.000 C 
ENDROOT
BRANCH  10  11
ATOM     11  N   UNL     1      -9.783   4.870 132.363  0.00  0.00    +0.000 N 
ATOM     12  C   UNL     1      -9.041   3.997 133.133  0.00  0.00    +0.000 C 
ATOM     13  O   UNL     1      -8.595   2.960 132.646  0.00  0.00    +0.000 OA
ATOM     14  H   UNL     1     -10.167   5.715 132.772  0.00  0.00    +0.000 HD
BRANCH  12  15
ATOM     15  C   UNL     1      -8.862   4.393 134.600  0.00  0.00    +0.000 C 
BRANCH  15  16
ATOM     16  C   UNL     1      -7.601   5.206 134.802  0.00  0.00    +0.000 A 
ATOM     17  C   UNL     1      -6.683   5.358 133.753  0.00  0.00    +0.000 A 
ATOM     18  C   UNL     1      -5.414   5.883 134.002  0.00  0.00    +0.000 A 
ATOM     19  C   UNL     1      -5.085   6.348 135.274  0.00  0.00    +0.000 A 
ATOM     20  C   UNL     1      -6.006   6.238 136.314  0.00  0.00    +0.000 A 
ATOM     21  C   UNL     1      -7.254   5.661 136.082  0.00  0.00    +0.000 A 
ENDBRANCH  15  16
ENDBRANCH  12  15
ENDBRANCH  10  11
BRANCH   6  22
ATOM     22  C   UNL     1     -10.668   7.383 127.364  0.00  0.00    +0.000 C 
ATOM     23  OXT UNL     1     -10.304   6.505 126.589  0.00  0.00    +0.000 OA
BRANCH  22  24
ATOM     24  O   UNL     1     -10.862   8.623 126.871  0.00  0.00    +0.000 OA
ATOM     25  H   UNL     1     -10.312   8.971 126.154  0.00  0.00    +0.000 HD
ENDBRANCH  22  24
ENDBRANCH   6  22
TORSDOF 5
ENDMDL
MODEL 7
REMARK VINA RESULT:      -7.1      2.426      6.564
REMARK  Name = Benzylpenicillin
REMARK  7 active torsions:
REMARK  status: ('A' for Active; 'I' for Inactive)
REMARK    1  A    between atoms: C_4  and  C_5
REMARK    2  A    between atoms: C_4  and  C_6
REMARK    3  A    between atoms: CA_7  and  C_22
REMARK    4  A    between atoms: CA_11  and  N_12
REMARK    5  A    between atoms: C_13  and  C_15
REMARK    6  A    between atoms: C_15  and  C_16
REMARK    7  A    between atoms: C_22  and  O_23
REMARK                            x       y       z     vdW  Elec       q    Type
REMARK                         _______ _______ _______ _____ _____    ______ ____
ROOT
ATOM      1  C   UNL     1      -8.699   0.609 124.133  0.00  0.00    +0.000 C 
ATOM      2  S   UNL     1      -7.116   0.060 123.401  0.00  0.00    +0.000 S 
ATOM      3  C   UNL     1      -7.452  -1.702 123.938  0.00  0.00    +0.000 C 
ATOM      4  C   UNL     1      -6.091  -2.401 124.010  0.00  0.00    +0.000 C 
ATOM      5  C   UNL     1      -8.359  -2.292 122.842  0.00  0.00    +0.000 C 
ATOM      6  CA  UNL     1      -8.106  -1.545 125.330  0.00  0.00    +0.000 C 
ATOM      7  N   UNL     1      -8.904  -0.300 125.276  0.00  0.00    +0.000 N 
ATOM      8  C   UNL     1      -8.724   0.697 126.204  0.00  0.00    +0.000 C 
ATOM      9  O   UNL     1      -8.497   0.631 127.396  0.00  0.00    +0.000 OA
ATOM     10  CA  UNL     1      -8.681   1.798 125.105  0.00  0.00    +0.000 C 
ENDROOT
BRANCH  10  11
ATOM     11  N   UNL     1      -7.483   2.697 125.081  0.00  0.00    +0.000 N 
ATOM     12  C   UNL     1      -7.653   4.046 125.319  0.00  0.00    +0.000 C 
ATOM     13  O   UNL     1      -8.775   4.507 125.521  0.00  0.00    +0.000 OA
ATOM     14  H   UNL     1      -6.559   2.322 124.895  0.00  0.00    +0.000 HD
BRANCH  12  15
ATOM     15  C   UNL     1      -6.382   4.895 125.269  0.00  0.00    +0.000 C 
BRANCH  15  16
ATOM     16  C   UNL     1      -5.310   4.335 126.180  0.00  0.00    +0.000 A 
ATOM     17  C   UNL     1      -5.439   4.441 127.571  0.00  0.00    +0.000 A 
ATOM     18  C   UNL     1      -4.352   4.162 128.400  0.00  0.00    +0.000 A 
ATOM     19  C   UNL     1      -3.160   3.684 127.857  0.00  0.00    +0.000 A 
ATOM     20  C   UNL     1      -3.036   3.537 126.477  0.00  0.00    +0.000 A 
ATOM     21  C   UNL     1      -4.101   3.871 125.641  0.00  0.00    +0.000 A 
ENDBRANCH  15  16
ENDBRANCH  12  15
ENDBRANCH  10  11
BRANCH   6  22
ATOM     22  C   UNL     1      -8.936  -2.714 125.917  0.00  0.00    +0.000 C 
ATOM     23  OXT UNL     1      -8.440  -3.590 126.617  0.00  0.00    +0.000 OA
BRANCH  22  24
ATOM     24  O   UNL     1     -10.251  -2.800 125.630  0.00  0.00    +0.000 OA
ATOM     25  H   UNL     1     -10.575  -2.691 124.723  0.00  0.00    +0.000 HD
ENDBRANCH  22  24
ENDBRANCH   6  22
TORSDOF 5
ENDMDL
MODEL 8
REMARK VINA RESULT:      -7.0      4.173      8.398
REMARK  Name = Benzylpenicillin
REMARK  7 active torsions:
REMARK  status: ('A' for Active; 'I' for Inactive)
REMARK    1  A    between atoms: C_4  and  C_5
REMARK    2  A    between atoms: C_4  and  C_6
REMARK    3  A    between atoms: CA_7  and  C_22
REMARK    4  A    between atoms: CA_11  and  N_12
REMARK    5  A    between atoms: C_13  and  C_15
REMARK    6  A    between atoms: C_15  and  C_16
REMARK    7  A    between atoms: C_22  and  O_23
REMARK                            x       y       z     vdW  Elec       q    Type
REMARK                         _______ _______ _______ _____ _____    ______ ____
ROOT
ATOM      1  C   UNL     1      -7.244   2.990 127.299  0.00  0.00    +0.000 C 
ATOM      2  S   UNL     1      -8.447   1.628 127.501  0.00  0.00    +0.000 S 
ATOM      3  C   UNL     1      -8.426   1.305 125.657  0.00  0.00    +0.000 C 
ATOM      4  C   UNL     1      -9.741   0.593 125.325  0.00  0.00    +0.000 C 
ATOM      5  C   UNL     1      -7.196   0.410 125.417  0.00  0.00    +0.000 C 
ATOM      6  CA  UNL     1      -8.352   2.720 125.036  0.00  0.00    +0.000 C 
ATOM      7  N   UNL     1      -7.537   3.536 125.962  0.00  0.00    +0.000 N 
ATOM      8  C   UNL     1      -8.014   4.723 126.464  0.00  0.00    +0.000 C 
ATOM      9  O   UNL     1      -8.685   5.589 125.937  0.00  0.00    +0.000 OA
ATOM     10  CA  UNL     1      -7.579   4.356 127.913  0.00  0.00    +0.000 C 
ENDROOT
BRANCH  10  11
ATOM     11  N   UNL     1      -8.632   4.402 128.978  0.00  0.00    +0.000 N 
ATOM     12  C   UNL     1      -8.523   5.335 129.989  0.00  0.00    +0.000 C 
ATOM     13  O   UNL     1      -7.561   6.100 130.029  0.00  0.00    +0.000 OA
ATOM     14  H   UNL     1      -9.415   3.757 128.958  0.00  0.00    +0.000 HD
BRANCH  12  15
ATOM     15  C   UNL     1      -9.633   5.309 131.039  0.00  0.00    +0.000 C 
BRANCH  15  16
ATOM     16  C   UNL     1     -10.626   6.432 130.820  0.00  0.00    +0.000 A 
ATOM     17  C   UNL     1     -11.754   6.549 131.643  0.00  0.00    +0.000 A 
ATOM     18  C   UNL     1     -12.792   7.413 131.293  0.00  0.00    +0.000 A 
ATOM     19  C   UNL     1     -12.671   8.237 130.174  0.00  0.00    +0.000 A 
ATOM     20  C   UNL     1     -11.535   8.157 129.373  0.00  0.00    +0.000 A 
ATOM     21  C   UNL     1     -10.521   7.252 129.687  0.00  0.00    +0.000 A 
ENDBRANCH  15  16
ENDBRANCH  12  15
ENDBRANCH  10  11
BRANCH   6  22
ATOM     22  C   UNL     1      -7.868   2.884 123.574  0.00  0.00    +0.000 C 
ATOM     23  OXT UNL     1      -6.741   2.568 123.211  0.00  0.00    +0.000 OA
BRANCH  22  24
ATOM     24  O   UNL     1      -8.702   3.422 122.660  0.00  0.00    +0.000 OA
ATOM     25  H   UNL     1      -9.582   3.050 122.502  0.00  0.00    +0.000 HD
ENDBRANCH  22  24
ENDBRANCH   6  22
TORSDOF 5
ENDMDL
MODEL 9
REMARK VINA RESULT:      -7.0      6.048      9.681
REMARK  Name = Benzylpenicillin
REMARK  7 active torsions:
REMARK  status: ('A' for Active; 'I' for Inactive)
REMARK    1  A    between atoms: C_4  and  C_5
REMARK    2  A    between atoms: C_4  and  C_6
REMARK    3  A    between atoms: CA_7  and  C_22
REMARK    4  A    between atoms: CA_11  and  N_12
REMARK    5  A    between atoms: C_13  and  C_15
REMARK    6  A    between atoms: C_15  and  C_16
REMARK    7  A    between atoms: C_22  and  O_23
REMARK                            x       y       z     vdW  Elec       q    Type
REMARK                         _______ _______ _______ _____ _____    ______ ____
ROOT
ATOM      1  C   UNL     1      -7.935   3.640 131.558  0.00  0.00    +0.000 C 
ATOM      2  S   UNL     1      -8.981   2.477 132.504  0.00  0.00    +0.000 S 
ATOM      3  C   UNL     1      -8.018   1.021 131.825  0.00  0.00    +0.000 C 
ATOM      4  C   UNL     1      -8.938  -0.198 131.934  0.00  0.00    +0.000 C 
ATOM      5  C   UNL     1      -6.775   0.903 132.726  0.00  0.00    +0.000 C 
ATOM      6  CA  UNL     1      -7.740   1.417 130.356  0.00  0.00    +0.000 C 
ATOM      7  N   UNL     1      -7.555   2.885 130.349  0.00  0.00    +0.000 N 
ATOM      8  C   UNL     1      -8.299   3.687 129.518  0.00  0.00    +0.000 C 
ATOM      9  O   UNL     1      -8.674   3.506 128.376  0.00  0.00    +0.000 OA
ATOM     10  CA  UNL     1      -8.624   4.684 130.668  0.00  0.00    +0.000 C 
ENDROOT
BRANCH  10  11
ATOM     11  N   UNL     1     -10.069   4.979 130.934  0.00  0.00    +0.000 N 
ATOM     12  C   UNL     1     -10.460   6.287 131.130  0.00  0.00    +0.000 C 
ATOM     13  O   UNL     1      -9.631   7.195 131.114  0.00  0.00    +0.000 OA
ATOM     14  H   UNL     1     -10.751   4.229 130.968  0.00  0.00    +0.000 HD
BRANCH  12  15
ATOM     15  C   UNL     1     -11.950   6.501 131.403  0.00  0.00    +0.000 C 
BRANCH  15  16
ATOM     16  C   UNL     1     -12.614   7.258 130.271  0.00  0.00    +0.000 A 
ATOM     17  C   UNL     1     -13.036   6.579 129.120  0.00  0.00    +0.000 A 
ATOM     18  C   UNL     1     -13.410   7.294 127.981  0.00  0.00    +0.000 A 
ATOM     19  C   UNL     1     -13.460   8.687 128.013  0.00  0.00    +0.000 A 
ATOM     20  C   UNL     1     -13.080   9.369 129.167  0.00  0.00    +0.000 A 
ATOM     21  C   UNL     1     -12.650   8.660 130.287  0.00  0.00    +0.000 A 
ENDBRANCH  15  16
ENDBRANCH  12  15
ENDBRANCH  10  11
BRANCH   6  22
ATOM     22  C   UNL     1      -6.601   0.708 129.580  0.00  0.00    +0.000 C 
ATOM     23  OXT UNL     1      -6.686  -0.453 129.196  0.00  0.00    +0.000 OA
BRANCH  22  24
ATOM     24  O   UNL     1      -5.454   1.375 129.336  0.00  0.00    +0.000 OA
ATOM     25  H   UNL     1      -4.638   1.161 129.812  0.00  0.00    +0.000 HD
ENDBRANCH  22  24
ENDBRANCH   6  22
TORSDOF 5
ENDMDL
