MODEL 1
REMARK VINA RESULT:      -7.4      0.000      0.000
REMARK  Name = Benziodarone
REMARK  5 active torsions:
REMARK  status: ('A' for Active; 'I' for Inactive)
REMARK    1  A    between atoms: C_1  and  C_2
REMARK    2  A    between atoms: C_2  and  C_3
REMARK    3  A    between atoms: C_4  and  C_5
REMARK    4  A    between atoms: C_5  and  C_7
REMARK    5  A    between atoms: C_11  and  O_12
REMARK                            x       y       z     vdW  Elec       q    Type
REMARK                         _______ _______ _______ _____ _____    ______ ____
ROOT
ATOM      1  C   UNL     1      -8.291   2.674 124.615  0.00  0.00    +0.000 C 
ATOM      2  O   UNL     1      -9.195   3.374 125.075  0.00  0.00    +0.000 OA
ENDROOT
BRANCH   1   4
ATOM      3  C   UNL     1      -6.024   3.429 123.834  0.00  0.00    +0.000 A 
ATOM      4  C   UNL     1      -7.359   3.134 123.591  0.00  0.00    +0.000 A 
ATOM      5  C   UNL     1      -7.568   3.465 122.214  0.00  0.00    +0.000 A 
ATOM      6  C   UNL     1      -8.673   3.503 121.342  0.00  0.00    +0.000 A 
ATOM      7  C   UNL     1      -8.509   3.867 120.009  0.00  0.00    +0.000 A 
ATOM      8  C   UNL     1      -7.257   4.237 119.533  0.00  0.00    +0.000 A 
ATOM      9  C   UNL     1      -6.133   4.239 120.373  0.00  0.00    +0.000 A 
ATOM     10  C   UNL     1      -6.332   3.852 121.703  0.00  0.00    +0.000 A 
ATOM     11  O   UNL     1      -5.391   3.826 122.691  0.00  0.00    +0.000 OA
BRANCH   3  13
ATOM     12  C   UNL     1      -5.549   4.764 125.855  0.00  0.00    +0.000 C 
ATOM     13  C   UNL     1      -5.242   3.470 125.104  0.00  0.00    +0.000 C 
ENDBRANCH   3  13
ENDBRANCH   1   4
BRANCH   1  14
ATOM     14  C   UNL     1      -8.211   1.295 125.126  0.00  0.00    +0.000 A 
ATOM     15  C   UNL     1      -7.884   1.099 126.472  0.00  0.00    +0.000 A 
ATOM     16  C   UNL     1      -7.826  -0.199 126.982  0.00  0.00    +0.000 A 
ATOM     17  I   UNL     1      -7.320  -0.457 128.992  0.00  0.00    +0.000 I 
ATOM     18  C   UNL     1      -8.102  -1.298 126.155  0.00  0.00    +0.000 A 
ATOM     19  C   UNL     1      -8.410  -1.091 124.806  0.00  0.00    +0.000 A 
ATOM     20  I   UNL     1      -8.896  -2.676 123.530  0.00  0.00    +0.000 I 
ATOM     21  C   UNL     1      -8.437   0.203 124.279  0.00  0.00    +0.000 A 
BRANCH  18  22
ATOM     22  O   UNL     1      -8.077  -2.576 126.645  0.00  0.00    +0.000 OA
ATOM     23  H   UNL     1      -8.984  -2.832 126.889  0.00  0.00    +0.000 HD
ENDBRANCH  18  22
ENDBRANCH   1  14
TORSDOF 4
ENDMDL
MODEL 2
REMARK VINA RESULT:      -7.4      0.079      2.112
REMARK  Name = Benziodarone
REMARK  5 active torsions:
REMARK  status: ('A' for Active; 'I' for Inactive)
REMARK    1  A    between atoms: C_1  and  C_2
REMARK    2  A    between atoms: C_2  and  C_3
REMARK    3  A    between atoms: C_4  and  C_5
REMARK    4  A    between atoms: C_5  and  C_7
REMARK    5  A    between atoms: C_11  and  O_12
REMARK                            x       y       z     vdW  Elec       q    Type
REMARK                         _______ _______ _______ _____ _____    ______ ____
ROOT
ATOM      1  C   UNL     1      -8.286   2.755 124.648  0.00  0.00    +0.000 C 
ATOM      2  O   UNL     1      -9.171   3.480 125.107  0.00  0.00    +0.000 OA
ENDROOT
BRANCH   1   4
ATOM      3  C   UNL     1      -6.010   3.467 123.853  0.00  0.00    +0.000 A 
ATOM      4  C   UNL     1      -7.349   3.184 123.615  0.00  0.00    +0.000 A 
ATOM      5  C   UNL     1      -7.555   3.493 122.233  0.00  0.00    +0.000 A 
ATOM      6  C   UNL     1      -8.660   3.530 121.361  0.00  0.00    +0.000 A 
ATOM      7  C   UNL     1      -8.493   3.867 120.022  0.00  0.00    +0.000 A 
ATOM      8  C   UNL     1      -7.237   4.212 119.538  0.00  0.00    +0.000 A 
ATOM      9  C   UNL     1      -6.112   4.215 120.378  0.00  0.00    +0.000 A 
ATOM     10  C   UNL     1      -6.314   3.855 121.715  0.00  0.00    +0.000 A 
ATOM     11  O   UNL     1      -5.373   3.835 122.702  0.00  0.00    +0.000 OA
BRANCH   3  13
ATOM     12  C   UNL     1      -5.555   4.808 125.874  0.00  0.00    +0.000 C 
ATOM     13  C   UNL     1      -5.227   3.521 125.121  0.00  0.00    +0.000 C 
ENDBRANCH   3  13
ENDBRANCH   1   4
BRANCH   1  14
ATOM     14  C   UNL     1      -8.236   1.379 125.171  0.00  0.00    +0.000 A 
ATOM     15  C   UNL     1      -8.501   0.321 124.293  0.00  0.00    +0.000 A 
ATOM     16  C   UNL     1      -8.435  -0.992 124.763  0.00  0.00    +0.000 A 
ATOM     17  I   UNL     1      -8.850  -2.547 123.431  0.00  0.00    +0.000 I 
ATOM     18  C   UNL     1      -8.098  -1.251 126.099  0.00  0.00    +0.000 A 
ATOM     19  C   UNL     1      -7.852  -0.184 126.972  0.00  0.00    +0.000 A 
ATOM     20  I   UNL     1      -7.281  -0.496 128.960  0.00  0.00    +0.000 I 
ATOM     21  C   UNL     1      -7.949   1.134 126.518  0.00  0.00    +0.000 A 
BRANCH  18  22
ATOM     22  O   UNL     1      -8.001  -2.533 126.569  0.00  0.00    +0.000 OA
ATOM     23  H   UNL     1      -8.878  -2.813 126.887  0.00  0.00    +0.000 HD
ENDBRANCH  18  22
ENDBRANCH   1  14
TORSDOF 4
ENDMDL
MODEL 3
REMARK VINA RESULT:      -7.2      3.147      7.406
REMARK  Name = Benziodarone
REMARK  5 active torsions:
REMARK  status: ('A' for Active; 'I' for Inactive)
REMARK    1  A    between atoms: C_1  and  C_2
REMARK    2  A    between atoms: C_2  and  C_3
REMARK    3  A    between atoms: C_4  and  C_5
REMARK    4  A    between atoms: C_5  and  C_7
REMARK    5  A    between atoms: C_11  and  O_12
REMARK                            x       y       z     vdW  Elec       q    Type
REMARK                         _______ _______ _______ _____ _____    ______ ____
ROOT
ATOM      1  C   UNL     1      -5.894  -1.537 125.101  0.00  0.00    +0.000 C 
ATOM      2  O   UNL     1      -4.940  -2.033 124.499  0.00  0.00    +0.000 OA
ENDROOT
BRANCH   1   4
ATOM      3  C   UNL     1      -7.922  -3.022 125.053  0.00  0.00    +0.000 A 
ATOM      4  C   UNL     1      -6.938  -2.327 125.745  0.00  0.00    +0.000 A 
ATOM      5  C   UNL     1      -7.259  -2.508 127.128  0.00  0.00    +0.000 A 
ATOM      6  C   UNL     1      -6.757  -2.022 128.351  0.00  0.00    +0.000 A 
ATOM      7  C   UNL     1      -7.316  -2.433 129.557  0.00  0.00    +0.000 A 
ATOM      8  C   UNL     1      -8.404  -3.298 129.566  0.00  0.00    +0.000 A 
ATOM      9  C   UNL     1      -8.953  -3.786 128.370  0.00  0.00    +0.000 A 
ATOM     10  C   UNL     1      -8.356  -3.363 127.177  0.00  0.00    +0.000 A 
ATOM     11  O   UNL     1      -8.757  -3.680 125.912  0.00  0.00    +0.000 OA
BRANCH   3  13
ATOM     12  C   UNL     1      -9.716  -3.455 123.414  0.00  0.00    +0.000 C 
ATOM     13  C   UNL     1      -8.247  -3.078 123.598  0.00  0.00    +0.000 C 
ENDBRANCH   3  13
ENDBRANCH   1   4
BRANCH   1  14
ATOM     14  C   UNL     1      -5.964  -0.066 125.110  0.00  0.00    +0.000 A 
ATOM     15  C   UNL     1      -5.169   0.635 126.024  0.00  0.00    +0.000 A 
ATOM     16  C   UNL     1      -5.204   2.031 126.033  0.00  0.00    +0.000 A 
ATOM     17  I   UNL     1      -4.015   3.047 127.418  0.00  0.00    +0.000 I 
ATOM     18  C   UNL     1      -6.020   2.725 125.129  0.00  0.00    +0.000 A 
ATOM     19  C   UNL     1      -6.825   2.013 124.232  0.00  0.00    +0.000 A 
ATOM     20  I   UNL     1      -8.019   2.982 122.813  0.00  0.00    +0.000 I 
ATOM     21  C   UNL     1      -6.822   0.616 124.239  0.00  0.00    +0.000 A 
BRANCH  18  22
ATOM     22  O   UNL     1      -6.045   4.094 125.105  0.00  0.00    +0.000 OA
ATOM     23  H   UNL     1      -5.690   4.395 124.250  0.00  0.00    +0.000 HD
ENDBRANCH  18  22
ENDBRANCH   1  14
TORSDOF 4
ENDMDL
MODEL 4
REMARK VINA RESULT:      -7.1      3.141      7.543
REMARK  Name = Benziodarone
REMARK  5 active torsions:
REMARK  status: ('A' for Active; 'I' for Inactive)
REMARK    1  A    between atoms: C_1  and  C_2
REMARK    2  A    between atoms: C_2  and  C_3
REMARK    3  A    between atoms: C_4  and  C_5
REMARK    4  A    between atoms: C_5  and  C_7
REMARK    5  A    between atoms: C_11  and  O_12
REMARK                            x       y       z     vdW  Elec       q    Type
REMARK                         _______ _______ _______ _____ _____    ______ ____
ROOT
ATOM      1  C   UNL     1      -6.027  -1.647 124.905  0.00  0.00    +0.000 C 
ATOM      2  O   UNL     1      -5.105  -2.153 124.262  0.00  0.00    +0.000 OA
ENDROOT
BRANCH   1   4
ATOM      3  C   UNL     1      -8.114  -3.046 124.811  0.00  0.00    +0.000 A 
ATOM      4  C   UNL     1      -7.097  -2.422 125.524  0.00  0.00    +0.000 A 
ATOM      5  C   UNL     1      -7.414  -2.651 126.901  0.00  0.00    +0.000 A 
ATOM      6  C   UNL     1      -6.883  -2.240 128.139  0.00  0.00    +0.000 A 
ATOM      7  C   UNL     1      -7.449  -2.681 129.332  0.00  0.00    +0.000 A 
ATOM      8  C   UNL     1      -8.571  -3.501 129.313  0.00  0.00    +0.000 A 
ATOM      9  C   UNL     1      -9.149  -3.913 128.102  0.00  0.00    +0.000 A 
ATOM     10  C   UNL     1      -8.545  -3.462 126.923  0.00  0.00    +0.000 A 
ATOM     11  O   UNL     1      -8.968  -3.706 125.649  0.00  0.00    +0.000 OA
BRANCH   3  13
ATOM     12  C   UNL     1      -9.312  -1.800 123.050  0.00  0.00    +0.000 C 
ATOM     13  C   UNL     1      -8.453  -3.024 123.359  0.00  0.00    +0.000 C 
ENDBRANCH   3  13
ENDBRANCH   1   4
BRANCH   1  14
ATOM     14  C   UNL     1      -6.028  -0.177 124.994  0.00  0.00    +0.000 A 
ATOM     15  C   UNL     1      -6.813   0.546 124.089  0.00  0.00    +0.000 A 
ATOM     16  C   UNL     1      -6.847   1.939 124.171  0.00  0.00    +0.000 A 
ATOM     17  I   UNL     1      -8.018   2.989 122.796  0.00  0.00    +0.000 I 
ATOM     18  C   UNL     1      -6.109   2.609 125.157  0.00  0.00    +0.000 A 
ATOM     19  C   UNL     1      -5.313   1.877 126.046  0.00  0.00    +0.000 A 
ATOM     20  I   UNL     1      -4.236   2.803 127.581  0.00  0.00    +0.000 I 
ATOM     21  C   UNL     1      -5.247   0.484 125.948  0.00  0.00    +0.000 A 
BRANCH  18  22
ATOM     22  O   UNL     1      -6.153   3.973 125.270  0.00  0.00    +0.000 OA
ATOM     23  H   UNL     1      -5.925   4.215 126.185  0.00  0.00    +0.000 HD
ENDBRANCH  18  22
ENDBRANCH   1  14
TORSDOF 4
ENDMDL
MODEL 5
REMARK VINA RESULT:      -7.0      2.013      3.661
REMARK  Name = Benziodarone
REMARK  5 active torsions:
REMARK  status: ('A' for Active; 'I' for Inactive)
REMARK    1  A    between atoms: C_1  and  C_2
REMARK    2  A    between atoms: C_2  and  C_3
REMARK    3  A    between atoms: C_4  and  C_5
REMARK    4  A    between atoms: C_5  and  C_7
REMARK    5  A    between atoms: C_11  and  O_12
REMARK                            x       y       z     vdW  Elec       q    Type
REMARK                         _______ _______ _______ _____ _____    ______ ____
ROOT
ATOM      1  C   UNL     1      -7.915   2.778 125.191  0.00  0.00    +0.000 C 
ATOM      2  O   UNL     1      -8.607   3.466 125.944  0.00  0.00    +0.000 OA
ENDROOT
BRANCH   1   4
ATOM      3  C   UNL     1      -8.858   2.493 122.877  0.00  0.00    +0.000 A 
ATOM      4  C   UNL     1      -7.876   2.959 123.743  0.00  0.00    +0.000 A 
ATOM      5  C   UNL     1      -6.872   3.526 122.896  0.00  0.00    +0.000 A 
ATOM      6  C   UNL     1      -5.592   4.083 123.082  0.00  0.00    +0.000 A 
ATOM      7  C   UNL     1      -4.869   4.573 121.999  0.00  0.00    +0.000 A 
ATOM      8  C   UNL     1      -5.388   4.480 120.713  0.00  0.00    +0.000 A 
ATOM      9  C   UNL     1      -6.648   3.908 120.477  0.00  0.00    +0.000 A 
ATOM     10  C   UNL     1      -7.352   3.441 121.592  0.00  0.00    +0.000 A 
ATOM     11  O   UNL     1      -8.565   2.815 121.582  0.00  0.00    +0.000 OA
BRANCH   3  13
ATOM     12  C   UNL     1      -9.782   0.211 122.725  0.00  0.00    +0.000 C 
ATOM     13  C   UNL     1     -10.068   1.657 123.123  0.00  0.00    +0.000 C 
ENDBRANCH   3  13
ENDBRANCH   1   4
BRANCH   1  14
ATOM     14  C   UNL     1      -7.133   1.703 125.825  0.00  0.00    +0.000 A 
ATOM     15  C   UNL     1      -6.913   0.523 125.106  0.00  0.00    +0.000 A 
ATOM     16  C   UNL     1      -6.155  -0.499 125.680  0.00  0.00    +0.000 A 
ATOM     17  I   UNL     1      -5.857  -2.252 124.585  0.00  0.00    +0.000 I 
ATOM     18  C   UNL     1      -5.610  -0.342 126.962  0.00  0.00    +0.000 A 
ATOM     19  C   UNL     1      -5.852   0.835 127.680  0.00  0.00    +0.000 A 
ATOM     20  I   UNL     1      -5.019   1.165 129.570  0.00  0.00    +0.000 I 
ATOM     21  C   UNL     1      -6.638   1.849 127.126  0.00  0.00    +0.000 A 
BRANCH  18  22
ATOM     22  O   UNL     1      -4.841  -1.322 127.529  0.00  0.00    +0.000 OA
ATOM     23  H   UNL     1      -5.066  -2.172 127.113  0.00  0.00    +0.000 HD
ENDBRANCH  18  22
ENDBRANCH   1  14
TORSDOF 4
ENDMDL
MODEL 6
REMARK VINA RESULT:      -6.8      6.627      8.614
REMARK  Name = Benziodarone
REMARK  5 active torsions:
REMARK  status: ('A' for Active; 'I' for Inactive)
REMARK    1  A    between atoms: C_1  and  C_2
REMARK    2  A    between atoms: C_2  and  C_3
REMARK    3  A    between atoms: C_4  and  C_5
REMARK    4  A    between atoms: C_5  and  C_7
REMARK    5  A    between atoms: C_11  and  O_12
REMARK                            x       y       z     vdW  Elec       q    Type
REMARK                         _______ _______ _______ _____ _____    ______ ____
ROOT
ATOM      1  C   UNL     1      -7.618   6.358 130.856  0.00  0.00    +0.000 C 
ATOM      2  O   UNL     1      -6.853   7.317 130.732  0.00  0.00    +0.000 OA
ENDROOT
BRANCH   1   4
ATOM      3  C   UNL     1      -9.463   6.110 132.546  0.00  0.00    +0.000 A 
ATOM      4  C   UNL     1      -9.006   6.486 131.289  0.00  0.00    +0.000 A 
ATOM      5  C   UNL     1     -10.175   6.904 130.578  0.00  0.00    +0.000 A 
ATOM      6  C   UNL     1     -10.462   7.315 129.261  0.00  0.00    +0.000 A 
ATOM      7  C   UNL     1     -11.755   7.682 128.901  0.00  0.00    +0.000 A 
ATOM      8  C   UNL     1     -12.787   7.608 129.829  0.00  0.00    +0.000 A 
ATOM      9  C   UNL     1     -12.552   7.179 131.145  0.00  0.00    +0.000 A 
ATOM     10  C   UNL     1     -11.237   6.833 131.475  0.00  0.00    +0.000 A 
ATOM     11  O   UNL     1     -10.801   6.353 132.676  0.00  0.00    +0.000 OA
BRANCH   3  13
ATOM     12  C   UNL     1      -9.117   3.941 133.670  0.00  0.00    +0.000 C 
ATOM     13  C   UNL     1      -8.774   5.428 133.679  0.00  0.00    +0.000 C 
ENDBRANCH   3  13
ENDBRANCH   1   4
BRANCH   1  14
ATOM     14  C   UNL     1      -7.047   5.029 130.579  0.00  0.00    +0.000 A 
ATOM     15  C   UNL     1      -5.972   4.588 131.360  0.00  0.00    +0.000 A 
ATOM     16  C   UNL     1      -5.432   3.322 131.130  0.00  0.00    +0.000 A 
ATOM     17  I   UNL     1      -3.819   2.700 132.304  0.00  0.00    +0.000 I 
ATOM     18  C   UNL     1      -5.965   2.494 130.132  0.00  0.00    +0.000 A 
ATOM     19  C   UNL     1      -7.028   2.953 129.344  0.00  0.00    +0.000 A 
ATOM     20  I   UNL     1      -7.916   1.750 127.882  0.00  0.00    +0.000 I 
ATOM     21  C   UNL     1      -7.553   4.233 129.546  0.00  0.00    +0.000 A 
BRANCH  18  22
ATOM     22  O   UNL     1      -5.466   1.239 129.911  0.00  0.00    +0.000 OA
ATOM     23  H   UNL     1      -5.769   0.654 130.628  0.00  0.00    +0.000 HD
ENDBRANCH  18  22
ENDBRANCH   1  14
TORSDOF 4
ENDMDL
MODEL 7
REMARK VINA RESULT:      -6.7      3.105      5.109
REMARK  Name = Benziodarone
REMARK  5 active torsions:
REMARK  status: ('A' for Active; 'I' for Inactive)
REMARK    1  A    between atoms: C_1  and  C_2
REMARK    2  A    between atoms: C_2  and  C_3
REMARK    3  A    between atoms: C_4  and  C_5
REMARK    4  A    between atoms: C_5  and  C_7
REMARK    5  A    between atoms: C_11  and  O_12
REMARK                            x       y       z     vdW  Elec       q    Type
REMARK                         _______ _______ _______ _____ _____    ______ ____
ROOT
ATOM      1  C   UNL     1      -6.308  -1.343 125.165  0.00  0.00    +0.000 C 
ATOM      2  O   UNL     1      -5.347  -1.810 124.551  0.00  0.00    +0.000 OA
ENDROOT
BRANCH   1   4
ATOM      3  C   UNL     1      -8.669  -1.557 124.326  0.00  0.00    +0.000 A 
ATOM      4  C   UNL     1      -7.504  -0.822 124.512  0.00  0.00    +0.000 A 
ATOM      5  C   UNL     1      -7.749   0.431 123.864  0.00  0.00    +0.000 A 
ATOM      6  C   UNL     1      -6.994   1.588 123.588  0.00  0.00    +0.000 A 
ATOM      7  C   UNL     1      -7.572   2.669 122.931  0.00  0.00    +0.000 A 
ATOM      8  C   UNL     1      -8.893   2.603 122.503  0.00  0.00    +0.000 A 
ATOM      9  C   UNL     1      -9.674   1.460 122.734  0.00  0.00    +0.000 A 
ATOM     10  C   UNL     1      -9.064   0.398 123.411  0.00  0.00    +0.000 A 
ATOM     11  O   UNL     1      -9.626  -0.812 123.697  0.00  0.00    +0.000 OA
BRANCH   3  13
ATOM     12  C   UNL     1      -9.411  -3.143 126.065  0.00  0.00    +0.000 C 
ATOM     13  C   UNL     1      -8.983  -2.987 124.607  0.00  0.00    +0.000 C 
ENDBRANCH   3  13
ENDBRANCH   1   4
BRANCH   1  14
ATOM     14  C   UNL     1      -6.181  -1.291 126.632  0.00  0.00    +0.000 A 
ATOM     15  C   UNL     1      -5.262  -2.144 127.253  0.00  0.00    +0.000 A 
ATOM     16  C   UNL     1      -5.109  -2.094 128.640  0.00  0.00    +0.000 A 
ATOM     17  I   UNL     1      -3.738  -3.390 129.537  0.00  0.00    +0.000 I 
ATOM     18  C   UNL     1      -5.863  -1.192 129.404  0.00  0.00    +0.000 A 
ATOM     19  C   UNL     1      -6.793  -0.356 128.773  0.00  0.00    +0.000 A 
ATOM     20  I   UNL     1      -7.905   1.058 129.840  0.00  0.00    +0.000 I 
ATOM     21  C   UNL     1      -6.976  -0.424 127.389  0.00  0.00    +0.000 A 
BRANCH  18  22
ATOM     22  O   UNL     1      -5.706  -1.110 130.761  0.00  0.00    +0.000 OA
ATOM     23  H   UNL     1      -4.930  -1.640 131.016  0.00  0.00    +0.000 HD
ENDBRANCH  18  22
ENDBRANCH   1  14
TORSDOF 4
ENDMDL
MODEL 8
REMARK VINA RESULT:      -6.7      2.540      6.678
REMARK  Name = Benziodarone
REMARK  5 active torsions:
REMARK  status: ('A' for Active; 'I' for Inactive)
REMARK    1  A    between atoms: C_1  and  C_2
REMARK    2  A    between atoms: C_2  and  C_3
REMARK    3  A    between atoms: C_4  and  C_5
REMARK    4  A    between atoms: C_5  and  C_7
REMARK    5  A    between atoms: C_11  and  O_12
REMARK                            x       y       z     vdW  Elec       q    Type
REMARK                         _______ _______ _______ _____ _____    ______ ____
ROOT
ATOM      1  C   UNL     1      -8.993   1.063 124.546  0.00  0.00    +0.000 C 
ATOM      2  O   UNL     1     -10.167   1.375 124.339  0.00  0.00    +0.000 OA
ENDROOT
BRANCH   1   4
ATOM      3  C   UNL     1      -8.593  -1.419 124.589  0.00  0.00    +0.000 A 
ATOM      4  C   UNL     1      -8.593  -0.174 125.208  0.00  0.00    +0.000 A 
ATOM      5  C   UNL     1      -8.221  -0.434 126.565  0.00  0.00    +0.000 A 
ATOM      6  C   UNL     1      -8.112   0.329 127.744  0.00  0.00    +0.000 A 
ATOM      7  C   UNL     1      -7.687  -0.261 128.931  0.00  0.00    +0.000 A 
ATOM      8  C   UNL     1      -7.405  -1.621 128.974  0.00  0.00    +0.000 A 
ATOM      9  C   UNL     1      -7.526  -2.425 127.829  0.00  0.00    +0.000 A 
ATOM     10  C   UNL     1      -7.940  -1.794 126.651  0.00  0.00    +0.000 A 
ATOM     11  O   UNL     1      -8.163  -2.393 125.445  0.00  0.00    +0.000 OA
BRANCH   3  13
ATOM     12  C   UNL     1      -9.587  -3.276 123.303  0.00  0.00    +0.000 C 
ATOM     13  C   UNL     1      -9.057  -1.845 123.238  0.00  0.00    +0.000 C 
ENDBRANCH   3  13
ENDBRANCH   1   4
BRANCH   1  14
ATOM     14  C   UNL     1      -7.975   2.040 124.122  0.00  0.00    +0.000 A 
ATOM     15  C   UNL     1      -7.088   2.539 125.082  0.00  0.00    +0.000 A 
ATOM     16  C   UNL     1      -6.100   3.448 124.697  0.00  0.00    +0.000 A 
ATOM     17  I   UNL     1      -4.801   4.185 126.157  0.00  0.00    +0.000 I 
ATOM     18  C   UNL     1      -5.992   3.851 123.358  0.00  0.00    +0.000 A 
ATOM     19  C   UNL     1      -6.897   3.359 122.410  0.00  0.00    +0.000 A 
ATOM     20  I   UNL     1      -6.756   3.866 120.385  0.00  0.00    +0.000 I 
ATOM     21  C   UNL     1      -7.909   2.476 122.794  0.00  0.00    +0.000 A 
BRANCH  18  22
ATOM     22  O   UNL     1      -5.013   4.720 122.957  0.00  0.00    +0.000 OA
ATOM     23  H   UNL     1      -5.431   5.561 122.702  0.00  0.00    +0.000 HD
ENDBRANCH  18  22
ENDBRANCH   1  14
TORSDOF 4
ENDMDL
MODEL 9
REMARK VINA RESULT:      -6.7      3.870      5.966
REMARK  Name = Benziodarone
REMARK  5 active torsions:
REMARK  status: ('A' for Active; 'I' for Inactive)
REMARK    1  A    between atoms: C_1  and  C_2
REMARK    2  A    between atoms: C_2  and  C_3
REMARK    3  A    between atoms: C_4  and  C_5
REMARK    4  A    between atoms: C_5  and  C_7
REMARK    5  A    between atoms: C_11  and  O_12
REMARK                            x       y       z     vdW  Elec       q    Type
REMARK                         _______ _______ _______ _____ _____    ______ ____
ROOT
ATOM      1  C   UNL     1      -8.863  -0.010 125.945  0.00  0.00    +0.000 C 
ATOM      2  O   UNL     1     -10.064  -0.077 125.679  0.00  0.00    +0.000 OA
ENDROOT
BRANCH   1   4
ATOM      3  C   UNL     1      -7.569  -1.980 126.819  0.00  0.00    +0.000 A 
ATOM      4  C   UNL     1      -7.939  -1.128 125.786  0.00  0.00    +0.000 A 
ATOM      5  C   UNL     1      -7.166  -1.553 124.659  0.00  0.00    +0.000 A 
ATOM      6  C   UNL     1      -6.969  -1.097 123.341  0.00  0.00    +0.000 A 
ATOM      7  C   UNL     1      -6.130  -1.786 122.472  0.00  0.00    +0.000 A 
ATOM      8  C   UNL     1      -5.442  -2.913 122.909  0.00  0.00    +0.000 A 
ATOM      9  C   UNL     1      -5.588  -3.387 124.222  0.00  0.00    +0.000 A 
ATOM     10  C   UNL     1      -6.452  -2.677 125.063  0.00  0.00    +0.000 A 
ATOM     11  O   UNL     1      -6.702  -2.940 126.379  0.00  0.00    +0.000 OA
BRANCH   3  13
ATOM     12  C   UNL     1      -8.269  -3.350 128.749  0.00  0.00    +0.000 C 
ATOM     13  C   UNL     1      -7.881  -1.950 128.277  0.00  0.00    +0.000 C 
ENDBRANCH   3  13
ENDBRANCH   1   4
BRANCH   1  14
ATOM     14  C   UNL     1      -8.387   1.275 126.486  0.00  0.00    +0.000 A 
ATOM     15  C   UNL     1      -8.678   1.587 127.818  0.00  0.00    +0.000 A 
ATOM     16  C   UNL     1      -8.216   2.789 128.358  0.00  0.00    +0.000 A 
ATOM     17  I   UNL     1      -8.680   3.232 130.346  0.00  0.00    +0.000 I 
ATOM     18  C   UNL     1      -7.459   3.673 127.575  0.00  0.00    +0.000 A 
ATOM     19  C   UNL     1      -7.189   3.358 126.238  0.00  0.00    +0.000 A 
ATOM     20  I   UNL     1      -6.013   4.596 125.030  0.00  0.00    +0.000 I 
ATOM     21  C   UNL     1      -7.677   2.173 125.680  0.00  0.00    +0.000 A 
BRANCH  18  22
ATOM     22  O   UNL     1      -6.974   4.842 128.095  0.00  0.00    +0.000 OA
ATOM     23  H   UNL     1      -6.173   5.093 127.602  0.00  0.00    +0.000 HD
ENDBRANCH  18  22
ENDBRANCH   1  14
TORSDOF 4
ENDMDL
