MODEL 1
REMARK VINA RESULT:      -6.4      0.000      0.000
REMARK  Name = Benzoyl peroxide
REMARK  5 active torsions:
REMARK  status: ('A' for Active; 'I' for Inactive)
REMARK    1  A    between atoms: C_2  and  O_3
REMARK    2  A    between atoms: C_2  and  C_13
REMARK    3  A    between atoms: O_3  and  O_4
REMARK    4  A    between atoms: O_4  and  C_5
REMARK    5  A    between atoms: C_5  and  C_7
REMARK                            x       y       z     vdW  Elec       q    Type
REMARK                         _______ _______ _______ _____ _____    ______ ____
ROOT
ATOM      1  O   UNL     1      -9.578  -0.990 123.950  0.00  0.00    +0.000 OA
ENDROOT
BRANCH   1   3
ATOM      2  O   UNL     1      -9.952  -3.158 123.397  0.00  0.00    +0.000 OA
ATOM      3  C   UNL     1      -9.151  -2.255 123.629  0.00  0.00    +0.000 C 
BRANCH   3   4
ATOM      4  C   UNL     1      -7.701  -2.570 123.546  0.00  0.00    +0.000 A 
ATOM      5  C   UNL     1      -6.862  -1.831 122.710  0.00  0.00    +0.000 A 
ATOM      6  C   UNL     1      -5.523  -2.188 122.570  0.00  0.00    +0.000 A 
ATOM      7  C   UNL     1      -4.980  -3.197 123.364  0.00  0.00    +0.000 A 
ATOM      8  C   UNL     1      -5.788  -3.881 124.272  0.00  0.00    +0.000 A 
ATOM      9  C   UNL     1      -7.150  -3.572 124.363  0.00  0.00    +0.000 A 
ENDBRANCH   3   4
ENDBRANCH   1   3
BRANCH   1  10
ATOM     10  O   UNL     1      -9.894  -0.835 125.379  0.00  0.00    +0.000 OA
BRANCH  10  11
ATOM     11  C   UNL     1      -9.103   0.176 125.853  0.00  0.00    +0.000 C 
ATOM     12  O   UNL     1      -9.382   1.370 125.889  0.00  0.00    +0.000 OA
BRANCH  11  13
ATOM     13  C   UNL     1      -7.799  -0.337 126.356  0.00  0.00    +0.000 A 
ATOM     14  C   UNL     1      -6.596   0.123 125.789  0.00  0.00    +0.000 A 
ATOM     15  C   UNL     1      -5.377  -0.479 126.128  0.00  0.00    +0.000 A 
ATOM     16  C   UNL     1      -5.342  -1.498 127.078  0.00  0.00    +0.000 A 
ATOM     17  C   UNL     1      -6.529  -1.945 127.657  0.00  0.00    +0.000 A 
ATOM     18  C   UNL     1      -7.755  -1.374 127.294  0.00  0.00    +0.000 A 
ENDBRANCH  11  13
ENDBRANCH  10  11
ENDBRANCH   1  10
TORSDOF 5
ENDMDL
MODEL 2
REMARK VINA RESULT:      -6.2      3.840      5.463
REMARK  Name = Benzoyl peroxide
REMARK  5 active torsions:
REMARK  status: ('A' for Active; 'I' for Inactive)
REMARK    1  A    between atoms: C_2  and  O_3
REMARK    2  A    between atoms: C_2  and  C_13
REMARK    3  A    between atoms: O_3  and  O_4
REMARK    4  A    between atoms: O_4  and  C_5
REMARK    5  A    between atoms: C_5  and  C_7
REMARK                            x       y       z     vdW  Elec       q    Type
REMARK                         _______ _______ _______ _____ _____    ______ ____
ROOT
ATOM      1  O   UNL     1      -9.173   1.689 122.776  0.00  0.00    +0.000 OA
ENDROOT
BRANCH   1   3
ATOM      2  O   UNL     1      -8.590   3.449 124.083  0.00  0.00    +0.000 OA
ATOM      3  C   UNL     1      -8.485   2.854 123.013  0.00  0.00    +0.000 C 
BRANCH   3   4
ATOM      4  C   UNL     1      -7.586   3.429 121.980  0.00  0.00    +0.000 A 
ATOM      5  C   UNL     1      -8.080   3.767 120.718  0.00  0.00    +0.000 A 
ATOM      6  C   UNL     1      -7.214   4.221 119.726  0.00  0.00    +0.000 A 
ATOM      7  C   UNL     1      -5.875   4.472 120.025  0.00  0.00    +0.000 A 
ATOM      8  C   UNL     1      -5.390   4.227 121.310  0.00  0.00    +0.000 A 
ATOM      9  C   UNL     1      -6.242   3.703 122.288  0.00  0.00    +0.000 A 
ENDBRANCH   3   4
ENDBRANCH   1   3
BRANCH   1  10
ATOM     10  O   UNL     1      -8.871   0.634 123.758  0.00  0.00    +0.000 OA
BRANCH  10  11
ATOM     11  C   UNL     1      -9.228  -0.555 123.184  0.00  0.00    +0.000 C 
ATOM     12  O   UNL     1     -10.257  -0.788 122.557  0.00  0.00    +0.000 OA
BRANCH  11  13
ATOM     13  C   UNL     1      -8.190  -1.601 123.395  0.00  0.00    +0.000 A 
ATOM     14  C   UNL     1      -8.533  -2.822 124.004  0.00  0.00    +0.000 A 
ATOM     15  C   UNL     1      -7.537  -3.738 124.368  0.00  0.00    +0.000 A 
ATOM     16  C   UNL     1      -6.202  -3.471 124.072  0.00  0.00    +0.000 A 
ATOM     17  C   UNL     1      -5.857  -2.271 123.451  0.00  0.00    +0.000 A 
ATOM     18  C   UNL     1      -6.844  -1.334 123.120  0.00  0.00    +0.000 A 
ENDBRANCH  11  13
ENDBRANCH  10  11
ENDBRANCH   1  10
TORSDOF 5
ENDMDL
MODEL 3
REMARK VINA RESULT:      -6.2      3.841      4.909
REMARK  Name = Benzoyl peroxide
REMARK  5 active torsions:
REMARK  status: ('A' for Active; 'I' for Inactive)
REMARK    1  A    between atoms: C_2  and  O_3
REMARK    2  A    between atoms: C_2  and  C_13
REMARK    3  A    between atoms: O_3  and  O_4
REMARK    4  A    between atoms: O_4  and  C_5
REMARK    5  A    between atoms: C_5  and  C_7
REMARK                            x       y       z     vdW  Elec       q    Type
REMARK                         _______ _______ _______ _____ _____    ______ ____
ROOT
ATOM      1  O   UNL     1      -8.819   0.573 123.687  0.00  0.00    +0.000 OA
ENDROOT
BRANCH   1   3
ATOM      2  O   UNL     1      -9.937  -1.050 122.563  0.00  0.00    +0.000 OA
ATOM      3  C   UNL     1      -8.955  -0.713 123.222  0.00  0.00    +0.000 C 
BRANCH   3   4
ATOM      4  C   UNL     1      -7.913  -1.735 123.497  0.00  0.00    +0.000 A 
ATOM      5  C   UNL     1      -6.598  -1.538 123.073  0.00  0.00    +0.000 A 
ATOM      6  C   UNL     1      -5.647  -2.540 123.256  0.00  0.00    +0.000 A 
ATOM      7  C   UNL     1      -5.966  -3.686 123.982  0.00  0.00    +0.000 A 
ATOM      8  C   UNL     1      -7.253  -3.852 124.493  0.00  0.00    +0.000 A 
ATOM      9  C   UNL     1      -8.230  -2.880 124.249  0.00  0.00    +0.000 A 
ENDBRANCH   3   4
ENDBRANCH   1   3
BRANCH   1  10
ATOM     10  O   UNL     1      -9.354   1.581 122.756  0.00  0.00    +0.000 OA
BRANCH  10  11
ATOM     11  C   UNL     1      -8.744   2.766 123.064  0.00  0.00    +0.000 C 
ATOM     12  O   UNL     1      -8.706   3.308 124.165  0.00  0.00    +0.000 OA
BRANCH  11  13
ATOM     13  C   UNL     1      -8.087   3.372 121.873  0.00  0.00    +0.000 A 
ATOM     14  C   UNL     1      -8.855   3.729 120.751  0.00  0.00    +0.000 A 
ATOM     15  C   UNL     1      -8.231   4.132 119.563  0.00  0.00    +0.000 A 
ATOM     16  C   UNL     1      -6.842   4.241 119.506  0.00  0.00    +0.000 A 
ATOM     17  C   UNL     1      -6.076   3.905 120.622  0.00  0.00    +0.000 A 
ATOM     18  C   UNL     1      -6.693   3.465 121.800  0.00  0.00    +0.000 A 
ENDBRANCH  11  13
ENDBRANCH  10  11
ENDBRANCH   1  10
TORSDOF 5
ENDMDL
MODEL 4
REMARK VINA RESULT:      -6.1      1.040      3.939
REMARK  Name = Benzoyl peroxide
REMARK  5 active torsions:
REMARK  status: ('A' for Active; 'I' for Inactive)
REMARK    1  A    between atoms: C_2  and  O_3
REMARK    2  A    between atoms: C_2  and  C_13
REMARK    3  A    between atoms: O_3  and  O_4
REMARK    4  A    between atoms: O_4  and  C_5
REMARK    5  A    between atoms: C_5  and  C_7
REMARK                            x       y       z     vdW  Elec       q    Type
REMARK                         _______ _______ _______ _____ _____    ______ ____
ROOT
ATOM      1  O   UNL     1      -9.702   0.276 125.267  0.00  0.00    +0.000 OA
ENDROOT
BRANCH   1   3
ATOM      2  O   UNL     1      -9.126   1.575 127.035  0.00  0.00    +0.000 OA
ATOM      3  C   UNL     1      -8.901   0.588 126.338  0.00  0.00    +0.000 C 
BRANCH   3   4
ATOM      4  C   UNL     1      -7.738  -0.266 126.692  0.00  0.00    +0.000 A 
ATOM      5  C   UNL     1      -6.436   0.163 126.425  0.00  0.00    +0.000 A 
ATOM      6  C   UNL     1      -5.356  -0.679 126.677  0.00  0.00    +0.000 A 
ATOM      7  C   UNL     1      -5.554  -1.899 127.323  0.00  0.00    +0.000 A 
ATOM      8  C   UNL     1      -6.842  -2.298 127.681  0.00  0.00    +0.000 A 
ATOM      9  C   UNL     1      -7.936  -1.485 127.364  0.00  0.00    +0.000 A 
ENDBRANCH   3   4
ENDBRANCH   1   3
BRANCH   1  10
ATOM     10  O   UNL     1      -9.049   0.524 123.970  0.00  0.00    +0.000 OA
BRANCH  10  11
ATOM     11  C   UNL     1      -9.277  -0.579 123.195  0.00  0.00    +0.000 C 
ATOM     12  O   UNL     1     -10.205  -0.745 122.408  0.00  0.00    +0.000 OA
BRANCH  11  13
ATOM     13  C   UNL     1      -8.232  -1.620 123.398  0.00  0.00    +0.000 A 
ATOM     14  C   UNL     1      -8.564  -2.839 124.017  0.00  0.00    +0.000 A 
ATOM     15  C   UNL     1      -7.560  -3.750 124.373  0.00  0.00    +0.000 A 
ATOM     16  C   UNL     1      -6.229  -3.480 124.059  0.00  0.00    +0.000 A 
ATOM     17  C   UNL     1      -5.897  -2.281 123.429  0.00  0.00    +0.000 A 
ATOM     18  C   UNL     1      -6.891  -1.350 123.105  0.00  0.00    +0.000 A 
ENDBRANCH  11  13
ENDBRANCH  10  11
ENDBRANCH   1  10
TORSDOF 5
ENDMDL
MODEL 5
REMARK VINA RESULT:      -5.9      1.136      1.726
REMARK  Name = Benzoyl peroxide
REMARK  5 active torsions:
REMARK  status: ('A' for Active; 'I' for Inactive)
REMARK    1  A    between atoms: C_2  and  O_3
REMARK    2  A    between atoms: C_2  and  C_13
REMARK    3  A    between atoms: O_3  and  O_4
REMARK    4  A    between atoms: O_4  and  C_5
REMARK    5  A    between atoms: C_5  and  C_7
REMARK                            x       y       z     vdW  Elec       q    Type
REMARK                         _______ _______ _______ _____ _____    ______ ____
ROOT
ATOM      1  O   UNL     1      -8.967   0.693 123.512  0.00  0.00    +0.000 OA
ENDROOT
BRANCH   1   3
ATOM      2  O   UNL     1     -10.145  -0.959 122.496  0.00  0.00    +0.000 OA
ATOM      3  C   UNL     1      -9.142  -0.611 123.116  0.00  0.00    +0.000 C 
BRANCH   3   4
ATOM      4  C   UNL     1      -8.117  -1.642 123.421  0.00  0.00    +0.000 A 
ATOM      5  C   UNL     1      -8.469  -2.814 124.094  0.00  0.00    +0.000 A 
ATOM      6  C   UNL     1      -7.488  -3.734 124.455  0.00  0.00    +0.000 A 
ATOM      7  C   UNL     1      -6.172  -3.560 124.030  0.00  0.00    +0.000 A 
ATOM      8  C   UNL     1      -5.825  -2.439 123.276  0.00  0.00    +0.000 A 
ATOM      9  C   UNL     1      -6.795  -1.476 122.972  0.00  0.00    +0.000 A 
ENDBRANCH   3   4
ENDBRANCH   1   3
BRANCH   1  10
ATOM     10  O   UNL     1      -9.595   0.988 124.811  0.00  0.00    +0.000 OA
BRANCH  10  11
ATOM     11  C   UNL     1      -8.669   1.668 125.553  0.00  0.00    +0.000 C 
ATOM     12  O   UNL     1      -8.654   2.874 125.784  0.00  0.00    +0.000 OA
BRANCH  11  13
ATOM     13  C   UNL     1      -7.621   0.758 126.093  0.00  0.00    +0.000 A 
ATOM     14  C   UNL     1      -6.276   0.935 125.721  0.00  0.00    +0.000 A 
ATOM     15  C   UNL     1      -5.310  -0.017 126.078  0.00  0.00    +0.000 A 
ATOM     16  C   UNL     1      -5.668  -1.115 126.858  0.00  0.00    +0.000 A 
ATOM     17  C   UNL     1      -6.998  -1.286 127.245  0.00  0.00    +0.000 A 
ATOM     18  C   UNL     1      -7.973  -0.358 126.859  0.00  0.00    +0.000 A 
ENDBRANCH  11  13
ENDBRANCH  10  11
ENDBRANCH   1  10
TORSDOF 5
ENDMDL
MODEL 6
REMARK VINA RESULT:      -5.6     10.234     11.306
REMARK  Name = Benzoyl peroxide
REMARK  5 active torsions:
REMARK  status: ('A' for Active; 'I' for Inactive)
REMARK    1  A    between atoms: C_2  and  O_3
REMARK    2  A    between atoms: C_2  and  C_13
REMARK    3  A    between atoms: O_3  and  O_4
REMARK    4  A    between atoms: O_4  and  C_5
REMARK    5  A    between atoms: C_5  and  C_7
REMARK                            x       y       z     vdW  Elec       q    Type
REMARK                         _______ _______ _______ _____ _____    ______ ____
ROOT
ATOM      1  O   UNL     1     -10.358   6.440 132.656  0.00  0.00    +0.000 OA
ENDROOT
BRANCH   1   3
ATOM      2  O   UNL     1      -9.452   4.504 133.415  0.00  0.00    +0.000 OA
ATOM      3  C   UNL     1      -9.296   5.599 132.878  0.00  0.00    +0.000 C 
BRANCH   3   4
ATOM      4  C   UNL     1      -7.921   5.986 132.469  0.00  0.00    +0.000 A 
ATOM      5  C   UNL     1      -7.712   6.743 131.314  0.00  0.00    +0.000 A 
ATOM      6  C   UNL     1      -6.417   7.027 130.888  0.00  0.00    +0.000 A 
ATOM      7  C   UNL     1      -5.325   6.675 131.681  0.00  0.00    +0.000 A 
ATOM      8  C   UNL     1      -5.526   6.001 132.885  0.00  0.00    +0.000 A 
ATOM      9  C   UNL     1      -6.823   5.652 133.280  0.00  0.00    +0.000 A 
ENDBRANCH   3   4
ENDBRANCH   1   3
BRANCH   1  10
ATOM     10  O   UNL     1     -11.373   5.860 131.760  0.00  0.00    +0.000 OA
BRANCH  10  11
ATOM     11  C   UNL     1     -12.169   6.892 131.343  0.00  0.00    +0.000 C 
ATOM     12  O   UNL     1     -13.102   7.396 131.960  0.00  0.00    +0.000 OA
BRANCH  11  13
ATOM     13  C   UNL     1     -11.771   7.382 129.994  0.00  0.00    +0.000 A 
ATOM     14  C   UNL     1     -12.562   8.337 129.330  0.00  0.00    +0.000 A 
ATOM     15  C   UNL     1     -12.299   8.672 127.995  0.00  0.00    +0.000 A 
ATOM     16  C   UNL     1     -11.210   8.105 127.335  0.00  0.00    +0.000 A 
ATOM     17  C   UNL     1     -10.412   7.170 127.994  0.00  0.00    +0.000 A 
ATOM     18  C   UNL     1     -10.693   6.803 129.315  0.00  0.00    +0.000 A 
ENDBRANCH  11  13
ENDBRANCH  10  11
ENDBRANCH   1  10
TORSDOF 5
ENDMDL
MODEL 7
REMARK VINA RESULT:      -5.5      8.240     10.498
REMARK  Name = Benzoyl peroxide
REMARK  5 active torsions:
REMARK  status: ('A' for Active; 'I' for Inactive)
REMARK    1  A    between atoms: C_2  and  O_3
REMARK    2  A    between atoms: C_2  and  C_13
REMARK    3  A    between atoms: O_3  and  O_4
REMARK    4  A    between atoms: O_4  and  C_5
REMARK    5  A    between atoms: C_5  and  C_7
REMARK                            x       y       z     vdW  Elec       q    Type
REMARK                         _______ _______ _______ _____ _____    ______ ____
ROOT
ATOM      1  O   UNL     1     -10.701   6.463 132.448  0.00  0.00    +0.000 OA
ENDROOT
BRANCH   1   3
ATOM      2  O   UNL     1      -8.443   6.437 132.663  0.00  0.00    +0.000 OA
ATOM      3  C   UNL     1      -9.478   5.844 132.367  0.00  0.00    +0.000 C 
BRANCH   3   4
ATOM      4  C   UNL     1      -9.369   4.430 131.921  0.00  0.00    +0.000 A 
ATOM      5  C   UNL     1      -9.277   4.121 130.563  0.00  0.00    +0.000 A 
ATOM      6  C   UNL     1      -9.265   2.791 130.148  0.00  0.00    +0.000 A 
ATOM      7  C   UNL     1      -9.207   1.763 131.088  0.00  0.00    +0.000 A 
ATOM      8  C   UNL     1      -9.202   2.064 132.450  0.00  0.00    +0.000 A 
ATOM      9  C   UNL     1      -9.287   3.396 132.870  0.00  0.00    +0.000 A 
ENDBRANCH   3   4
ENDBRANCH   1   3
BRANCH   1  10
ATOM     10  O   UNL     1     -11.719   5.839 131.586  0.00  0.00    +0.000 OA
BRANCH  10  11
ATOM     11  C   UNL     1     -12.450   6.856 131.036  0.00  0.00    +0.000 C 
ATOM     12  O   UNL     1     -13.273   7.562 131.610  0.00  0.00    +0.000 OA
BRANCH  11  13
ATOM     13  C   UNL     1     -12.132   7.044 129.594  0.00  0.00    +0.000 A 
ATOM     14  C   UNL     1     -10.897   7.597 129.212  0.00  0.00    +0.000 A 
ATOM     15  C   UNL     1     -10.657   7.943 127.875  0.00  0.00    +0.000 A 
ATOM     16  C   UNL     1     -11.622   7.682 126.903  0.00  0.00    +0.000 A 
ATOM     17  C   UNL     1     -12.842   7.117 127.274  0.00  0.00    +0.000 A 
ATOM     18  C   UNL     1     -13.101   6.805 128.614  0.00  0.00    +0.000 A 
ENDBRANCH  11  13
ENDBRANCH  10  11
ENDBRANCH   1  10
TORSDOF 5
ENDMDL
MODEL 8
REMARK VINA RESULT:      -5.5      2.790      4.811
REMARK  Name = Benzoyl peroxide
REMARK  5 active torsions:
REMARK  status: ('A' for Active; 'I' for Inactive)
REMARK    1  A    between atoms: C_2  and  O_3
REMARK    2  A    between atoms: C_2  and  C_13
REMARK    3  A    between atoms: O_3  and  O_4
REMARK    4  A    between atoms: O_4  and  C_5
REMARK    5  A    between atoms: C_5  and  C_7
REMARK                            x       y       z     vdW  Elec       q    Type
REMARK                         _______ _______ _______ _____ _____    ______ ____
ROOT
ATOM      1  O   UNL     1      -8.382   0.326 124.934  0.00  0.00    +0.000 OA
ENDROOT
BRANCH   1   3
ATOM      2  O   UNL     1     -10.019   1.889 124.769  0.00  0.00    +0.000 OA
ATOM      3  C   UNL     1      -8.938   1.453 124.379  0.00  0.00    +0.000 C 
BRANCH   3   4
ATOM      4  C   UNL     1      -8.243   2.185 123.288  0.00  0.00    +0.000 A 
ATOM      5  C   UNL     1      -6.848   2.221 123.236  0.00  0.00    +0.000 A 
ATOM      6  C   UNL     1      -6.203   2.982 122.264  0.00  0.00    +0.000 A 
ATOM      7  C   UNL     1      -6.941   3.602 121.256  0.00  0.00    +0.000 A 
ATOM      8  C   UNL     1      -8.332   3.495 121.243  0.00  0.00    +0.000 A 
ATOM      9  C   UNL     1      -8.986   2.790 122.260  0.00  0.00    +0.000 A 
ENDBRANCH   3   4
ENDBRANCH   1   3
BRANCH   1  10
ATOM     10  O   UNL     1      -9.265  -0.849 124.853  0.00  0.00    +0.000 OA
BRANCH  10  11
ATOM     11  C   UNL     1      -9.098  -1.384 123.605  0.00  0.00    +0.000 C 
ATOM     12  O   UNL     1      -9.888  -1.324 122.668  0.00  0.00    +0.000 OA
BRANCH  11  13
ATOM     13  C   UNL     1      -7.789  -2.082 123.477  0.00  0.00    +0.000 A 
ATOM     14  C   UNL     1      -7.459  -3.127 124.358  0.00  0.00    +0.000 A 
ATOM     15  C   UNL     1      -6.167  -3.671 124.363  0.00  0.00    +0.000 A 
ATOM     16  C   UNL     1      -5.217  -3.218 123.450  0.00  0.00    +0.000 A 
ATOM     17  C   UNL     1      -5.543  -2.194 122.561  0.00  0.00    +0.000 A 
ATOM     18  C   UNL     1      -6.821  -1.622 122.577  0.00  0.00    +0.000 A 
ENDBRANCH  11  13
ENDBRANCH  10  11
ENDBRANCH   1  10
TORSDOF 5
ENDMDL
MODEL 9
REMARK VINA RESULT:      -5.4      1.637      4.466
REMARK  Name = Benzoyl peroxide
REMARK  5 active torsions:
REMARK  status: ('A' for Active; 'I' for Inactive)
REMARK    1  A    between atoms: C_2  and  O_3
REMARK    2  A    between atoms: C_2  and  C_13
REMARK    3  A    between atoms: O_3  and  O_4
REMARK    4  A    between atoms: O_4  and  C_5
REMARK    5  A    between atoms: C_5  and  C_7
REMARK                            x       y       z     vdW  Elec       q    Type
REMARK                         _______ _______ _______ _____ _____    ______ ____
ROOT
ATOM      1  O   UNL     1      -9.237  -2.292 126.142  0.00  0.00    +0.000 OA
ENDROOT
BRANCH   1   3
ATOM      2  O   UNL     1      -9.379  -3.994 127.635  0.00  0.00    +0.000 OA
ATOM      3  C   UNL     1      -8.754  -3.031 127.193  0.00  0.00    +0.000 C 
BRANCH   3   4
ATOM      4  C   UNL     1      -7.454  -2.692 127.827  0.00  0.00    +0.000 A 
ATOM      5  C   UNL     1      -7.115  -3.219 129.076  0.00  0.00    +0.000 A 
ATOM      6  C   UNL     1      -5.936  -2.827 129.703  0.00  0.00    +0.000 A 
ATOM      7  C   UNL     1      -5.021  -2.015 129.034  0.00  0.00    +0.000 A 
ATOM      8  C   UNL     1      -5.305  -1.559 127.746  0.00  0.00    +0.000 A 
ATOM      9  C   UNL     1      -6.523  -1.893 127.142  0.00  0.00    +0.000 A 
ENDBRANCH   3   4
ENDBRANCH   1   3
BRANCH   1  10
ATOM     10  O   UNL     1      -9.651  -3.122 124.998  0.00  0.00    +0.000 OA
BRANCH  10  11
ATOM     11  C   UNL     1      -9.219  -2.482 123.868  0.00  0.00    +0.000 C 
ATOM     12  O   UNL     1      -9.884  -1.758 123.134  0.00  0.00    +0.000 OA
BRANCH  11  13
ATOM     13  C   UNL     1      -7.780  -2.756 123.598  0.00  0.00    +0.000 A 
ATOM     14  C   UNL     1      -7.130  -3.817 124.254  0.00  0.00    +0.000 A 
ATOM     15  C   UNL     1      -5.742  -3.974 124.145  0.00  0.00    +0.000 A 
ATOM     16  C   UNL     1      -5.004  -3.114 123.335  0.00  0.00    +0.000 A 
ATOM     17  C   UNL     1      -5.645  -2.070 122.668  0.00  0.00    +0.000 A 
ATOM     18  C   UNL     1      -7.027  -1.885 122.803  0.00  0.00    +0.000 A 
ENDBRANCH  11  13
ENDBRANCH  10  11
ENDBRANCH   1  10
TORSDOF 5
ENDMDL
