MODEL 1
REMARK VINA RESULT:      -7.9      0.000      0.000
REMARK  Name = Benzethonium
REMARK  19 active torsions:
REMARK  status: ('A' for Active; 'I' for Inactive)
REMARK    1  A    between atoms: C_1  and  C_2
REMARK    2  A    between atoms: C_2  and  C_3
REMARK    3  A    between atoms: C_2  and  C_4
REMARK    4  A    between atoms: C_2  and  C_5
REMARK    5  A    between atoms: C_5  and  C_6
REMARK    6  A    between atoms: C_6  and  C_7
REMARK    7  A    between atoms: C_6  and  C_8
REMARK    8  A    between atoms: C_6  and  C_9
REMARK    9  A    between atoms: C_12  and  O_13
REMARK   10  A    between atoms: O_13  and  C_14
REMARK   11  A    between atoms: C_14  and  C_15
REMARK   12  A    between atoms: C_15  and  O_16
REMARK   13  A    between atoms: O_16  and  C_17
REMARK   14  A    between atoms: C_17  and  C_18
REMARK   15  A    between atoms: C_18  and  N_19
REMARK   16  A    between atoms: N_19  and  C_20
REMARK   17  A    between atoms: N_19  and  C_21
REMARK   18  A    between atoms: N_19  and  C_22
REMARK   19  A    between atoms: C_22  and  C_23
REMARK                            x       y       z     vdW  Elec       q    Type
REMARK                         _______ _______ _______ _____ _____    ______ ____
ROOT
ATOM      1  O   UNL     1      -7.909  -2.447 130.485  0.00  0.00    +0.000 OA
ENDROOT
BRANCH   1   5
ATOM      2  C   UNL     1      -8.228  -2.571 126.350  0.00  0.00    +0.000 A 
ATOM      3  C   UNL     1      -7.715  -1.451 127.026  0.00  0.00    +0.000 A 
ATOM      4  C   UNL     1      -7.589  -1.456 128.409  0.00  0.00    +0.000 A 
ATOM      5  C   UNL     1      -8.036  -2.552 129.135  0.00  0.00    +0.000 A 
ATOM      6  C   UNL     1      -8.575  -3.655 128.483  0.00  0.00    +0.000 A 
ATOM      7  C   UNL     1      -8.666  -3.664 127.109  0.00  0.00    +0.000 A 
BRANCH   2   8
ATOM      8  C   UNL     1      -8.261  -2.629 124.814  0.00  0.00    +0.000 C 
ATOM      9  C   UNL     1      -8.244  -1.188 124.276  0.00  0.00    +0.000 C 
ATOM     10  C   UNL     1      -9.588  -3.275 124.365  0.00  0.00    +0.000 C 
BRANCH   8  11
ATOM     11  C   UNL     1      -7.007  -3.475 124.374  0.00  0.00    +0.000 C 
BRANCH  11  13
ATOM     12  C   UNL     1      -5.257  -1.669 124.712  0.00  0.00    +0.000 C 
ATOM     13  C   UNL     1      -5.761  -2.766 123.751  0.00  0.00    +0.000 C 
ATOM     14  C   UNL     1      -6.097  -2.057 122.434  0.00  0.00    +0.000 C 
ATOM     15  C   UNL     1      -4.579  -3.723 123.548  0.00  0.00    +0.000 C 
ENDBRANCH  11  13
ENDBRANCH   8  11
ENDBRANCH   2   8
ENDBRANCH   1   5
BRANCH   1  16
ATOM     16  C   UNL     1      -7.613  -1.131 130.912  0.00  0.00    +0.000 C 
BRANCH  16  17
ATOM     17  C   UNL     1      -8.288  -0.939 132.225  0.00  0.00    +0.000 C 
BRANCH  17  18
ATOM     18  O   UNL     1      -8.105   0.429 132.599  0.00  0.00    +0.000 OA
BRANCH  18  19
ATOM     19  C   UNL     1      -9.001   1.181 131.825  0.00  0.00    +0.000 C 
BRANCH  19  20
ATOM     20  C   UNL     1      -9.444   2.467 132.522  0.00  0.00    +0.000 C 
BRANCH  20  21
ATOM     21  N   UNL     1      -9.359   3.653 131.527  0.00  0.00    +0.000 N 
ATOM     22  C   UNL     1      -7.975   3.639 130.860  0.00  0.00    +0.000 C 
ATOM     23  C   UNL     1     -10.515   3.468 130.551  0.00  0.00    +0.000 C 
BRANCH  21  24
ATOM     24  C   UNL     1      -9.508   5.003 132.298  0.00  0.00    +0.000 C 
BRANCH  24  25
ATOM     25  C   UNL     1     -10.237   6.111 131.553  0.00  0.00    +0.000 A 
ATOM     26  C   UNL     1     -11.571   6.476 131.780  0.00  0.00    +0.000 A 
ATOM     27  C   UNL     1     -12.336   7.171 130.865  0.00  0.00    +0.000 A 
ATOM     28  C   UNL     1     -11.693   7.787 129.809  0.00  0.00    +0.000 A 
ATOM     29  C   UNL     1     -10.317   7.634 129.669  0.00  0.00    +0.000 A 
ATOM     30  C   UNL     1      -9.591   6.778 130.503  0.00  0.00    +0.000 A 
ENDBRANCH  24  25
ENDBRANCH  21  24
ENDBRANCH  20  21
ENDBRANCH  19  20
ENDBRANCH  18  19
ENDBRANCH  17  18
ENDBRANCH  16  17
ENDBRANCH   1  16
TORSDOF 12
ENDMDL
MODEL 2
REMARK VINA RESULT:      -7.8      4.777      6.847
REMARK  Name = Benzethonium
REMARK  19 active torsions:
REMARK  status: ('A' for Active; 'I' for Inactive)
REMARK    1  A    between atoms: C_1  and  C_2
REMARK    2  A    between atoms: C_2  and  C_3
REMARK    3  A    between atoms: C_2  and  C_4
REMARK    4  A    between atoms: C_2  and  C_5
REMARK    5  A    between atoms: C_5  and  C_6
REMARK    6  A    between atoms: C_6  and  C_7
REMARK    7  A    between atoms: C_6  and  C_8
REMARK    8  A    between atoms: C_6  and  C_9
REMARK    9  A    between atoms: C_12  and  O_13
REMARK   10  A    between atoms: O_13  and  C_14
REMARK   11  A    between atoms: C_14  and  C_15
REMARK   12  A    between atoms: C_15  and  O_16
REMARK   13  A    between atoms: O_16  and  C_17
REMARK   14  A    between atoms: C_17  and  C_18
REMARK   15  A    between atoms: C_18  and  N_19
REMARK   16  A    between atoms: N_19  and  C_20
REMARK   17  A    between atoms: N_19  and  C_21
REMARK   18  A    between atoms: N_19  and  C_22
REMARK   19  A    between atoms: C_22  and  C_23
REMARK                            x       y       z     vdW  Elec       q    Type
REMARK                         _______ _______ _______ _____ _____    ______ ____
ROOT
ATOM      1  O   UNL     1      -7.861  -2.508 130.577  0.00  0.00    +0.000 OA
ENDROOT
BRANCH   1   5
ATOM      2  C   UNL     1      -8.211  -2.590 126.444  0.00  0.00    +0.000 A 
ATOM      3  C   UNL     1      -7.633  -1.504 127.123  0.00  0.00    +0.000 A 
ATOM      4  C   UNL     1      -7.499  -1.524 128.505  0.00  0.00    +0.000 A 
ATOM      5  C   UNL     1      -8.001  -2.598 129.227  0.00  0.00    +0.000 A 
ATOM      6  C   UNL     1      -8.605  -3.665 128.573  0.00  0.00    +0.000 A 
ATOM      7  C   UNL     1      -8.704  -3.661 127.199  0.00  0.00    +0.000 A 
BRANCH   2   8
ATOM      8  C   UNL     1      -8.256  -2.638 124.907  0.00  0.00    +0.000 C 
ATOM      9  C   UNL     1      -8.270  -1.192 124.381  0.00  0.00    +0.000 C 
ATOM     10  C   UNL     1      -9.576  -3.304 124.465  0.00  0.00    +0.000 C 
BRANCH   8  11
ATOM     11  C   UNL     1      -6.991  -3.457 124.450  0.00  0.00    +0.000 C 
BRANCH  11  13
ATOM     12  C   UNL     1      -4.630  -3.737 123.564  0.00  0.00    +0.000 C 
ATOM     13  C   UNL     1      -5.763  -2.721 123.824  0.00  0.00    +0.000 C 
ATOM     14  C   UNL     1      -5.180  -1.664 124.768  0.00  0.00    +0.000 C 
ATOM     15  C   UNL     1      -6.084  -2.093 122.462  0.00  0.00    +0.000 C 
ENDBRANCH  11  13
ENDBRANCH   8  11
ENDBRANCH   2   8
ENDBRANCH   1   5
BRANCH   1  16
ATOM     16  C   UNL     1      -7.860  -1.173 131.045  0.00  0.00    +0.000 C 
BRANCH  16  17
ATOM     17  C   UNL     1      -7.126  -1.168 132.340  0.00  0.00    +0.000 C 
BRANCH  17  18
ATOM     18  O   UNL     1      -7.975  -1.786 133.310  0.00  0.00    +0.000 OA
BRANCH  18  19
ATOM     19  C   UNL     1      -7.146  -2.557 134.137  0.00  0.00    +0.000 C 
BRANCH  19  20
ATOM     20  C   UNL     1      -6.726  -3.875 133.487  0.00  0.00    +0.000 C 
BRANCH  20  21
ATOM     21  N   UNL     1      -5.464  -4.427 134.199  0.00  0.00    +0.000 N 
ATOM     22  C   UNL     1      -4.934  -3.356 135.165  0.00  0.00    +0.000 C 
ATOM     23  C   UNL     1      -5.898  -5.717 134.886  0.00  0.00    +0.000 C 
BRANCH  21  24
ATOM     24  C   UNL     1      -4.348  -4.720 133.146  0.00  0.00    +0.000 C 
BRANCH  24  25
ATOM     25  C   UNL     1      -4.373  -3.847 131.899  0.00  0.00    +0.000 A 
ATOM     26  C   UNL     1      -4.902  -4.244 130.663  0.00  0.00    +0.000 A 
ATOM     27  C   UNL     1      -4.572  -3.641 129.466  0.00  0.00    +0.000 A 
ATOM     28  C   UNL     1      -3.927  -2.419 129.505  0.00  0.00    +0.000 A 
ATOM     29  C   UNL     1      -3.578  -1.875 130.737  0.00  0.00    +0.000 A 
ATOM     30  C   UNL     1      -3.760  -2.587 131.926  0.00  0.00    +0.000 A 
ENDBRANCH  24  25
ENDBRANCH  21  24
ENDBRANCH  20  21
ENDBRANCH  19  20
ENDBRANCH  18  19
ENDBRANCH  17  18
ENDBRANCH  16  17
ENDBRANCH   1  16
TORSDOF 12
ENDMDL
MODEL 3
REMARK VINA RESULT:      -7.7      4.854      7.359
REMARK  Name = Benzethonium
REMARK  19 active torsions:
REMARK  status: ('A' for Active; 'I' for Inactive)
REMARK    1  A    between atoms: C_1  and  C_2
REMARK    2  A    between atoms: C_2  and  C_3
REMARK    3  A    between atoms: C_2  and  C_4
REMARK    4  A    between atoms: C_2  and  C_5
REMARK    5  A    between atoms: C_5  and  C_6
REMARK    6  A    between atoms: C_6  and  C_7
REMARK    7  A    between atoms: C_6  and  C_8
REMARK    8  A    between atoms: C_6  and  C_9
REMARK    9  A    between atoms: C_12  and  O_13
REMARK   10  A    between atoms: O_13  and  C_14
REMARK   11  A    between atoms: C_14  and  C_15
REMARK   12  A    between atoms: C_15  and  O_16
REMARK   13  A    between atoms: O_16  and  C_17
REMARK   14  A    between atoms: C_17  and  C_18
REMARK   15  A    between atoms: C_18  and  N_19
REMARK   16  A    between atoms: N_19  and  C_20
REMARK   17  A    between atoms: N_19  and  C_21
REMARK   18  A    between atoms: N_19  and  C_22
REMARK   19  A    between atoms: C_22  and  C_23
REMARK                            x       y       z     vdW  Elec       q    Type
REMARK                         _______ _______ _______ _____ _____    ______ ____
ROOT
ATOM      1  O   UNL     1      -9.403  -3.287 125.365  0.00  0.00    +0.000 OA
ENDROOT
BRANCH   1   5
ATOM      2  C   UNL     1      -7.721  -2.209 129.001  0.00  0.00    +0.000 A 
ATOM      3  C   UNL     1      -7.618  -1.395 127.860  0.00  0.00    +0.000 A 
ATOM      4  C   UNL     1      -8.223  -1.770 126.667  0.00  0.00    +0.000 A 
ATOM      5  C   UNL     1      -8.879  -2.990 126.584  0.00  0.00    +0.000 A 
ATOM      6  C   UNL     1      -8.962  -3.821 127.695  0.00  0.00    +0.000 A 
ATOM      7  C   UNL     1      -8.393  -3.432 128.888  0.00  0.00    +0.000 A 
BRANCH   2   8
ATOM      8  C   UNL     1      -7.163  -1.753 130.359  0.00  0.00    +0.000 C 
ATOM      9  C   UNL     1      -8.220  -0.868 131.042  0.00  0.00    +0.000 C 
ATOM     10  C   UNL     1      -5.913  -0.879 130.119  0.00  0.00    +0.000 C 
BRANCH   8  11
ATOM     11  C   UNL     1      -6.829  -3.063 131.166  0.00  0.00    +0.000 C 
BRANCH  11  13
ATOM     12  C   UNL     1      -5.409  -5.110 131.650  0.00  0.00    +0.000 C 
ATOM     13  C   UNL     1      -5.381  -3.653 131.142  0.00  0.00    +0.000 C 
ATOM     14  C   UNL     1      -4.432  -2.894 132.076  0.00  0.00    +0.000 C 
ATOM     15  C   UNL     1      -4.793  -3.712 129.726  0.00  0.00    +0.000 C 
ENDBRANCH  11  13
ENDBRANCH   8  11
ENDBRANCH   2   8
ENDBRANCH   1   5
BRANCH   1  16
ATOM     16  C   UNL     1      -8.414  -3.506 124.376  0.00  0.00    +0.000 C 
BRANCH  16  17
ATOM     17  C   UNL     1      -8.926  -2.911 123.111  0.00  0.00    +0.000 C 
BRANCH  17  18
ATOM     18  O   UNL     1      -9.819  -1.855 123.471  0.00  0.00    +0.000 OA
BRANCH  18  19
ATOM     19  C   UNL     1      -9.405  -0.718 122.762  0.00  0.00    +0.000 C 
BRANCH  19  20
ATOM     20  C   UNL     1      -9.607   0.575 123.552  0.00  0.00    +0.000 C 
BRANCH  20  21
ATOM     21  N   UNL     1      -8.271   1.359 123.616  0.00  0.00    +0.000 N 
ATOM     22  C   UNL     1      -7.132   0.433 123.162  0.00  0.00    +0.000 C 
ATOM     23  C   UNL     1      -8.459   2.585 122.730  0.00  0.00    +0.000 C 
BRANCH  21  24
ATOM     24  C   UNL     1      -7.981   1.791 125.089  0.00  0.00    +0.000 C 
BRANCH  24  25
ATOM     25  C   UNL     1      -6.534   2.144 125.400  0.00  0.00    +0.000 A 
ATOM     26  C   UNL     1      -5.658   1.328 126.130  0.00  0.00    +0.000 A 
ATOM     27  C   UNL     1      -4.517   1.799 126.747  0.00  0.00    +0.000 A 
ATOM     28  C   UNL     1      -4.055   3.054 126.399  0.00  0.00    +0.000 A 
ATOM     29  C   UNL     1      -4.785   3.818 125.494  0.00  0.00    +0.000 A 
ATOM     30  C   UNL     1      -6.031   3.395 125.021  0.00  0.00    +0.000 A 
ENDBRANCH  24  25
ENDBRANCH  21  24
ENDBRANCH  20  21
ENDBRANCH  19  20
ENDBRANCH  18  19
ENDBRANCH  17  18
ENDBRANCH  16  17
ENDBRANCH   1  16
TORSDOF 12
ENDMDL
MODEL 4
REMARK VINA RESULT:      -7.6      6.321      9.595
REMARK  Name = Benzethonium
REMARK  19 active torsions:
REMARK  status: ('A' for Active; 'I' for Inactive)
REMARK    1  A    between atoms: C_1  and  C_2
REMARK    2  A    between atoms: C_2  and  C_3
REMARK    3  A    between atoms: C_2  and  C_4
REMARK    4  A    between atoms: C_2  and  C_5
REMARK    5  A    between atoms: C_5  and  C_6
REMARK    6  A    between atoms: C_6  and  C_7
REMARK    7  A    between atoms: C_6  and  C_8
REMARK    8  A    between atoms: C_6  and  C_9
REMARK    9  A    between atoms: C_12  and  O_13
REMARK   10  A    between atoms: O_13  and  C_14
REMARK   11  A    between atoms: C_14  and  C_15
REMARK   12  A    between atoms: C_15  and  O_16
REMARK   13  A    between atoms: O_16  and  C_17
REMARK   14  A    between atoms: C_17  and  C_18
REMARK   15  A    between atoms: C_18  and  N_19
REMARK   16  A    between atoms: N_19  and  C_20
REMARK   17  A    between atoms: N_19  and  C_21
REMARK   18  A    between atoms: N_19  and  C_22
REMARK   19  A    between atoms: C_22  and  C_23
REMARK                            x       y       z     vdW  Elec       q    Type
REMARK                         _______ _______ _______ _____ _____    ______ ____
ROOT
ATOM      1  O   UNL     1      -5.866   5.880 133.374  0.00  0.00    +0.000 OA
ENDROOT
BRANCH   1   5
ATOM      2  C   UNL     1      -9.547   6.347 131.519  0.00  0.00    +0.000 A 
ATOM      3  C   UNL     1      -8.348   6.754 130.911  0.00  0.00    +0.000 A 
ATOM      4  C   UNL     1      -7.129   6.550 131.545  0.00  0.00    +0.000 A 
ATOM      5  C   UNL     1      -7.101   6.001 132.819  0.00  0.00    +0.000 A 
ATOM      6  C   UNL     1      -8.282   5.623 133.448  0.00  0.00    +0.000 A 
ATOM      7  C   UNL     1      -9.487   5.791 132.803  0.00  0.00    +0.000 A 
BRANCH   2   8
ATOM      8  C   UNL     1     -10.892   6.453 130.781  0.00  0.00    +0.000 C 
ATOM      9  C   UNL     1     -11.964   6.890 131.794  0.00  0.00    +0.000 C 
ATOM     10  C   UNL     1     -11.290   5.055 130.262  0.00  0.00    +0.000 C 
BRANCH   8  11
ATOM     11  C   UNL     1     -10.678   7.486 129.612  0.00  0.00    +0.000 C 
BRANCH  11  13
ATOM     12  C   UNL     1     -11.333   8.190 127.263  0.00  0.00    +0.000 C 
ATOM     13  C   UNL     1     -11.869   7.868 128.674  0.00  0.00    +0.000 C 
ATOM     14  C   UNL     1     -12.598   9.130 129.151  0.00  0.00    +0.000 C 
ATOM     15  C   UNL     1     -12.868   6.718 128.492  0.00  0.00    +0.000 C 
ENDBRANCH  11  13
ENDBRANCH   8  11
ENDBRANCH   2   8
ENDBRANCH   1   5
BRANCH   1  16
ATOM     16  C   UNL     1      -5.524   4.540 133.676  0.00  0.00    +0.000 C 
BRANCH  16  17
ATOM     17  C   UNL     1      -4.219   4.265 133.015  0.00  0.00    +0.000 C 
BRANCH  17  18
ATOM     18  O   UNL     1      -4.420   3.168 132.122  0.00  0.00    +0.000 OA
BRANCH  18  19
ATOM     19  C   UNL     1      -4.703   3.719 130.864  0.00  0.00    +0.000 C 
BRANCH  19  20
ATOM     20  C   UNL     1      -3.444   4.148 130.111  0.00  0.00    +0.000 C 
BRANCH  20  21
ATOM     21  N   UNL     1      -3.842   4.962 128.853  0.00  0.00    +0.000 N 
ATOM     22  C   UNL     1      -2.807   4.702 127.748  0.00  0.00    +0.000 C 
ATOM     23  C   UNL     1      -5.254   4.517 128.493  0.00  0.00    +0.000 C 
BRANCH  21  24
ATOM     24  C   UNL     1      -3.820   6.488 129.183  0.00  0.00    +0.000 C 
BRANCH  24  25
ATOM     25  C   UNL     1      -2.958   6.894 130.371  0.00  0.00    +0.000 A 
ATOM     26  C   UNL     1      -1.614   6.535 130.534  0.00  0.00    +0.000 A 
ATOM     27  C   UNL     1      -0.966   6.547 131.753  0.00  0.00    +0.000 A 
ATOM     28  C   UNL     1      -1.566   7.211 132.806  0.00  0.00    +0.000 A 
ATOM     29  C   UNL     1      -2.821   7.784 132.620  0.00  0.00    +0.000 A 
ATOM     30  C   UNL     1      -3.536   7.603 131.432  0.00  0.00    +0.000 A 
ENDBRANCH  24  25
ENDBRANCH  21  24
ENDBRANCH  20  21
ENDBRANCH  19  20
ENDBRANCH  18  19
ENDBRANCH  17  18
ENDBRANCH  16  17
ENDBRANCH   1  16
TORSDOF 12
ENDMDL
MODEL 5
REMARK VINA RESULT:      -7.5      4.988      8.053
REMARK  Name = Benzethonium
REMARK  19 active torsions:
REMARK  status: ('A' for Active; 'I' for Inactive)
REMARK    1  A    between atoms: C_1  and  C_2
REMARK    2  A    between atoms: C_2  and  C_3
REMARK    3  A    between atoms: C_2  and  C_4
REMARK    4  A    between atoms: C_2  and  C_5
REMARK    5  A    between atoms: C_5  and  C_6
REMARK    6  A    between atoms: C_6  and  C_7
REMARK    7  A    between atoms: C_6  and  C_8
REMARK    8  A    between atoms: C_6  and  C_9
REMARK    9  A    between atoms: C_12  and  O_13
REMARK   10  A    between atoms: O_13  and  C_14
REMARK   11  A    between atoms: C_14  and  C_15
REMARK   12  A    between atoms: C_15  and  O_16
REMARK   13  A    between atoms: O_16  and  C_17
REMARK   14  A    between atoms: C_17  and  C_18
REMARK   15  A    between atoms: C_18  and  N_19
REMARK   16  A    between atoms: N_19  and  C_20
REMARK   17  A    between atoms: N_19  and  C_21
REMARK   18  A    between atoms: N_19  and  C_22
REMARK   19  A    between atoms: C_22  and  C_23
REMARK                            x       y       z     vdW  Elec       q    Type
REMARK                         _______ _______ _______ _____ _____    ______ ____
ROOT
ATOM      1  O   UNL     1      -9.350  -3.210 125.682  0.00  0.00    +0.000 OA
ENDROOT
BRANCH   1   5
ATOM      2  C   UNL     1      -6.787  -2.822 128.921  0.00  0.00    +0.000 A 
ATOM      3  C   UNL     1      -8.013  -3.501 129.016  0.00  0.00    +0.000 A 
ATOM      4  C   UNL     1      -8.831  -3.643 127.903  0.00  0.00    +0.000 A 
ATOM      5  C   UNL     1      -8.465  -3.051 126.702  0.00  0.00    +0.000 A 
ATOM      6  C   UNL     1      -7.270  -2.349 126.600  0.00  0.00    +0.000 A 
ATOM      7  C   UNL     1      -6.441  -2.240 127.695  0.00  0.00    +0.000 A 
BRANCH   2   8
ATOM      8  C   UNL     1      -5.814  -2.761 130.110  0.00  0.00    +0.000 C 
ATOM      9  C   UNL     1      -5.552  -1.282 130.443  0.00  0.00    +0.000 C 
ATOM     10  C   UNL     1      -4.467  -3.386 129.689  0.00  0.00    +0.000 C 
BRANCH   8  11
ATOM     11  C   UNL     1      -6.498  -3.554 131.286  0.00  0.00    +0.000 C 
BRANCH  11  13
ATOM     12  C   UNL     1      -7.465  -1.732 132.764  0.00  0.00    +0.000 C 
ATOM     13  C   UNL     1      -6.522  -2.953 132.729  0.00  0.00    +0.000 C 
ATOM     14  C   UNL     1      -5.144  -2.441 133.165  0.00  0.00    +0.000 C 
ATOM     15  C   UNL     1      -7.071  -3.939 133.769  0.00  0.00    +0.000 C 
ENDBRANCH  11  13
ENDBRANCH   8  11
ENDBRANCH   2   8
ENDBRANCH   1   5
BRANCH   1  16
ATOM     16  C   UNL     1      -8.743  -3.674 124.491  0.00  0.00    +0.000 C 
BRANCH  16  17
ATOM     17  C   UNL     1      -9.316  -2.874 123.372  0.00  0.00    +0.000 C 
BRANCH  17  18
ATOM     18  O   UNL     1      -8.286  -1.999 122.907  0.00  0.00    +0.000 OA
BRANCH  18  19
ATOM     19  C   UNL     1      -8.817  -0.702 122.938  0.00  0.00    +0.000 C 
BRANCH  19  20
ATOM     20  C   UNL     1      -7.919   0.285 123.685  0.00  0.00    +0.000 C 
BRANCH  20  21
ATOM     21  N   UNL     1      -8.794   1.357 124.384  0.00  0.00    +0.000 N 
ATOM     22  C   UNL     1     -10.209   1.307 123.786  0.00  0.00    +0.000 C 
ATOM     23  C   UNL     1      -8.744   1.037 125.873  0.00  0.00    +0.000 C 
BRANCH  21  24
ATOM     24  C   UNL     1      -8.207   2.778 124.113  0.00  0.00    +0.000 C 
BRANCH  24  25
ATOM     25  C   UNL     1      -7.733   3.034 122.689  0.00  0.00    +0.000 A 
ATOM     26  C   UNL     1      -6.389   3.060 122.293  0.00  0.00    +0.000 A 
ATOM     27  C   UNL     1      -5.949   3.674 121.137  0.00  0.00    +0.000 A 
ATOM     28  C   UNL     1      -6.886   4.026 120.185  0.00  0.00    +0.000 A 
ATOM     29  C   UNL     1      -8.235   3.809 120.448  0.00  0.00    +0.000 A 
ATOM     30  C   UNL     1      -8.670   3.354 121.697  0.00  0.00    +0.000 A 
ENDBRANCH  24  25
ENDBRANCH  21  24
ENDBRANCH  20  21
ENDBRANCH  19  20
ENDBRANCH  18  19
ENDBRANCH  17  18
ENDBRANCH  16  17
ENDBRANCH   1  16
TORSDOF 12
ENDMDL
MODEL 6
REMARK VINA RESULT:      -7.5      2.120      3.928
REMARK  Name = Benzethonium
REMARK  19 active torsions:
REMARK  status: ('A' for Active; 'I' for Inactive)
REMARK    1  A    between atoms: C_1  and  C_2
REMARK    2  A    between atoms: C_2  and  C_3
REMARK    3  A    between atoms: C_2  and  C_4
REMARK    4  A    between atoms: C_2  and  C_5
REMARK    5  A    between atoms: C_5  and  C_6
REMARK    6  A    between atoms: C_6  and  C_7
REMARK    7  A    between atoms: C_6  and  C_8
REMARK    8  A    between atoms: C_6  and  C_9
REMARK    9  A    between atoms: C_12  and  O_13
REMARK   10  A    between atoms: O_13  and  C_14
REMARK   11  A    between atoms: C_14  and  C_15
REMARK   12  A    between atoms: C_15  and  O_16
REMARK   13  A    between atoms: O_16  and  C_17
REMARK   14  A    between atoms: C_17  and  C_18
REMARK   15  A    between atoms: C_18  and  N_19
REMARK   16  A    between atoms: N_19  and  C_20
REMARK   17  A    between atoms: N_19  and  C_21
REMARK   18  A    between atoms: N_19  and  C_22
REMARK   19  A    between atoms: C_22  and  C_23
REMARK                            x       y       z     vdW  Elec       q    Type
REMARK                         _______ _______ _______ _____ _____    ______ ____
ROOT
ATOM      1  O   UNL     1      -8.032  -2.638 130.395  0.00  0.00    +0.000 OA
ENDROOT
BRANCH   1   5
ATOM      2  C   UNL     1      -8.238  -2.710 126.252  0.00  0.00    +0.000 A 
ATOM      3  C   UNL     1      -7.631  -1.653 126.951  0.00  0.00    +0.000 A 
ATOM      4  C   UNL     1      -7.548  -1.677 128.337  0.00  0.00    +0.000 A 
ATOM      5  C   UNL     1      -8.129  -2.723 129.041  0.00  0.00    +0.000 A 
ATOM      6  C   UNL     1      -8.761  -3.760 128.366  0.00  0.00    +0.000 A 
ATOM      7  C   UNL     1      -8.810  -3.754 126.989  0.00  0.00    +0.000 A 
BRANCH   2   8
ATOM      8  C   UNL     1      -8.230  -2.758 124.715  0.00  0.00    +0.000 C 
ATOM      9  C   UNL     1      -8.244  -1.313 124.187  0.00  0.00    +0.000 C 
ATOM     10  C   UNL     1      -9.525  -3.441 124.228  0.00  0.00    +0.000 C 
BRANCH   8  11
ATOM     11  C   UNL     1      -6.940  -3.562 124.301  0.00  0.00    +0.000 C 
BRANCH  11  13
ATOM     12  C   UNL     1      -6.029  -2.084 122.450  0.00  0.00    +0.000 C 
ATOM     13  C   UNL     1      -5.680  -2.805 123.769  0.00  0.00    +0.000 C 
ATOM     14  C   UNL     1      -4.527  -3.761 123.440  0.00  0.00    +0.000 C 
ATOM     15  C   UNL     1      -5.200  -1.711 124.732  0.00  0.00    +0.000 C 
ENDBRANCH  11  13
ENDBRANCH   8  11
ENDBRANCH   2   8
ENDBRANCH   1   5
BRANCH   1  16
ATOM     16  C   UNL     1      -7.396  -1.451 130.830  0.00  0.00    +0.000 C 
BRANCH  16  17
ATOM     17  C   UNL     1      -8.059  -1.044 132.100  0.00  0.00    +0.000 C 
BRANCH  17  18
ATOM     18  O   UNL     1      -7.947   0.377 132.198  0.00  0.00    +0.000 OA
BRANCH  18  19
ATOM     19  C   UNL     1      -8.689   0.914 131.137  0.00  0.00    +0.000 C 
BRANCH  19  20
ATOM     20  C   UNL     1      -8.586   2.437 131.056  0.00  0.00    +0.000 C 
BRANCH  20  21
ATOM     21  N   UNL     1      -7.894   2.841 129.728  0.00  0.00    +0.000 N 
ATOM     22  C   UNL     1      -8.495   4.170 129.243  0.00  0.00    +0.000 C 
ATOM     23  C   UNL     1      -6.403   2.915 130.036  0.00  0.00    +0.000 C 
BRANCH  21  24
ATOM     24  C   UNL     1      -8.172   1.760 128.637  0.00  0.00    +0.000 C 
BRANCH  24  25
ATOM     25  C   UNL     1      -7.554   2.028 127.271  0.00  0.00    +0.000 A 
ATOM     26  C   UNL     1      -8.272   2.460 126.147  0.00  0.00    +0.000 A 
ATOM     27  C   UNL     1      -7.815   2.314 124.853  0.00  0.00    +0.000 A 
ATOM     28  C   UNL     1      -6.484   2.001 124.659  0.00  0.00    +0.000 A 
ATOM     29  C   UNL     1      -5.671   1.780 125.767  0.00  0.00    +0.000 A 
ATOM     30  C   UNL     1      -6.196   1.754 127.063  0.00  0.00    +0.000 A 
ENDBRANCH  24  25
ENDBRANCH  21  24
ENDBRANCH  20  21
ENDBRANCH  19  20
ENDBRANCH  18  19
ENDBRANCH  17  18
ENDBRANCH  16  17
ENDBRANCH   1  16
TORSDOF 12
ENDMDL
MODEL 7
REMARK VINA RESULT:      -7.4      1.857      3.139
REMARK  Name = Benzethonium
REMARK  19 active torsions:
REMARK  status: ('A' for Active; 'I' for Inactive)
REMARK    1  A    between atoms: C_1  and  C_2
REMARK    2  A    between atoms: C_2  and  C_3
REMARK    3  A    between atoms: C_2  and  C_4
REMARK    4  A    between atoms: C_2  and  C_5
REMARK    5  A    between atoms: C_5  and  C_6
REMARK    6  A    between atoms: C_6  and  C_7
REMARK    7  A    between atoms: C_6  and  C_8
REMARK    8  A    between atoms: C_6  and  C_9
REMARK    9  A    between atoms: C_12  and  O_13
REMARK   10  A    between atoms: O_13  and  C_14
REMARK   11  A    between atoms: C_14  and  C_15
REMARK   12  A    between atoms: C_15  and  O_16
REMARK   13  A    between atoms: O_16  and  C_17
REMARK   14  A    between atoms: C_17  and  C_18
REMARK   15  A    between atoms: C_18  and  N_19
REMARK   16  A    between atoms: N_19  and  C_20
REMARK   17  A    between atoms: N_19  and  C_21
REMARK   18  A    between atoms: N_19  and  C_22
REMARK   19  A    between atoms: C_22  and  C_23
REMARK                            x       y       z     vdW  Elec       q    Type
REMARK                         _______ _______ _______ _____ _____    ______ ____
ROOT
ATOM      1  O   UNL     1      -5.391   0.344 128.631  0.00  0.00    +0.000 OA
ENDROOT
BRANCH   1   5
ATOM      2  C   UNL     1      -5.734  -1.998 125.225  0.00  0.00    +0.000 A 
ATOM      3  C   UNL     1      -5.648  -2.558 126.511  0.00  0.00    +0.000 A 
ATOM      4  C   UNL     1      -5.569  -1.744 127.633  0.00  0.00    +0.000 A 
ATOM      5  C   UNL     1      -5.509  -0.366 127.478  0.00  0.00    +0.000 A 
ATOM      6  C   UNL     1      -5.561   0.203 126.211  0.00  0.00    +0.000 A 
ATOM      7  C   UNL     1      -5.677  -0.604 125.100  0.00  0.00    +0.000 A 
BRANCH   2   8
ATOM      8  C   UNL     1      -5.945  -2.880 123.983  0.00  0.00    +0.000 C 
ATOM      9  C   UNL     1      -4.781  -3.882 123.901  0.00  0.00    +0.000 C 
ATOM     10  C   UNL     1      -5.881  -1.993 122.721  0.00  0.00    +0.000 C 
BRANCH   8  11
ATOM     11  C   UNL     1      -7.351  -3.568 124.158  0.00  0.00    +0.000 C 
BRANCH  11  13
ATOM     12  C   UNL     1      -9.800  -3.575 123.495  0.00  0.00    +0.000 C 
ATOM     13  C   UNL     1      -8.658  -2.715 124.077  0.00  0.00    +0.000 C 
ATOM     14  C   UNL     1      -8.508  -1.514 123.136  0.00  0.00    +0.000 C 
ATOM     15  C   UNL     1      -9.144  -2.248 125.456  0.00  0.00    +0.000 C 
ENDBRANCH  11  13
ENDBRANCH   8  11
ENDBRANCH   2   8
ENDBRANCH   1   5
BRANCH   1  16
ATOM     16  C   UNL     1      -5.144   1.720 128.412  0.00  0.00    +0.000 C 
BRANCH  16  17
ATOM     17  C   UNL     1      -6.124   2.475 129.240  0.00  0.00    +0.000 C 
BRANCH  17  18
ATOM     18  O   UNL     1      -6.601   1.583 130.250  0.00  0.00    +0.000 OA
BRANCH  18  19
ATOM     19  C   UNL     1      -7.764   2.159 130.779  0.00  0.00    +0.000 C 
BRANCH  19  20
ATOM     20  C   UNL     1      -7.489   3.468 131.520  0.00  0.00    +0.000 C 
BRANCH  20  21
ATOM     21  N   UNL     1      -8.822   4.228 131.746  0.00  0.00    +0.000 N 
ATOM     22  C   UNL     1      -9.871   3.688 130.761  0.00  0.00    +0.000 C 
ATOM     23  C   UNL     1      -9.185   4.014 133.211  0.00  0.00    +0.000 C 
BRANCH  21  24
ATOM     24  C   UNL     1      -8.621   5.748 131.451  0.00  0.00    +0.000 C 
BRANCH  24  25
ATOM     25  C   UNL     1      -9.888   6.533 131.142  0.00  0.00    +0.000 A 
ATOM     26  C   UNL     1     -11.055   6.491 131.917  0.00  0.00    +0.000 A 
ATOM     27  C   UNL     1     -12.297   6.860 131.441  0.00  0.00    +0.000 A 
ATOM     28  C   UNL     1     -12.360   7.571 130.258  0.00  0.00    +0.000 A 
ATOM     29  C   UNL     1     -11.185   7.832 129.560  0.00  0.00    +0.000 A 
ATOM     30  C   UNL     1      -9.960   7.292 129.967  0.00  0.00    +0.000 A 
ENDBRANCH  24  25
ENDBRANCH  21  24
ENDBRANCH  20  21
ENDBRANCH  19  20
ENDBRANCH  18  19
ENDBRANCH  17  18
ENDBRANCH  16  17
ENDBRANCH   1  16
TORSDOF 12
ENDMDL
MODEL 8
REMARK VINA RESULT:      -7.3      4.491      7.219
REMARK  Name = Benzethonium
REMARK  19 active torsions:
REMARK  status: ('A' for Active; 'I' for Inactive)
REMARK    1  A    between atoms: C_1  and  C_2
REMARK    2  A    between atoms: C_2  and  C_3
REMARK    3  A    between atoms: C_2  and  C_4
REMARK    4  A    between atoms: C_2  and  C_5
REMARK    5  A    between atoms: C_5  and  C_6
REMARK    6  A    between atoms: C_6  and  C_7
REMARK    7  A    between atoms: C_6  and  C_8
REMARK    8  A    between atoms: C_6  and  C_9
REMARK    9  A    between atoms: C_12  and  O_13
REMARK   10  A    between atoms: O_13  and  C_14
REMARK   11  A    between atoms: C_14  and  C_15
REMARK   12  A    between atoms: C_15  and  O_16
REMARK   13  A    between atoms: O_16  and  C_17
REMARK   14  A    between atoms: C_17  and  C_18
REMARK   15  A    between atoms: C_18  and  N_19
REMARK   16  A    between atoms: N_19  and  C_20
REMARK   17  A    between atoms: N_19  and  C_21
REMARK   18  A    between atoms: N_19  and  C_22
REMARK   19  A    between atoms: C_22  and  C_23
REMARK                            x       y       z     vdW  Elec       q    Type
REMARK                         _______ _______ _______ _____ _____    ______ ____
ROOT
ATOM      1  O   UNL     1      -9.181  -3.105 125.409  0.00  0.00    +0.000 OA
ENDROOT
BRANCH   1   5
ATOM      2  C   UNL     1      -7.171  -3.058 129.038  0.00  0.00    +0.000 A 
ATOM      3  C   UNL     1      -8.403  -3.713 128.876  0.00  0.00    +0.000 A 
ATOM      4  C   UNL     1      -9.032  -3.739 127.638  0.00  0.00    +0.000 A 
ATOM      5  C   UNL     1      -8.471  -3.056 126.568  0.00  0.00    +0.000 A 
ATOM      6  C   UNL     1      -7.269  -2.376 126.721  0.00  0.00    +0.000 A 
ATOM      7  C   UNL     1      -6.626  -2.382 127.939  0.00  0.00    +0.000 A 
BRANCH   2   8
ATOM      8  C   UNL     1      -6.402  -3.123 130.368  0.00  0.00    +0.000 C 
ATOM      9  C   UNL     1      -5.747  -4.510 130.479  0.00  0.00    +0.000 C 
ATOM     10  C   UNL     1      -7.405  -2.990 131.533  0.00  0.00    +0.000 C 
BRANCH   8  11
ATOM     11  C   UNL     1      -5.361  -1.941 130.339  0.00  0.00    +0.000 C 
BRANCH  11  13
ATOM     12  C   UNL     1      -4.051  -0.003 131.323  0.00  0.00    +0.000 C 
ATOM     13  C   UNL     1      -5.066  -1.122 131.637  0.00  0.00    +0.000 C 
ATOM     14  C   UNL     1      -4.426  -1.984 132.731  0.00  0.00    +0.000 C 
ATOM     15  C   UNL     1      -6.314  -0.416 132.185  0.00  0.00    +0.000 C 
ENDBRANCH  11  13
ENDBRANCH   8  11
ENDBRANCH   2   8
ENDBRANCH   1   5
BRANCH   1  16
ATOM     16  C   UNL     1      -8.405  -3.520 124.302  0.00  0.00    +0.000 C 
BRANCH  16  17
ATOM     17  C   UNL     1      -8.367  -2.378 123.347  0.00  0.00    +0.000 C 
BRANCH  17  18
ATOM     18  O   UNL     1      -7.003  -1.967 123.232  0.00  0.00    +0.000 OA
BRANCH  18  19
ATOM     19  C   UNL     1      -7.006  -0.565 123.211  0.00  0.00    +0.000 C 
BRANCH  19  20
ATOM     20  C   UNL     1      -8.094   0.036 124.102  0.00  0.00    +0.000 C 
BRANCH  20  21
ATOM     21  N   UNL     1      -8.293   1.531 123.743  0.00  0.00    +0.000 N 
ATOM     22  C   UNL     1      -7.048   2.029 122.994  0.00  0.00    +0.000 C 
ATOM     23  C   UNL     1      -9.575   1.600 122.922  0.00  0.00    +0.000 C 
BRANCH  21  24
ATOM     24  C   UNL     1      -8.438   2.373 125.050  0.00  0.00    +0.000 C 
BRANCH  24  25
ATOM     25  C   UNL     1      -7.829   1.758 126.302  0.00  0.00    +0.000 A 
ATOM     26  C   UNL     1      -8.565   1.132 127.317  0.00  0.00    +0.000 A 
ATOM     27  C   UNL     1      -8.087   0.945 128.598  0.00  0.00    +0.000 A 
ATOM     28  C   UNL     1      -6.734   1.111 128.823  0.00  0.00    +0.000 A 
ATOM     29  C   UNL     1      -5.917   1.520 127.773  0.00  0.00    +0.000 A 
ATOM     30  C   UNL     1      -6.452   1.879 126.531  0.00  0.00    +0.000 A 
ENDBRANCH  24  25
ENDBRANCH  21  24
ENDBRANCH  20  21
ENDBRANCH  19  20
ENDBRANCH  18  19
ENDBRANCH  17  18
ENDBRANCH  16  17
ENDBRANCH   1  16
TORSDOF 12
ENDMDL
MODEL 9
REMARK VINA RESULT:      -7.3      3.784      6.818
REMARK  Name = Benzethonium
REMARK  19 active torsions:
REMARK  status: ('A' for Active; 'I' for Inactive)
REMARK    1  A    between atoms: C_1  and  C_2
REMARK    2  A    between atoms: C_2  and  C_3
REMARK    3  A    between atoms: C_2  and  C_4
REMARK    4  A    between atoms: C_2  and  C_5
REMARK    5  A    between atoms: C_5  and  C_6
REMARK    6  A    between atoms: C_6  and  C_7
REMARK    7  A    between atoms: C_6  and  C_8
REMARK    8  A    between atoms: C_6  and  C_9
REMARK    9  A    between atoms: C_12  and  O_13
REMARK   10  A    between atoms: O_13  and  C_14
REMARK   11  A    between atoms: C_14  and  C_15
REMARK   12  A    between atoms: C_15  and  O_16
REMARK   13  A    between atoms: O_16  and  C_17
REMARK   14  A    between atoms: C_17  and  C_18
REMARK   15  A    between atoms: C_18  and  N_19
REMARK   16  A    between atoms: N_19  and  C_20
REMARK   17  A    between atoms: N_19  and  C_21
REMARK   18  A    between atoms: N_19  and  C_22
REMARK   19  A    between atoms: C_22  and  C_23
REMARK                            x       y       z     vdW  Elec       q    Type
REMARK                         _______ _______ _______ _____ _____    ______ ____
ROOT
ATOM      1  O   UNL     1      -7.877  -1.936 126.000  0.00  0.00    +0.000 OA
ENDROOT
BRANCH   1   5
ATOM      2  C   UNL     1      -6.416  -3.183 129.677  0.00  0.00    +0.000 A 
ATOM      3  C   UNL     1      -7.777  -3.286 129.341  0.00  0.00    +0.000 A 
ATOM      4  C   UNL     1      -8.226  -2.891 128.087  0.00  0.00    +0.000 A 
ATOM      5  C   UNL     1      -7.335  -2.329 127.184  0.00  0.00    +0.000 A 
ATOM      6  C   UNL     1      -5.992  -2.192 127.514  0.00  0.00    +0.000 A 
ATOM      7  C   UNL     1      -5.540  -2.617 128.743  0.00  0.00    +0.000 A 
BRANCH   2   8
ATOM      8  C   UNL     1      -5.882  -3.728 131.013  0.00  0.00    +0.000 C 
ATOM      9  C   UNL     1      -4.531  -3.050 131.303  0.00  0.00    +0.000 C 
ATOM     10  C   UNL     1      -5.618  -5.241 130.867  0.00  0.00    +0.000 C 
BRANCH   8  11
ATOM     11  C   UNL     1      -6.983  -3.415 132.094  0.00  0.00    +0.000 C 
BRANCH  11  13
ATOM     12  C   UNL     1      -8.052  -3.697 134.378  0.00  0.00    +0.000 C 
ATOM     13  C   UNL     1      -6.720  -3.741 133.600  0.00  0.00    +0.000 C 
ATOM     14  C   UNL     1      -5.804  -2.706 134.264  0.00  0.00    +0.000 C 
ATOM     15  C   UNL     1      -6.158  -5.153 133.808  0.00  0.00    +0.000 C 
ENDBRANCH  11  13
ENDBRANCH   8  11
ENDBRANCH   2   8
ENDBRANCH   1   5
BRANCH   1  16
ATOM     16  C   UNL     1      -7.877  -0.532 125.831  0.00  0.00    +0.000 C 
BRANCH  16  17
ATOM     17  C   UNL     1      -9.299  -0.109 125.710  0.00  0.00    +0.000 C 
BRANCH  17  18
ATOM     18  O   UNL     1      -9.430   1.139 126.394  0.00  0.00    +0.000 OA
BRANCH  18  19
ATOM     19  C   UNL     1      -8.129   1.611 126.622  0.00  0.00    +0.000 C 
BRANCH  19  20
ATOM     20  C   UNL     1      -8.053   2.585 127.798  0.00  0.00    +0.000 C 
BRANCH  20  21
ATOM     21  N   UNL     1      -6.593   2.664 128.314  0.00  0.00    +0.000 N 
ATOM     22  C   UNL     1      -5.701   3.209 127.188  0.00  0.00    +0.000 C 
ATOM     23  C   UNL     1      -6.632   3.551 129.553  0.00  0.00    +0.000 C 
BRANCH  21  24
ATOM     24  C   UNL     1      -6.085   1.235 128.683  0.00  0.00    +0.000 C 
BRANCH  24  25
ATOM     25  C   UNL     1      -6.680   0.629 129.947  0.00  0.00    +0.000 A 
ATOM     26  C   UNL     1      -8.008   0.200 130.071  0.00  0.00    +0.000 A 
ATOM     27  C   UNL     1      -8.644   0.038 131.285  0.00  0.00    +0.000 A 
ATOM     28  C   UNL     1      -7.872   0.013 132.430  0.00  0.00    +0.000 A 
ATOM     29  C   UNL     1      -6.499   0.215 132.327  0.00  0.00    +0.000 A 
ATOM     30  C   UNL     1      -5.902   0.557 131.110  0.00  0.00    +0.000 A 
ENDBRANCH  24  25
ENDBRANCH  21  24
ENDBRANCH  20  21
ENDBRANCH  19  20
ENDBRANCH  18  19
ENDBRANCH  17  18
ENDBRANCH  16  17
ENDBRANCH   1  16
TORSDOF 12
ENDMDL
