MODEL 1
REMARK VINA RESULT:      -5.5      0.000      0.000
REMARK  Name = Benzocaine
REMARK  5 active torsions:
REMARK  status: ('A' for Active; 'I' for Inactive)
REMARK    1  A    between atoms: C_1  and  C_2
REMARK    2  A    between atoms: C_2  and  O_3
REMARK    3  A    between atoms: O_3  and  C_4
REMARK    4  A    between atoms: C_4  and  C_6
REMARK    5  A    between atoms: C_9  and  N_10
REMARK                            x       y       z     vdW  Elec       q    Type
REMARK                         _______ _______ _______ _____ _____    ______ ____
ROOT
ATOM      1  C   UNL     1     -11.457   7.620 129.764  0.00  0.00    +0.000 A 
ATOM      2  C   UNL     1     -10.093   7.339 129.890  0.00  0.00    +0.000 A 
ATOM      3  C   UNL     1      -9.625   6.627 131.008  0.00  0.00    +0.000 A 
ATOM      4  C   UNL     1     -10.498   6.201 132.014  0.00  0.00    +0.000 A 
ATOM      5  C   UNL     1     -11.853   6.515 131.895  0.00  0.00    +0.000 A 
ATOM      6  C   UNL     1     -12.330   7.229 130.787  0.00  0.00    +0.000 A 
ENDROOT
BRANCH   4   7
ATOM      7  N   UNL     1     -10.041   5.455 133.084  0.00  0.00    +0.000 N 
ATOM      8  H   UNL     1     -10.471   5.532 133.995  0.00  0.00    +0.000 HD
ATOM      9  H   UNL     1      -9.315   4.760 132.958  0.00  0.00    +0.000 HD
ENDBRANCH   4   7
BRANCH   1  10
ATOM     10  C   UNL     1     -12.020   8.351 128.599  0.00  0.00    +0.000 C 
ATOM     11  O   UNL     1     -11.353   8.631 127.613  0.00  0.00    +0.000 OA
BRANCH  10  12
ATOM     12  O   UNL     1     -13.306   8.737 128.828  0.00  0.00    +0.000 OA
BRANCH  12  14
ATOM     13  C   UNL     1     -13.436  10.787 130.123  0.00  0.00    +0.000 C 
ATOM     14  C   UNL     1     -13.516  10.162 128.739  0.00  0.00    +0.000 C 
ENDBRANCH  12  14
ENDBRANCH  10  12
ENDBRANCH   1  10
TORSDOF 4
ENDMDL
MODEL 2
REMARK VINA RESULT:      -5.2      1.951      2.082
REMARK  Name = Benzocaine
REMARK  5 active torsions:
REMARK  status: ('A' for Active; 'I' for Inactive)
REMARK    1  A    between atoms: C_1  and  C_2
REMARK    2  A    between atoms: C_2  and  O_3
REMARK    3  A    between atoms: O_3  and  C_4
REMARK    4  A    between atoms: C_4  and  C_6
REMARK    5  A    between atoms: C_9  and  N_10
REMARK                            x       y       z     vdW  Elec       q    Type
REMARK                         _______ _______ _______ _____ _____    ______ ____
ROOT
ATOM      1  C   UNL     1     -10.220   7.104 129.911  0.00  0.00    +0.000 A 
ATOM      2  C   UNL     1      -8.880   7.043 130.305  0.00  0.00    +0.000 A 
ATOM      3  C   UNL     1      -8.547   6.552 131.579  0.00  0.00    +0.000 A 
ATOM      4  C   UNL     1      -9.536   6.132 132.476  0.00  0.00    +0.000 A 
ATOM      5  C   UNL     1     -10.871   6.230 132.085  0.00  0.00    +0.000 A 
ATOM      6  C   UNL     1     -11.216   6.722 130.819  0.00  0.00    +0.000 A 
ENDROOT
BRANCH   4   7
ATOM      7  N   UNL     1      -9.199   5.601 133.707  0.00  0.00    +0.000 N 
ATOM      8  H   UNL     1      -8.254   5.661 134.060  0.00  0.00    +0.000 HD
ATOM      9  H   UNL     1      -9.909   5.208 134.312  0.00  0.00    +0.000 HD
ENDBRANCH   4   7
BRANCH   1  10
ATOM     10  C   UNL     1     -10.640   7.594 128.572  0.00  0.00    +0.000 C 
ATOM     11  O   UNL     1     -10.418   8.735 128.190  0.00  0.00    +0.000 OA
BRANCH  10  12
ATOM     12  O   UNL     1     -11.368   6.657 127.905  0.00  0.00    +0.000 OA
BRANCH  12  14
ATOM     13  C   UNL     1     -13.725   7.232 128.020  0.00  0.00    +0.000 C 
ATOM     14  C   UNL     1     -12.475   7.198 127.153  0.00  0.00    +0.000 C 
ENDBRANCH  12  14
ENDBRANCH  10  12
ENDBRANCH   1  10
TORSDOF 4
ENDMDL
MODEL 3
REMARK VINA RESULT:      -5.1      3.153      4.647
REMARK  Name = Benzocaine
REMARK  5 active torsions:
REMARK  status: ('A' for Active; 'I' for Inactive)
REMARK    1  A    between atoms: C_1  and  C_2
REMARK    2  A    between atoms: C_2  and  O_3
REMARK    3  A    between atoms: O_3  and  C_4
REMARK    4  A    between atoms: C_4  and  C_6
REMARK    5  A    between atoms: C_9  and  N_10
REMARK                            x       y       z     vdW  Elec       q    Type
REMARK                         _______ _______ _______ _____ _____    ______ ____
ROOT
ATOM      1  C   UNL     1     -11.591   6.582 129.987  0.00  0.00    +0.000 A 
ATOM      2  C   UNL     1     -11.343   7.134 128.727  0.00  0.00    +0.000 A 
ATOM      3  C   UNL     1     -11.884   8.388 128.393  0.00  0.00    +0.000 A 
ATOM      4  C   UNL     1     -12.685   9.096 129.295  0.00  0.00    +0.000 A 
ATOM      5  C   UNL     1     -12.954   8.520 130.537  0.00  0.00    +0.000 A 
ATOM      6  C   UNL     1     -12.424   7.268 130.879  0.00  0.00    +0.000 A 
ENDROOT
BRANCH   4   7
ATOM      7  N   UNL     1     -13.170  10.351 128.982  0.00  0.00    +0.000 N 
ATOM      8  H   UNL     1     -13.892  10.786 129.540  0.00  0.00    +0.000 HD
ATOM      9  H   UNL     1     -12.758  10.893 128.232  0.00  0.00    +0.000 HD
ENDBRANCH   4   7
BRANCH   1  10
ATOM     10  C   UNL     1     -11.035   5.271 130.411  0.00  0.00    +0.000 C 
ATOM     11  O   UNL     1     -11.457   4.207 129.981  0.00  0.00    +0.000 OA
BRANCH  10  12
ATOM     12  O   UNL     1     -10.096   5.421 131.386  0.00  0.00    +0.000 OA
BRANCH  12  14
ATOM     13  C   UNL     1      -8.128   6.798 131.026  0.00  0.00    +0.000 C 
ATOM     14  C   UNL     1      -8.737   5.409 130.901  0.00  0.00    +0.000 C 
ENDBRANCH  12  14
ENDBRANCH  10  12
ENDBRANCH   1  10
TORSDOF 4
ENDMDL
MODEL 4
REMARK VINA RESULT:      -5.0     10.310     11.600
REMARK  Name = Benzocaine
REMARK  5 active torsions:
REMARK  status: ('A' for Active; 'I' for Inactive)
REMARK    1  A    between atoms: C_1  and  C_2
REMARK    2  A    between atoms: C_2  and  O_3
REMARK    3  A    between atoms: O_3  and  C_4
REMARK    4  A    between atoms: C_4  and  C_6
REMARK    5  A    between atoms: C_9  and  N_10
REMARK                            x       y       z     vdW  Elec       q    Type
REMARK                         _______ _______ _______ _____ _____    ______ ____
ROOT
ATOM      1  C   UNL     1      -6.511   3.756 121.411  0.00  0.00    +0.000 A 
ATOM      2  C   UNL     1      -5.281   4.398 121.236  0.00  0.00    +0.000 A 
ATOM      3  C   UNL     1      -5.037   5.137 120.065  0.00  0.00    +0.000 A 
ATOM      4  C   UNL     1      -6.000   5.234 119.055  0.00  0.00    +0.000 A 
ATOM      5  C   UNL     1      -7.211   4.562 119.225  0.00  0.00    +0.000 A 
ATOM      6  C   UNL     1      -7.463   3.818 120.386  0.00  0.00    +0.000 A 
ENDROOT
BRANCH   4   7
ATOM      7  N   UNL     1      -5.776   6.006 117.931  0.00  0.00    +0.000 N 
ATOM      8  H   UNL     1      -5.188   5.672 117.179  0.00  0.00    +0.000 HD
ATOM      9  H   UNL     1      -6.256   6.888 117.805  0.00  0.00    +0.000 HD
ENDBRANCH   4   7
BRANCH   1  10
ATOM     10  C   UNL     1      -6.840   2.975 122.632  0.00  0.00    +0.000 C 
ATOM     11  O   UNL     1      -7.796   2.215 122.688  0.00  0.00    +0.000 OA
BRANCH  10  12
ATOM     12  O   UNL     1      -6.016   3.298 123.667  0.00  0.00    +0.000 OA
BRANCH  12  14
ATOM     13  C   UNL     1      -6.158   5.243 125.114  0.00  0.00    +0.000 C 
ATOM     14  C   UNL     1      -6.700   3.854 124.810  0.00  0.00    +0.000 C 
ENDBRANCH  12  14
ENDBRANCH  10  12
ENDBRANCH   1  10
TORSDOF 4
ENDMDL
MODEL 5
REMARK VINA RESULT:      -4.9      3.373      5.034
REMARK  Name = Benzocaine
REMARK  5 active torsions:
REMARK  status: ('A' for Active; 'I' for Inactive)
REMARK    1  A    between atoms: C_1  and  C_2
REMARK    2  A    between atoms: C_2  and  O_3
REMARK    3  A    between atoms: O_3  and  C_4
REMARK    4  A    between atoms: C_4  and  C_6
REMARK    5  A    between atoms: C_9  and  N_10
REMARK                            x       y       z     vdW  Elec       q    Type
REMARK                         _______ _______ _______ _____ _____    ______ ____
ROOT
ATOM      1  C   UNL     1     -10.662   6.878 130.769  0.00  0.00    +0.000 A 
ATOM      2  C   UNL     1     -10.148   7.477 129.616  0.00  0.00    +0.000 A 
ATOM      3  C   UNL     1     -10.950   8.353 128.864  0.00  0.00    +0.000 A 
ATOM      4  C   UNL     1     -12.269   8.630 129.239  0.00  0.00    +0.000 A 
ATOM      5  C   UNL     1     -12.784   8.000 130.372  0.00  0.00    +0.000 A 
ATOM      6  C   UNL     1     -11.995   7.121 131.127  0.00  0.00    +0.000 A 
ENDROOT
BRANCH   4   7
ATOM      7  N   UNL     1     -13.036   9.532 128.526  0.00  0.00    +0.000 N 
ATOM      8  H   UNL     1     -13.462  10.328 128.982  0.00  0.00    +0.000 HD
ATOM      9  H   UNL     1     -13.123   9.457 127.521  0.00  0.00    +0.000 HD
ENDBRANCH   4   7
BRANCH   1  10
ATOM     10  C   UNL     1      -9.862   5.958 131.620  0.00  0.00    +0.000 C 
ATOM     11  O   UNL     1      -9.620   6.194 132.795  0.00  0.00    +0.000 OA
BRANCH  10  12
ATOM     12  O   UNL     1      -9.373   4.912 130.898  0.00  0.00    +0.000 OA
BRANCH  12  14
ATOM     13  C   UNL     1      -9.949   2.607 131.399  0.00  0.00    +0.000 C 
ATOM     14  C   UNL     1     -10.339   3.870 130.646  0.00  0.00    +0.000 C 
ENDBRANCH  12  14
ENDBRANCH  10  12
ENDBRANCH   1  10
TORSDOF 4
ENDMDL
MODEL 6
REMARK VINA RESULT:      -4.9     10.347     11.561
REMARK  Name = Benzocaine
REMARK  5 active torsions:
REMARK  status: ('A' for Active; 'I' for Inactive)
REMARK    1  A    between atoms: C_1  and  C_2
REMARK    2  A    between atoms: C_2  and  O_3
REMARK    3  A    between atoms: O_3  and  C_4
REMARK    4  A    between atoms: C_4  and  C_6
REMARK    5  A    between atoms: C_9  and  N_10
REMARK                            x       y       z     vdW  Elec       q    Type
REMARK                         _______ _______ _______ _____ _____    ______ ____
ROOT
ATOM      1  C   UNL     1      -7.524   3.524 121.591  0.00  0.00    +0.000 A 
ATOM      2  C   UNL     1      -6.156   3.812 121.622  0.00  0.00    +0.000 A 
ATOM      3  C   UNL     1      -5.553   4.464 120.532  0.00  0.00    +0.000 A 
ATOM      4  C   UNL     1      -6.294   4.822 119.401  0.00  0.00    +0.000 A 
ATOM      5  C   UNL     1      -7.651   4.500 119.366  0.00  0.00    +0.000 A 
ATOM      6  C   UNL     1      -8.262   3.845 120.444  0.00  0.00    +0.000 A 
ENDROOT
BRANCH   4   7
ATOM      7  N   UNL     1      -5.707   5.510 118.356  0.00  0.00    +0.000 N 
ATOM      8  H   UNL     1      -6.218   5.699 117.504  0.00  0.00    +0.000 HD
ATOM      9  H   UNL     1      -4.780   5.906 118.453  0.00  0.00    +0.000 HD
ENDBRANCH   4   7
BRANCH   1  10
ATOM     10  C   UNL     1      -8.228   2.855 122.716  0.00  0.00    +0.000 C 
ATOM     11  O   UNL     1      -7.761   2.800 123.845  0.00  0.00    +0.000 OA
BRANCH  10  12
ATOM     12  O   UNL     1      -9.373   2.248 122.296  0.00  0.00    +0.000 OA
BRANCH  12  14
ATOM     13  C   UNL     1      -9.646  -0.118 122.772  0.00  0.00    +0.000 C 
ATOM     14  C   UNL     1      -9.918   1.303 123.242  0.00  0.00    +0.000 C 
ENDBRANCH  12  14
ENDBRANCH  10  12
ENDBRANCH   1  10
TORSDOF 4
ENDMDL
MODEL 7
REMARK VINA RESULT:      -4.7     10.835     11.817
REMARK  Name = Benzocaine
REMARK  5 active torsions:
REMARK  status: ('A' for Active; 'I' for Inactive)
REMARK    1  A    between atoms: C_1  and  C_2
REMARK    2  A    between atoms: C_2  and  O_3
REMARK    3  A    between atoms: O_3  and  C_4
REMARK    4  A    between atoms: C_4  and  C_6
REMARK    5  A    between atoms: C_9  and  N_10
REMARK                            x       y       z     vdW  Elec       q    Type
REMARK                         _______ _______ _______ _____ _____    ______ ____
ROOT
ATOM      1  C   UNL     1      -8.559  -2.400 126.162  0.00  0.00    +0.000 A 
ATOM      2  C   UNL     1      -9.010  -3.575 126.772  0.00  0.00    +0.000 A 
ATOM      3  C   UNL     1      -8.745  -3.802 128.134  0.00  0.00    +0.000 A 
ATOM      4  C   UNL     1      -8.022  -2.879 128.896  0.00  0.00    +0.000 A 
ATOM      5  C   UNL     1      -7.548  -1.726 128.269  0.00  0.00    +0.000 A 
ATOM      6  C   UNL     1      -7.802  -1.491 126.911  0.00  0.00    +0.000 A 
ENDROOT
BRANCH   4   7
ATOM      7  N   UNL     1      -7.811  -3.082 130.247  0.00  0.00    +0.000 N 
ATOM      8  H   UNL     1      -7.702  -4.015 130.622  0.00  0.00    +0.000 HD
ATOM      9  H   UNL     1      -7.684  -2.298 130.874  0.00  0.00    +0.000 HD
ENDBRANCH   4   7
BRANCH   1  10
ATOM     10  C   UNL     1      -8.821  -2.088 124.732  0.00  0.00    +0.000 C 
ATOM     11  O   UNL     1      -9.698  -2.647 124.087  0.00  0.00    +0.000 OA
BRANCH  10  12
ATOM     12  O   UNL     1      -7.911  -1.203 124.241  0.00  0.00    +0.000 OA
BRANCH  12  14
ATOM     13  C   UNL     1      -5.978  -2.361 123.335  0.00  0.00    +0.000 C 
ATOM     14  C   UNL     1      -7.275  -1.631 123.018  0.00  0.00    +0.000 C 
ENDBRANCH  12  14
ENDBRANCH  10  12
ENDBRANCH   1  10
TORSDOF 4
ENDMDL
MODEL 8
REMARK VINA RESULT:      -4.6     11.672     12.506
REMARK  Name = Benzocaine
REMARK  5 active torsions:
REMARK  status: ('A' for Active; 'I' for Inactive)
REMARK    1  A    between atoms: C_1  and  C_2
REMARK    2  A    between atoms: C_2  and  O_3
REMARK    3  A    between atoms: O_3  and  C_4
REMARK    4  A    between atoms: C_4  and  C_6
REMARK    5  A    between atoms: C_9  and  N_10
REMARK                            x       y       z     vdW  Elec       q    Type
REMARK                         _______ _______ _______ _____ _____    ______ ____
ROOT
ATOM      1  C   UNL     1      -7.741  -2.056 123.353  0.00  0.00    +0.000 A 
ATOM      2  C   UNL     1      -6.537  -1.717 122.729  0.00  0.00    +0.000 A 
ATOM      3  C   UNL     1      -5.393  -2.507 122.938  0.00  0.00    +0.000 A 
ATOM      4  C   UNL     1      -5.428  -3.626 123.777  0.00  0.00    +0.000 A 
ATOM      5  C   UNL     1      -6.626  -3.936 124.422  0.00  0.00    +0.000 A 
ATOM      6  C   UNL     1      -7.772  -3.153 124.224  0.00  0.00    +0.000 A 
ENDROOT
BRANCH   4   7
ATOM      7  N   UNL     1      -4.315  -4.430 123.937  0.00  0.00    +0.000 N 
ATOM      8  H   UNL     1      -3.764  -4.722 123.141  0.00  0.00    +0.000 HD
ATOM      9  H   UNL     1      -3.985  -4.678 124.861  0.00  0.00    +0.000 HD
ENDBRANCH   4   7
BRANCH   1  10
ATOM     10  C   UNL     1      -8.991  -1.276 123.160  0.00  0.00    +0.000 C 
ATOM     11  O   UNL     1     -10.072  -1.808 122.947  0.00  0.00    +0.000 OA
BRANCH  10  12
ATOM     12  O   UNL     1      -8.746   0.063 123.151  0.00  0.00    +0.000 OA
BRANCH  12  14
ATOM     13  C   UNL     1      -9.258   2.169 124.247  0.00  0.00    +0.000 C 
ATOM     14  C   UNL     1      -8.911   0.699 124.435  0.00  0.00    +0.000 C 
ENDBRANCH  12  14
ENDBRANCH  10  12
ENDBRANCH   1  10
TORSDOF 4
ENDMDL
MODEL 9
REMARK VINA RESULT:      -4.5      4.464      6.318
REMARK  Name = Benzocaine
REMARK  5 active torsions:
REMARK  status: ('A' for Active; 'I' for Inactive)
REMARK    1  A    between atoms: C_1  and  C_2
REMARK    2  A    between atoms: C_2  and  O_3
REMARK    3  A    between atoms: O_3  and  C_4
REMARK    4  A    between atoms: C_4  and  C_6
REMARK    5  A    between atoms: C_9  and  N_10
REMARK                            x       y       z     vdW  Elec       q    Type
REMARK                         _______ _______ _______ _____ _____    ______ ____
ROOT
ATOM      1  C   UNL     1      -6.840   6.532 131.685  0.00  0.00    +0.000 A 
ATOM      2  C   UNL     1      -7.164   5.868 132.872  0.00  0.00    +0.000 A 
ATOM      3  C   UNL     1      -8.509   5.601 133.181  0.00  0.00    +0.000 A 
ATOM      4  C   UNL     1      -9.542   6.001 132.327  0.00  0.00    +0.000 A 
ATOM      5  C   UNL     1      -9.210   6.693 131.162  0.00  0.00    +0.000 A 
ATOM      6  C   UNL     1      -7.873   6.969 130.846  0.00  0.00    +0.000 A 
ENDROOT
BRANCH   4   7
ATOM      7  N   UNL     1     -10.858   5.689 132.609  0.00  0.00    +0.000 N 
ATOM      8  H   UNL     1     -11.154   4.729 132.719  0.00  0.00    +0.000 HD
ATOM      9  H   UNL     1     -11.536   6.419 132.788  0.00  0.00    +0.000 HD
ENDBRANCH   4   7
BRANCH   1  10
ATOM     10  C   UNL     1      -5.439   6.827 131.289  0.00  0.00    +0.000 C 
ATOM     11  O   UNL     1      -4.479   6.506 131.975  0.00  0.00    +0.000 OA
BRANCH  10  12
ATOM     12  O   UNL     1      -5.390   7.570 130.148  0.00  0.00    +0.000 OA
BRANCH  12  14
ATOM     13  C   UNL     1      -3.473   7.395 128.667  0.00  0.00    +0.000 C 
ATOM     14  C   UNL     1      -4.086   8.117 129.858  0.00  0.00    +0.000 C 
ENDBRANCH  12  14
ENDBRANCH  10  12
ENDBRANCH   1  10
TORSDOF 4
ENDMDL
