MODEL 1
REMARK VINA RESULT:      -8.0      0.000      0.000
REMARK  Name = Bepotastine
REMARK  9 active torsions:
REMARK  status: ('A' for Active; 'I' for Inactive)
REMARK    1  A    between atoms: O_1  and  C_2
REMARK    2  A    between atoms: C_2  and  C_4
REMARK    3  A    between atoms: C_4  and  C_5
REMARK    4  A    between atoms: C_5  and  C_6
REMARK    5  A    between atoms: C_6  and  N_7
REMARK    6  A    between atoms: C_10  and  O_13
REMARK    7  A    between atoms: O_13  and  C_14
REMARK    8  A    between atoms: C_14  and  C_15
REMARK    9  A    between atoms: C_14  and  C_22
REMARK                            x       y       z     vdW  Elec       q    Type
REMARK                         _______ _______ _______ _____ _____    ______ ____
ROOT
ATOM      1  O   UNL     1      -7.646   0.501 125.939  0.00  0.00    +0.000 OA
ENDROOT
BRANCH   1   5
ATOM      2  N   UNL     1      -8.173   3.032 123.351  0.00  0.00    +0.000 NA
ATOM      3  C   UNL     1      -8.758   1.703 123.416  0.00  0.00    +0.000 C 
ATOM      4  C   UNL     1      -9.605   1.347 124.643  0.00  0.00    +0.000 C 
ATOM      5  C   UNL     1      -8.745   1.449 125.902  0.00  0.00    +0.000 C 
ATOM      6  C   UNL     1      -8.219   2.902 125.862  0.00  0.00    +0.000 C 
ATOM      7  C   UNL     1      -7.389   3.219 124.593  0.00  0.00    +0.000 C 
BRANCH   2   8
ATOM      8  C   UNL     1      -7.313   3.108 122.125  0.00  0.00    +0.000 C 
BRANCH   8   9
ATOM      9  C   UNL     1      -5.957   3.868 122.207  0.00  0.00    +0.000 C 
BRANCH   9  10
ATOM     10  C   UNL     1      -5.139   3.812 120.920  0.00  0.00    +0.000 C 
BRANCH  10  11
ATOM     11  C   UNL     1      -5.324   5.110 120.145  0.00  0.00    +0.000 C 
ATOM     12  O   UNL     1      -4.709   6.131 120.341  0.00  0.00    +0.000 OA
BRANCH  11  13
ATOM     13  O   UNL     1      -6.266   5.016 119.174  0.00  0.00    +0.000 OA
ATOM     14  H   UNL     1      -6.631   4.124 119.034  0.00  0.00    +0.000 HD
ENDBRANCH  11  13
ENDBRANCH  10  11
ENDBRANCH   9  10
ENDBRANCH   8   9
ENDBRANCH   2   8
ENDBRANCH   1   5
BRANCH   1  15
ATOM     15  C   UNL     1      -7.947  -0.940 126.030  0.00  0.00    +0.000 C 
BRANCH  15  16
ATOM     16  C   UNL     1      -6.989  -1.796 125.176  0.00  0.00    +0.000 A 
ATOM     17  C   UNL     1      -7.490  -2.895 124.501  0.00  0.00    +0.000 A 
ATOM     18  C   UNL     1      -6.661  -3.959 124.147  0.00  0.00    +0.000 A 
ATOM     19  C   UNL     1      -5.322  -3.704 123.978  0.00  0.00    +0.000 A 
ATOM     20 CL   UNL     1      -4.290  -4.944 123.396  0.00  0.00    +0.000 Cl
ATOM     21  C   UNL     1      -4.848  -2.425 124.238  0.00  0.00    +0.000 A 
ATOM     22  C   UNL     1      -5.645  -1.512 124.940  0.00  0.00    +0.000 A 
ENDBRANCH  15  16
BRANCH  15  23
ATOM     23  C   UNL     1      -7.891  -1.430 127.501  0.00  0.00    +0.000 A 
ATOM     24  C   UNL     1      -8.324  -2.731 127.799  0.00  0.00    +0.000 A 
ATOM     25  C   UNL     1      -8.274  -3.233 129.084  0.00  0.00    +0.000 A 
ATOM     26  C   UNL     1      -7.796  -2.417 130.084  0.00  0.00    +0.000 A 
ATOM     27  C   UNL     1      -7.395  -1.132 129.743  0.00  0.00    +0.000 A 
ATOM     28  N   UNL     1      -7.447  -0.613 128.489  0.00  0.00    +0.000 NA
ENDBRANCH  15  23
ENDBRANCH   1  15
TORSDOF 9
ENDMDL
MODEL 2
REMARK VINA RESULT:      -7.6      4.537      6.742
REMARK  Name = Bepotastine
REMARK  9 active torsions:
REMARK  status: ('A' for Active; 'I' for Inactive)
REMARK    1  A    between atoms: O_1  and  C_2
REMARK    2  A    between atoms: C_2  and  C_4
REMARK    3  A    between atoms: C_4  and  C_5
REMARK    4  A    between atoms: C_5  and  C_6
REMARK    5  A    between atoms: C_6  and  N_7
REMARK    6  A    between atoms: C_10  and  O_13
REMARK    7  A    between atoms: O_13  and  C_14
REMARK    8  A    between atoms: C_14  and  C_15
REMARK    9  A    between atoms: C_14  and  C_22
REMARK                            x       y       z     vdW  Elec       q    Type
REMARK                         _______ _______ _______ _____ _____    ______ ____
ROOT
ATOM      1  O   UNL     1      -6.336   1.897 124.812  0.00  0.00    +0.000 OA
ENDROOT
BRANCH   1   5
ATOM      2  N   UNL     1      -4.363   3.525 127.427  0.00  0.00    +0.000 NA
ATOM      3  C   UNL     1      -5.647   3.953 126.896  0.00  0.00    +0.000 C 
ATOM      4  C   UNL     1      -6.830   2.986 127.004  0.00  0.00    +0.000 C 
ATOM      5  C   UNL     1      -6.509   1.701 126.241  0.00  0.00    +0.000 C 
ATOM      6  C   UNL     1      -5.195   1.213 126.893  0.00  0.00    +0.000 C 
ATOM      7  C   UNL     1      -4.037   2.235 126.777  0.00  0.00    +0.000 C 
BRANCH   2   8
ATOM      8  C   UNL     1      -3.349   4.585 127.115  0.00  0.00    +0.000 C 
BRANCH   8   9
ATOM      9  C   UNL     1      -2.627   5.300 128.294  0.00  0.00    +0.000 C 
BRANCH   9  10
ATOM     10  C   UNL     1      -2.619   6.823 128.181  0.00  0.00    +0.000 C 
BRANCH  10  11
ATOM     11  C   UNL     1      -3.817   7.393 128.930  0.00  0.00    +0.000 C 
ATOM     12  O   UNL     1      -4.728   6.742 129.383  0.00  0.00    +0.000 OA
BRANCH  11  13
ATOM     13  O   UNL     1      -3.767   8.742 129.059  0.00  0.00    +0.000 OA
ATOM     14  H   UNL     1      -3.136   9.192 128.469  0.00  0.00    +0.000 HD
ENDBRANCH  11  13
ENDBRANCH  10  11
ENDBRANCH   9  10
ENDBRANCH   8   9
ENDBRANCH   2   8
ENDBRANCH   1   5
BRANCH   1  15
ATOM     15  C   UNL     1      -7.521   1.849 123.935  0.00  0.00    +0.000 C 
BRANCH  15  16
ATOM     16  C   UNL     1      -7.370   2.752 122.694  0.00  0.00    +0.000 A 
ATOM     17  C   UNL     1      -8.506   3.271 122.097  0.00  0.00    +0.000 A 
ATOM     18  C   UNL     1      -8.504   3.647 120.755  0.00  0.00    +0.000 A 
ATOM     19  C   UNL     1      -7.306   4.006 120.188  0.00  0.00    +0.000 A 
ATOM     20 CL   UNL     1      -7.276   4.621 118.587  0.00  0.00    +0.000 Cl
ATOM     21  C   UNL     1      -6.150   3.909 120.952  0.00  0.00    +0.000 A 
ATOM     22  C   UNL     1      -6.161   3.181 122.149  0.00  0.00    +0.000 A 
ENDBRANCH  15  16
BRANCH  15  23
ATOM     23  C   UNL     1      -7.817   0.398 123.475  0.00  0.00    +0.000 A 
ATOM     24  C   UNL     1      -6.741  -0.441 123.142  0.00  0.00    +0.000 A 
ATOM     25  C   UNL     1      -6.940  -1.750 122.751  0.00  0.00    +0.000 A 
ATOM     26  C   UNL     1      -8.231  -2.220 122.681  0.00  0.00    +0.000 A 
ATOM     27  C   UNL     1      -9.262  -1.349 123.005  0.00  0.00    +0.000 A 
ATOM     28  N   UNL     1      -9.091  -0.054 123.380  0.00  0.00    +0.000 NA
ENDBRANCH  15  23
ENDBRANCH   1  15
TORSDOF 9
ENDMDL
MODEL 3
REMARK VINA RESULT:      -7.5      3.316      7.369
REMARK  Name = Bepotastine
REMARK  9 active torsions:
REMARK  status: ('A' for Active; 'I' for Inactive)
REMARK    1  A    between atoms: O_1  and  C_2
REMARK    2  A    between atoms: C_2  and  C_4
REMARK    3  A    between atoms: C_4  and  C_5
REMARK    4  A    between atoms: C_5  and  C_6
REMARK    5  A    between atoms: C_6  and  N_7
REMARK    6  A    between atoms: C_10  and  O_13
REMARK    7  A    between atoms: O_13  and  C_14
REMARK    8  A    between atoms: C_14  and  C_15
REMARK    9  A    between atoms: C_14  and  C_22
REMARK                            x       y       z     vdW  Elec       q    Type
REMARK                         _______ _______ _______ _____ _____    ______ ____
ROOT
ATOM      1  O   UNL     1      -8.154   1.764 122.865  0.00  0.00    +0.000 OA
ENDROOT
BRANCH   1   5
ATOM      2  N   UNL     1      -9.560  -1.184 124.514  0.00  0.00    +0.000 NA
ATOM      3  C   UNL     1      -9.191   0.080 125.131  0.00  0.00    +0.000 C 
ATOM      4  C   UNL     1      -9.876   1.355 124.627  0.00  0.00    +0.000 C 
ATOM      5  C   UNL     1      -9.563   1.548 123.143  0.00  0.00    +0.000 C 
ATOM      6  C   UNL     1     -10.057   0.233 122.497  0.00  0.00    +0.000 C 
ATOM      7  C   UNL     1      -9.352  -1.028 123.057  0.00  0.00    +0.000 C 
BRANCH   2   8
ATOM      8  C   UNL     1      -8.692  -2.260 125.095  0.00  0.00    +0.000 C 
BRANCH   8   9
ATOM      9  C   UNL     1      -8.154  -3.377 124.153  0.00  0.00    +0.000 C 
BRANCH   9  10
ATOM     10  C   UNL     1      -6.643  -3.579 124.236  0.00  0.00    +0.000 C 
BRANCH  10  11
ATOM     11  C   UNL     1      -5.937  -2.372 123.632  0.00  0.00    +0.000 C 
ATOM     12  O   UNL     1      -5.979  -2.051 122.468  0.00  0.00    +0.000 OA
BRANCH  11  13
ATOM     13  O   UNL     1      -5.238  -1.655 124.547  0.00  0.00    +0.000 OA
ATOM     14  H   UNL     1      -5.772  -1.067 125.110  0.00  0.00    +0.000 HD
ENDBRANCH  11  13
ENDBRANCH  10  11
ENDBRANCH   9  10
ENDBRANCH   8   9
ENDBRANCH   2   8
ENDBRANCH   1   5
BRANCH   1  15
ATOM     15  C   UNL     1      -7.578   3.102 123.088  0.00  0.00    +0.000 C 
BRANCH  15  16
ATOM     16  C   UNL     1      -6.476   3.097 124.168  0.00  0.00    +0.000 A 
ATOM     17  C   UNL     1      -6.040   1.886 124.678  0.00  0.00    +0.000 A 
ATOM     18  C   UNL     1      -5.458   1.809 125.942  0.00  0.00    +0.000 A 
ATOM     19  C   UNL     1      -4.842   2.931 126.439  0.00  0.00    +0.000 A 
ATOM     20 CL   UNL     1      -3.982   2.841 127.920  0.00  0.00    +0.000 Cl
ATOM     21  C   UNL     1      -4.891   4.103 125.696  0.00  0.00    +0.000 A 
ATOM     22  C   UNL     1      -5.794   4.220 124.631  0.00  0.00    +0.000 A 
ENDBRANCH  15  16
BRANCH  15  23
ATOM     23  C   UNL     1      -6.998   3.687 121.773  0.00  0.00    +0.000 A 
ATOM     24  C   UNL     1      -7.836   3.799 120.653  0.00  0.00    +0.000 A 
ATOM     25  C   UNL     1      -7.385   4.335 119.463  0.00  0.00    +0.000 A 
ATOM     26  C   UNL     1      -6.075   4.752 119.393  0.00  0.00    +0.000 A 
ATOM     27  C   UNL     1      -5.281   4.606 120.522  0.00  0.00    +0.000 A 
ATOM     28  N   UNL     1      -5.699   4.070 121.698  0.00  0.00    +0.000 NA
ENDBRANCH  15  23
ENDBRANCH   1  15
TORSDOF 9
ENDMDL
MODEL 4
REMARK VINA RESULT:      -7.5      5.491      7.728
REMARK  Name = Bepotastine
REMARK  9 active torsions:
REMARK  status: ('A' for Active; 'I' for Inactive)
REMARK    1  A    between atoms: O_1  and  C_2
REMARK    2  A    between atoms: C_2  and  C_4
REMARK    3  A    between atoms: C_4  and  C_5
REMARK    4  A    between atoms: C_5  and  C_6
REMARK    5  A    between atoms: C_6  and  N_7
REMARK    6  A    between atoms: C_10  and  O_13
REMARK    7  A    between atoms: O_13  and  C_14
REMARK    8  A    between atoms: C_14  and  C_15
REMARK    9  A    between atoms: C_14  and  C_22
REMARK                            x       y       z     vdW  Elec       q    Type
REMARK                         _______ _______ _______ _____ _____    ______ ____
ROOT
ATOM      1  O   UNL     1      -7.231   4.978 129.064  0.00  0.00    +0.000 OA
ENDROOT
BRANCH   1   5
ATOM      2  N   UNL     1     -10.121   6.507 130.705  0.00  0.00    +0.000 NA
ATOM      3  C   UNL     1     -10.085   5.252 129.972  0.00  0.00    +0.000 C 
ATOM      4  C   UNL     1      -9.131   4.158 130.463  0.00  0.00    +0.000 C 
ATOM      5  C   UNL     1      -7.694   4.675 130.407  0.00  0.00    +0.000 C 
ATOM      6  C   UNL     1      -7.736   5.953 131.277  0.00  0.00    +0.000 C 
ATOM      7  C   UNL     1      -8.732   7.017 130.753  0.00  0.00    +0.000 C 
BRANCH   2   8
ATOM      8  C   UNL     1     -11.042   7.446 129.982  0.00  0.00    +0.000 C 
BRANCH   8   9
ATOM      9  C   UNL     1     -10.458   8.346 128.854  0.00  0.00    +0.000 C 
BRANCH   9  10
ATOM     10  C   UNL     1     -11.290   8.347 127.574  0.00  0.00    +0.000 C 
BRANCH  10  11
ATOM     11  C   UNL     1     -10.970   7.099 126.760  0.00  0.00    +0.000 C 
ATOM     12  O   UNL     1      -9.890   6.560 126.708  0.00  0.00    +0.000 OA
BRANCH  11  13
ATOM     13  O   UNL     1     -12.043   6.621 126.082  0.00  0.00    +0.000 OA
ATOM     14  H   UNL     1     -11.979   6.678 125.112  0.00  0.00    +0.000 HD
ENDBRANCH  11  13
ENDBRANCH  10  11
ENDBRANCH   9  10
ENDBRANCH   8   9
ENDBRANCH   2   8
ENDBRANCH   1   5
BRANCH   1  15
ATOM     15  C   UNL     1      -6.186   4.132 128.461  0.00  0.00    +0.000 C 
BRANCH  15  16
ATOM     16  C   UNL     1      -6.565   3.648 127.046  0.00  0.00    +0.000 A 
ATOM     17  C   UNL     1      -6.577   2.290 126.780  0.00  0.00    +0.000 A 
ATOM     18  C   UNL     1      -6.412   1.812 125.480  0.00  0.00    +0.000 A 
ATOM     19  C   UNL     1      -6.769   2.635 124.440  0.00  0.00    +0.000 A 
ATOM     20 CL   UNL     1      -6.727   2.036 122.834  0.00  0.00    +0.000 Cl
ATOM     21  C   UNL     1      -7.204   3.922 124.727  0.00  0.00    +0.000 A 
ATOM     22  C   UNL     1      -6.995   4.464 126.002  0.00  0.00    +0.000 A 
ENDBRANCH  15  16
BRANCH  15  23
ATOM     23  C   UNL     1      -4.830   4.882 128.394  0.00  0.00    +0.000 A 
ATOM     24  C   UNL     1      -3.692   4.189 127.950  0.00  0.00    +0.000 A 
ATOM     25  C   UNL     1      -2.464   4.809 127.845  0.00  0.00    +0.000 A 
ATOM     26  C   UNL     1      -2.371   6.136 128.200  0.00  0.00    +0.000 A 
ATOM     27  C   UNL     1      -3.520   6.774 128.648  0.00  0.00    +0.000 A 
ATOM     28  N   UNL     1      -4.735   6.181 128.772  0.00  0.00    +0.000 NA
ENDBRANCH  15  23
ENDBRANCH   1  15
TORSDOF 9
ENDMDL
MODEL 5
REMARK VINA RESULT:      -7.5      7.274      9.629
REMARK  Name = Bepotastine
REMARK  9 active torsions:
REMARK  status: ('A' for Active; 'I' for Inactive)
REMARK    1  A    between atoms: O_1  and  C_2
REMARK    2  A    between atoms: C_2  and  C_4
REMARK    3  A    between atoms: C_4  and  C_5
REMARK    4  A    between atoms: C_5  and  C_6
REMARK    5  A    between atoms: C_6  and  N_7
REMARK    6  A    between atoms: C_10  and  O_13
REMARK    7  A    between atoms: O_13  and  C_14
REMARK    8  A    between atoms: C_14  and  C_15
REMARK    9  A    between atoms: C_14  and  C_22
REMARK                            x       y       z     vdW  Elec       q    Type
REMARK                         _______ _______ _______ _____ _____    ______ ____
ROOT
ATOM      1  O   UNL     1      -7.584   6.438 130.640  0.00  0.00    +0.000 OA
ENDROOT
BRANCH   1   5
ATOM      2  N   UNL     1      -4.252   4.932 130.761  0.00  0.00    +0.000 NA
ATOM      3  C   UNL     1      -4.729   5.944 129.832  0.00  0.00    +0.000 C 
ATOM      4  C   UNL     1      -5.240   7.268 130.409  0.00  0.00    +0.000 C 
ATOM      5  C   UNL     1      -6.432   6.997 131.326  0.00  0.00    +0.000 C 
ATOM      6  C   UNL     1      -5.869   5.998 132.364  0.00  0.00    +0.000 C 
ATOM      7  C   UNL     1      -5.345   4.686 131.729  0.00  0.00    +0.000 C 
BRANCH   2   8
ATOM      8  C   UNL     1      -3.906   3.700 129.977  0.00  0.00    +0.000 C 
BRANCH   8   9
ATOM      9  C   UNL     1      -4.228   3.669 128.454  0.00  0.00    +0.000 C 
BRANCH   9  10
ATOM     10  C   UNL     1      -3.407   2.647 127.671  0.00  0.00    +0.000 C 
BRANCH  10  11
ATOM     11  C   UNL     1      -2.120   3.300 127.182  0.00  0.00    +0.000 C 
ATOM     12  O   UNL     1      -1.183   2.712 126.696  0.00  0.00    +0.000 OA
BRANCH  11  13
ATOM     13  O   UNL     1      -2.119   4.647 127.336  0.00  0.00    +0.000 OA
ATOM     14  H   UNL     1      -1.463   5.125 126.797  0.00  0.00    +0.000 HD
ENDBRANCH  11  13
ENDBRANCH  10  11
ENDBRANCH   9  10
ENDBRANCH   8   9
ENDBRANCH   2   8
ENDBRANCH   1   5
BRANCH   1  15
ATOM     15  C   UNL     1      -8.837   6.244 131.390  0.00  0.00    +0.000 C 
BRANCH  15  16
ATOM     16  C   UNL     1     -10.059   6.835 130.657  0.00  0.00    +0.000 A 
ATOM     17  C   UNL     1      -9.907   7.299 129.362  0.00  0.00    +0.000 A 
ATOM     18  C   UNL     1     -10.771   8.260 128.838  0.00  0.00    +0.000 A 
ATOM     19  C   UNL     1     -12.035   8.348 129.368  0.00  0.00    +0.000 A 
ATOM     20 CL   UNL     1     -13.179   9.408 128.656  0.00  0.00    +0.000 Cl
ATOM     21  C   UNL     1     -12.368   7.532 130.441  0.00  0.00    +0.000 A 
ATOM     22  C   UNL     1     -11.361   6.868 131.154  0.00  0.00    +0.000 A 
ENDBRANCH  15  16
BRANCH  15  23
ATOM     23  C   UNL     1      -9.093   4.740 131.672  0.00  0.00    +0.000 A 
ATOM     24  C   UNL     1      -9.161   4.301 133.004  0.00  0.00    +0.000 A 
ATOM     25  C   UNL     1      -9.412   2.981 133.318  0.00  0.00    +0.000 A 
ATOM     26  C   UNL     1      -9.584   2.087 132.285  0.00  0.00    +0.000 A 
ATOM     27  C   UNL     1      -9.491   2.565 130.985  0.00  0.00    +0.000 A 
ATOM     28  N   UNL     1      -9.233   3.857 130.653  0.00  0.00    +0.000 NA
ENDBRANCH  15  23
ENDBRANCH   1  15
TORSDOF 9
ENDMDL
MODEL 6
REMARK VINA RESULT:      -7.4      4.287      6.588
REMARK  Name = Bepotastine
REMARK  9 active torsions:
REMARK  status: ('A' for Active; 'I' for Inactive)
REMARK    1  A    between atoms: O_1  and  C_2
REMARK    2  A    between atoms: C_2  and  C_4
REMARK    3  A    between atoms: C_4  and  C_5
REMARK    4  A    between atoms: C_5  and  C_6
REMARK    5  A    between atoms: C_6  and  N_7
REMARK    6  A    between atoms: C_10  and  O_13
REMARK    7  A    between atoms: O_13  and  C_14
REMARK    8  A    between atoms: C_14  and  C_15
REMARK    9  A    between atoms: C_14  and  C_22
REMARK                            x       y       z     vdW  Elec       q    Type
REMARK                         _______ _______ _______ _____ _____    ______ ____
ROOT
ATOM      1  O   UNL     1      -8.961   2.604 128.701  0.00  0.00    +0.000 OA
ENDROOT
BRANCH   1   5
ATOM      2  N   UNL     1     -10.392   5.567 130.301  0.00  0.00    +0.000 NA
ATOM      3  C   UNL     1     -10.952   4.226 130.266  0.00  0.00    +0.000 C 
ATOM      4  C   UNL     1     -10.123   3.082 130.859  0.00  0.00    +0.000 C 
ATOM      5  C   UNL     1      -8.802   2.964 130.098  0.00  0.00    +0.000 C 
ATOM      6  C   UNL     1      -8.179   4.373 130.238  0.00  0.00    +0.000 C 
ATOM      7  C   UNL     1      -9.066   5.496 129.645  0.00  0.00    +0.000 C 
BRANCH   2   8
ATOM      8  C   UNL     1     -11.330   6.487 129.577  0.00  0.00    +0.000 C 
BRANCH   8   9
ATOM      9  C   UNL     1     -10.771   7.818 128.994  0.00  0.00    +0.000 C 
BRANCH   9  10
ATOM     10  C   UNL     1     -11.421   8.236 127.677  0.00  0.00    +0.000 C 
BRANCH  10  11
ATOM     11  C   UNL     1     -11.202   7.146 126.636  0.00  0.00    +0.000 C 
ATOM     12  O   UNL     1     -10.129   6.680 126.332  0.00  0.00    +0.000 OA
BRANCH  11  13
ATOM     13  O   UNL     1     -12.356   6.720 126.065  0.00  0.00    +0.000 OA
ATOM     14  H   UNL     1     -13.126   7.299 126.204  0.00  0.00    +0.000 HD
ENDBRANCH  11  13
ENDBRANCH  10  11
ENDBRANCH   9  10
ENDBRANCH   8   9
ENDBRANCH   2   8
ENDBRANCH   1   5
BRANCH   1  15
ATOM     15  C   UNL     1      -7.827   1.989 127.988  0.00  0.00    +0.000 C 
BRANCH  15  16
ATOM     16  C   UNL     1      -8.199   0.634 127.350  0.00  0.00    +0.000 A 
ATOM     17  C   UNL     1      -7.810  -0.536 127.980  0.00  0.00    +0.000 A 
ATOM     18  C   UNL     1      -7.658  -1.721 127.262  0.00  0.00    +0.000 A 
ATOM     19  C   UNL     1      -8.378  -1.870 126.103  0.00  0.00    +0.000 A 
ATOM     20 CL   UNL     1      -8.340  -3.367 125.268  0.00  0.00    +0.000 Cl
ATOM     21  C   UNL     1      -9.163  -0.811 125.664  0.00  0.00    +0.000 A 
ATOM     22  C   UNL     1      -8.987   0.466 126.213  0.00  0.00    +0.000 A 
ENDBRANCH  15  16
BRANCH  15  23
ATOM     23  C   UNL     1      -7.280   2.935 126.887  0.00  0.00    +0.000 A 
ATOM     24  C   UNL     1      -6.006   2.686 126.351  0.00  0.00    +0.000 A 
ATOM     25  C   UNL     1      -5.476   3.477 125.351  0.00  0.00    +0.000 A 
ATOM     26  C   UNL     1      -6.226   4.536 124.892  0.00  0.00    +0.000 A 
ATOM     27  C   UNL     1      -7.472   4.751 125.464  0.00  0.00    +0.000 A 
ATOM     28  N   UNL     1      -8.008   3.994 126.456  0.00  0.00    +0.000 NA
ENDBRANCH  15  23
ENDBRANCH   1  15
TORSDOF 9
ENDMDL
MODEL 7
REMARK VINA RESULT:      -7.3      3.362      5.004
REMARK  Name = Bepotastine
REMARK  9 active torsions:
REMARK  status: ('A' for Active; 'I' for Inactive)
REMARK    1  A    between atoms: O_1  and  C_2
REMARK    2  A    between atoms: C_2  and  C_4
REMARK    3  A    between atoms: C_4  and  C_5
REMARK    4  A    between atoms: C_5  and  C_6
REMARK    5  A    between atoms: C_6  and  N_7
REMARK    6  A    between atoms: C_10  and  O_13
REMARK    7  A    between atoms: O_13  and  C_14
REMARK    8  A    between atoms: C_14  and  C_15
REMARK    9  A    between atoms: C_14  and  C_22
REMARK                            x       y       z     vdW  Elec       q    Type
REMARK                         _______ _______ _______ _____ _____    ______ ____
ROOT
ATOM      1  O   UNL     1      -6.360   0.352 127.542  0.00  0.00    +0.000 OA
ENDROOT
BRANCH   1   5
ATOM      2  N   UNL     1      -6.771   3.424 125.598  0.00  0.00    +0.000 NA
ATOM      3  C   UNL     1      -7.271   3.154 126.936  0.00  0.00    +0.000 C 
ATOM      4  C   UNL     1      -6.255   2.799 128.027  0.00  0.00    +0.000 C 
ATOM      5  C   UNL     1      -5.509   1.525 127.633  0.00  0.00    +0.000 C 
ATOM      6  C   UNL     1      -4.902   1.875 126.254  0.00  0.00    +0.000 C 
ATOM      7  C   UNL     1      -5.967   2.249 125.193  0.00  0.00    +0.000 C 
BRANCH   2   8
ATOM      8  C   UNL     1      -7.947   3.642 124.692  0.00  0.00    +0.000 C 
BRANCH   8   9
ATOM      9  C   UNL     1      -9.018   2.518 124.575  0.00  0.00    +0.000 C 
BRANCH   9  10
ATOM     10  C   UNL     1      -9.129   1.916 123.176  0.00  0.00    +0.000 C 
BRANCH  10  11
ATOM     11  C   UNL     1     -10.379   1.049 123.096  0.00  0.00    +0.000 C 
ATOM     12  O   UNL     1     -10.552   0.150 122.308  0.00  0.00    +0.000 OA
BRANCH  11  13
ATOM     13  O   UNL     1     -11.311   1.377 124.024  0.00  0.00    +0.000 OA
ATOM     14  H   UNL     1     -11.717   2.255 123.912  0.00  0.00    +0.000 HD
ENDBRANCH  11  13
ENDBRANCH  10  11
ENDBRANCH   9  10
ENDBRANCH   8   9
ENDBRANCH   2   8
ENDBRANCH   1   5
BRANCH   1  15
ATOM     15  C   UNL     1      -5.757  -0.942 127.176  0.00  0.00    +0.000 C 
BRANCH  15  16
ATOM     16  C   UNL     1      -5.789  -1.956 128.338  0.00  0.00    +0.000 A 
ATOM     17  C   UNL     1      -4.601  -2.319 128.947  0.00  0.00    +0.000 A 
ATOM     18  C   UNL     1      -4.480  -3.537 129.615  0.00  0.00    +0.000 A 
ATOM     19  C   UNL     1      -5.620  -4.109 130.125  0.00  0.00    +0.000 A 
ATOM     20 CL   UNL     1      -5.501  -5.526 131.083  0.00  0.00    +0.000 Cl
ATOM     21  C   UNL     1      -6.840  -3.490 129.889  0.00  0.00    +0.000 A 
ATOM     22  C   UNL     1      -6.941  -2.491 128.910  0.00  0.00    +0.000 A 
ENDBRANCH  15  16
BRANCH  15  23
ATOM     23  C   UNL     1      -6.467  -1.560 125.943  0.00  0.00    +0.000 A 
ATOM     24  C   UNL     1      -5.808  -2.562 125.213  0.00  0.00    +0.000 A 
ATOM     25  C   UNL     1      -6.399  -3.169 124.123  0.00  0.00    +0.000 A 
ATOM     26  C   UNL     1      -7.660  -2.758 123.753  0.00  0.00    +0.000 A 
ATOM     27  C   UNL     1      -8.264  -1.753 124.495  0.00  0.00    +0.000 A 
ATOM     28  N   UNL     1      -7.697  -1.133 125.563  0.00  0.00    +0.000 NA
ENDBRANCH  15  23
ENDBRANCH   1  15
TORSDOF 9
ENDMDL
MODEL 8
REMARK VINA RESULT:      -7.2      3.344      7.649
REMARK  Name = Bepotastine
REMARK  9 active torsions:
REMARK  status: ('A' for Active; 'I' for Inactive)
REMARK    1  A    between atoms: O_1  and  C_2
REMARK    2  A    between atoms: C_2  and  C_4
REMARK    3  A    between atoms: C_4  and  C_5
REMARK    4  A    between atoms: C_5  and  C_6
REMARK    5  A    between atoms: C_6  and  N_7
REMARK    6  A    between atoms: C_10  and  O_13
REMARK    7  A    between atoms: O_13  and  C_14
REMARK    8  A    between atoms: C_14  and  C_15
REMARK    9  A    between atoms: C_14  and  C_22
REMARK                            x       y       z     vdW  Elec       q    Type
REMARK                         _______ _______ _______ _____ _____    ______ ____
ROOT
ATOM      1  O   UNL     1      -7.660   0.225 123.643  0.00  0.00    +0.000 OA
ENDROOT
BRANCH   1   5
ATOM      2  N   UNL     1      -7.852  -3.145 125.051  0.00  0.00    +0.000 NA
ATOM      3  C   UNL     1      -8.704  -2.569 124.023  0.00  0.00    +0.000 C 
ATOM      4  C   UNL     1      -8.041  -2.069 122.735  0.00  0.00    +0.000 C 
ATOM      5  C   UNL     1      -7.045  -0.960 123.073  0.00  0.00    +0.000 C 
ATOM      6  C   UNL     1      -6.091  -1.630 124.089  0.00  0.00    +0.000 C 
ATOM      7  C   UNL     1      -6.812  -2.139 125.362  0.00  0.00    +0.000 C 
BRANCH   2   8
ATOM      8  C   UNL     1      -8.704  -3.462 126.244  0.00  0.00    +0.000 C 
BRANCH   8   9
ATOM      9  C   UNL     1      -8.412  -2.731 127.588  0.00  0.00    +0.000 C 
BRANCH   9  10
ATOM     10  C   UNL     1      -8.579  -3.616 128.820  0.00  0.00    +0.000 C 
BRANCH  10  11
ATOM     11  C   UNL     1      -7.447  -3.339 129.801  0.00  0.00    +0.000 C 
ATOM     12  O   UNL     1      -6.536  -4.094 130.044  0.00  0.00    +0.000 OA
BRANCH  11  13
ATOM     13  O   UNL     1      -7.547  -2.122 130.392  0.00  0.00    +0.000 OA
ATOM     14  H   UNL     1      -8.427  -1.904 130.746  0.00  0.00    +0.000 HD
ENDBRANCH  11  13
ENDBRANCH  10  11
ENDBRANCH   9  10
ENDBRANCH   8   9
ENDBRANCH   2   8
ENDBRANCH   1   5
BRANCH   1  15
ATOM     15  C   UNL     1      -6.853   1.450 123.786  0.00  0.00    +0.000 C 
BRANCH  15  16
ATOM     16  C   UNL     1      -7.099   2.455 122.641  0.00  0.00    +0.000 A 
ATOM     17  C   UNL     1      -8.388   2.898 122.400  0.00  0.00    +0.000 A 
ATOM     18  C   UNL     1      -8.760   3.371 121.142  0.00  0.00    +0.000 A 
ATOM     19  C   UNL     1      -7.780   3.893 120.334  0.00  0.00    +0.000 A 
ATOM     20 CL   UNL     1      -8.212   4.625 118.844  0.00  0.00    +0.000 Cl
ATOM     21  C   UNL     1      -6.463   3.857 120.772  0.00  0.00    +0.000 A 
ATOM     22  C   UNL     1      -6.109   3.044 121.857  0.00  0.00    +0.000 A 
ENDBRANCH  15  16
BRANCH  15  23
ATOM     23  C   UNL     1      -7.133   2.148 125.142  0.00  0.00    +0.000 A 
ATOM     24  C   UNL     1      -7.980   1.518 126.068  0.00  0.00    +0.000 A 
ATOM     25  C   UNL     1      -8.246   2.077 127.302  0.00  0.00    +0.000 A 
ATOM     26  C   UNL     1      -7.667   3.288 127.607  0.00  0.00    +0.000 A 
ATOM     27  C   UNL     1      -6.850   3.880 126.653  0.00  0.00    +0.000 A 
ATOM     28  N   UNL     1      -6.584   3.355 125.429  0.00  0.00    +0.000 NA
ENDBRANCH  15  23
ENDBRANCH   1  15
TORSDOF 9
ENDMDL
MODEL 9
REMARK VINA RESULT:      -7.1      6.165      8.894
REMARK  Name = Bepotastine
REMARK  9 active torsions:
REMARK  status: ('A' for Active; 'I' for Inactive)
REMARK    1  A    between atoms: O_1  and  C_2
REMARK    2  A    between atoms: C_2  and  C_4
REMARK    3  A    between atoms: C_4  and  C_5
REMARK    4  A    between atoms: C_5  and  C_6
REMARK    5  A    between atoms: C_6  and  N_7
REMARK    6  A    between atoms: C_10  and  O_13
REMARK    7  A    between atoms: O_13  and  C_14
REMARK    8  A    between atoms: C_14  and  C_15
REMARK    9  A    between atoms: C_14  and  C_22
REMARK                            x       y       z     vdW  Elec       q    Type
REMARK                         _______ _______ _______ _____ _____    ______ ____
ROOT
ATOM      1  O   UNL     1      -9.689   3.857 129.428  0.00  0.00    +0.000 OA
ENDROOT
BRANCH   1   5
ATOM      2  N   UNL     1      -7.673   2.474 126.707  0.00  0.00    +0.000 NA
ATOM      3  C   UNL     1      -7.624   3.825 127.243  0.00  0.00    +0.000 C 
ATOM      4  C   UNL     1      -7.296   4.000 128.729  0.00  0.00    +0.000 C 
ATOM      5  C   UNL     1      -8.359   3.293 129.571  0.00  0.00    +0.000 C 
ATOM      6  C   UNL     1      -8.319   1.836 129.053  0.00  0.00    +0.000 C 
ATOM      7  C   UNL     1      -8.633   1.716 127.541  0.00  0.00    +0.000 C 
BRANCH   2   8
ATOM      8  C   UNL     1      -8.109   2.553 125.274  0.00  0.00    +0.000 C 
BRANCH   8   9
ATOM      9  C   UNL     1      -9.099   1.479 124.734  0.00  0.00    +0.000 C 
BRANCH   9  10
ATOM     10  C   UNL     1      -8.722   0.928 123.361  0.00  0.00    +0.000 C 
BRANCH  10  11
ATOM     11  C   UNL     1      -9.732  -0.134 122.947  0.00  0.00    +0.000 C 
ATOM     12  O   UNL     1      -9.559  -1.327 123.023  0.00  0.00    +0.000 OA
BRANCH  11  13
ATOM     13  O   UNL     1     -10.889   0.393 122.476  0.00  0.00    +0.000 OA
ATOM     14  H   UNL     1     -10.885   0.625 121.530  0.00  0.00    +0.000 HD
ENDBRANCH  11  13
ENDBRANCH  10  11
ENDBRANCH   9  10
ENDBRANCH   8   9
ENDBRANCH   2   8
ENDBRANCH   1   5
BRANCH   1  15
ATOM     15  C   UNL     1     -10.390   4.348 130.629  0.00  0.00    +0.000 C 
BRANCH  15  16
ATOM     16  C   UNL     1      -9.429   4.600 131.809  0.00  0.00    +0.000 A 
ATOM     17  C   UNL     1      -9.316   3.642 132.802  0.00  0.00    +0.000 A 
ATOM     18  C   UNL     1      -8.895   3.985 134.085  0.00  0.00    +0.000 A 
ATOM     19  C   UNL     1      -8.104   5.099 134.228  0.00  0.00    +0.000 A 
ATOM     20 CL   UNL     1      -7.437   5.473 135.763  0.00  0.00    +0.000 Cl
ATOM     21  C   UNL     1      -7.825   5.868 133.106  0.00  0.00    +0.000 A 
ATOM     22  C   UNL     1      -8.571   5.691 131.933  0.00  0.00    +0.000 A 
ENDBRANCH  15  16
BRANCH  15  23
ATOM     23  C   UNL     1     -11.173   5.652 130.324  0.00  0.00    +0.000 A 
ATOM     24  C   UNL     1     -11.939   6.238 131.345  0.00  0.00    +0.000 A 
ATOM     25  C   UNL     1     -12.636   7.412 131.142  0.00  0.00    +0.000 A 
ATOM     26  C   UNL     1     -12.574   8.000 129.899  0.00  0.00    +0.000 A 
ATOM     27  C   UNL     1     -11.816   7.376 128.918  0.00  0.00    +0.000 A 
ATOM     28  N   UNL     1     -11.133   6.214 129.091  0.00  0.00    +0.000 NA
ENDBRANCH  15  23
ENDBRANCH   1  15
TORSDOF 9
ENDMDL
