MODEL 1
REMARK VINA RESULT:      -7.4      0.000      0.000
REMARK  Name = Bepridil
REMARK  12 active torsions:
REMARK  status: ('A' for Active; 'I' for Inactive)
REMARK    1  A    between atoms: C_1  and  C_2
REMARK    2  A    between atoms: C_2  and  C_3
REMARK    3  A    between atoms: C_2  and  C_4
REMARK    4  A    between atoms: C_4  and  O_5
REMARK    5  A    between atoms: O_5  and  C_6
REMARK    6  A    between atoms: C_6  and  C_7
REMARK    7  A    between atoms: C_7  and  C_8
REMARK    8  A    between atoms: C_7  and  N_23
REMARK    9  A    between atoms: C_8  and  N_9
REMARK   10  A    between atoms: N_9  and  C_10
REMARK   11  A    between atoms: N_9  and  C_17
REMARK   12  A    between atoms: C_10  and  C_11
REMARK                            x       y       z     vdW  Elec       q    Type
REMARK                         _______ _______ _______ _____ _____    ______ ____
ROOT
ATOM      1  N   UNL     1      -8.559   0.872 124.903  0.00  0.00    +0.000 N 
ENDROOT
BRANCH   1   2
ATOM      2  C   UNL     1      -8.877  -0.480 124.625  0.00  0.00    +0.000 A 
ATOM      3  C   UNL     1      -9.077  -1.449 125.608  0.00  0.00    +0.000 A 
ATOM      4  C   UNL     1      -9.185  -2.823 125.342  0.00  0.00    +0.000 A 
ATOM      5  C   UNL     1      -9.263  -3.260 124.034  0.00  0.00    +0.000 A 
ATOM      6  C   UNL     1      -9.270  -2.315 123.019  0.00  0.00    +0.000 A 
ATOM      7  C   UNL     1      -9.087  -0.951 123.314  0.00  0.00    +0.000 A 
ENDBRANCH   1   2
BRANCH   1   8
ATOM      8  C   UNL     1      -7.875   1.010 126.190  0.00  0.00    +0.000 C 
BRANCH   8   9
ATOM      9  C   UNL     1      -6.406   1.399 126.067  0.00  0.00    +0.000 C 
BRANCH   9  10
ATOM     10  N   UNL     1      -5.822   2.563 126.822  0.00  0.00    +0.000 NA
ATOM     11  C   UNL     1      -6.089   3.832 126.149  0.00  0.00    +0.000 C 
ATOM     12  C   UNL     1      -4.911   4.039 125.209  0.00  0.00    +0.000 C 
ATOM     13  C   UNL     1      -3.741   3.629 126.065  0.00  0.00    +0.000 C 
ATOM     14  C   UNL     1      -4.325   2.532 126.958  0.00  0.00    +0.000 C 
ENDBRANCH   9  10
BRANCH   9  15
ATOM     15  C   UNL     1      -5.586   0.014 126.330  0.00  0.00    +0.000 C 
BRANCH  15  16
ATOM     16  O   UNL     1      -5.557  -0.967 125.196  0.00  0.00    +0.000 OA
BRANCH  16  17
ATOM     17  C   UNL     1      -5.471  -2.426 125.334  0.00  0.00    +0.000 C 
BRANCH  17  19
ATOM     18  C   UNL     1      -5.639  -2.249 122.825  0.00  0.00    +0.000 C 
ATOM     19  C   UNL     1      -5.669  -3.233 123.986  0.00  0.00    +0.000 C 
ATOM     20  C   UNL     1      -4.574  -4.253 123.786  0.00  0.00    +0.000 C 
ENDBRANCH  17  19
ENDBRANCH  16  17
ENDBRANCH  15  16
ENDBRANCH   9  15
ENDBRANCH   8   9
ENDBRANCH   1   8
BRANCH   1  21
ATOM     21  C   UNL     1      -8.932   2.033 123.960  0.00  0.00    +0.000 C 
BRANCH  21  22
ATOM     22  C   UNL     1      -8.120   2.500 122.652  0.00  0.00    +0.000 A 
ATOM     23  C   UNL     1      -8.750   3.184 121.627  0.00  0.00    +0.000 A 
ATOM     24  C   UNL     1      -7.991   3.865 120.629  0.00  0.00    +0.000 A 
ATOM     25  C   UNL     1      -6.599   3.981 120.630  0.00  0.00    +0.000 A 
ATOM     26  C   UNL     1      -5.926   3.230 121.550  0.00  0.00    +0.000 A 
ATOM     27  C   UNL     1      -6.731   2.493 122.414  0.00  0.00    +0.000 A 
ENDBRANCH  21  22
ENDBRANCH   1  21
TORSDOF 10
ENDMDL
MODEL 2
REMARK VINA RESULT:      -7.0      1.705      2.844
REMARK  Name = Bepridil
REMARK  12 active torsions:
REMARK  status: ('A' for Active; 'I' for Inactive)
REMARK    1  A    between atoms: C_1  and  C_2
REMARK    2  A    between atoms: C_2  and  C_3
REMARK    3  A    between atoms: C_2  and  C_4
REMARK    4  A    between atoms: C_4  and  O_5
REMARK    5  A    between atoms: O_5  and  C_6
REMARK    6  A    between atoms: C_6  and  C_7
REMARK    7  A    between atoms: C_7  and  C_8
REMARK    8  A    between atoms: C_7  and  N_23
REMARK    9  A    between atoms: C_8  and  N_9
REMARK   10  A    between atoms: N_9  and  C_10
REMARK   11  A    between atoms: N_9  and  C_17
REMARK   12  A    between atoms: C_10  and  C_11
REMARK                            x       y       z     vdW  Elec       q    Type
REMARK                         _______ _______ _______ _____ _____    ______ ____
ROOT
ATOM      1  N   UNL     1      -8.933   1.100 123.854  0.00  0.00    +0.000 N 
ENDROOT
BRANCH   1   2
ATOM      2  C   UNL     1      -8.310  -0.126 123.513  0.00  0.00    +0.000 A 
ATOM      3  C   UNL     1      -8.984  -1.212 122.957  0.00  0.00    +0.000 A 
ATOM      4  C   UNL     1      -8.422  -2.490 122.812  0.00  0.00    +0.000 A 
ATOM      5  C   UNL     1      -7.080  -2.679 123.074  0.00  0.00    +0.000 A 
ATOM      6  C   UNL     1      -6.315  -1.581 123.441  0.00  0.00    +0.000 A 
ATOM      7  C   UNL     1      -6.922  -0.328 123.648  0.00  0.00    +0.000 A 
ENDBRANCH   1   2
BRANCH   1   8
ATOM      8  C   UNL     1      -9.250   1.163 125.281  0.00  0.00    +0.000 C 
BRANCH   8   9
ATOM      9  C   UNL     1      -8.154   1.803 126.127  0.00  0.00    +0.000 C 
BRANCH   9  10
ATOM     10  N   UNL     1      -8.322   3.159 126.759  0.00  0.00    +0.000 NA
ATOM     11  C   UNL     1      -7.699   4.210 125.958  0.00  0.00    +0.000 C 
ATOM     12  C   UNL     1      -6.270   4.307 126.472  0.00  0.00    +0.000 C 
ATOM     13  C   UNL     1      -6.459   4.217 127.965  0.00  0.00    +0.000 C 
ATOM     14  C   UNL     1      -7.678   3.301 128.110  0.00  0.00    +0.000 C 
ENDBRANCH   9  10
BRANCH   9  15
ATOM     15  C   UNL     1      -7.746   0.657 127.213  0.00  0.00    +0.000 C 
BRANCH  15  16
ATOM     16  O   UNL     1      -8.302  -0.715 126.972  0.00  0.00    +0.000 OA
BRANCH  16  17
ATOM     17  C   UNL     1      -7.531  -1.964 127.002  0.00  0.00    +0.000 C 
BRANCH  17  19
ATOM     18  C   UNL     1      -8.745  -3.844 128.163  0.00  0.00    +0.000 C 
ATOM     19  C   UNL     1      -8.388  -3.279 126.795  0.00  0.00    +0.000 C 
ATOM     20  C   UNL     1      -9.663  -2.995 126.040  0.00  0.00    +0.000 C 
ENDBRANCH  17  19
ENDBRANCH  16  17
ENDBRANCH  15  16
ENDBRANCH   9  15
ENDBRANCH   8   9
ENDBRANCH   1   8
BRANCH   1  21
ATOM     21  C   UNL     1      -9.254   2.195 122.817  0.00  0.00    +0.000 C 
BRANCH  21  22
ATOM     22  C   UNL     1      -8.188   3.109 122.031  0.00  0.00    +0.000 A 
ATOM     23  C   UNL     1      -6.884   3.229 122.479  0.00  0.00    +0.000 A 
ATOM     24  C   UNL     1      -5.870   3.771 121.634  0.00  0.00    +0.000 A 
ATOM     25  C   UNL     1      -6.058   4.140 120.300  0.00  0.00    +0.000 A 
ATOM     26  C   UNL     1      -7.346   4.149 119.848  0.00  0.00    +0.000 A 
ATOM     27  C   UNL     1      -8.299   3.724 120.769  0.00  0.00    +0.000 A 
ENDBRANCH  21  22
ENDBRANCH   1  21
TORSDOF 10
ENDMDL
MODEL 3
REMARK VINA RESULT:      -6.8      1.444      2.275
REMARK  Name = Bepridil
REMARK  12 active torsions:
REMARK  status: ('A' for Active; 'I' for Inactive)
REMARK    1  A    between atoms: C_1  and  C_2
REMARK    2  A    between atoms: C_2  and  C_3
REMARK    3  A    between atoms: C_2  and  C_4
REMARK    4  A    between atoms: C_4  and  O_5
REMARK    5  A    between atoms: O_5  and  C_6
REMARK    6  A    between atoms: C_6  and  C_7
REMARK    7  A    between atoms: C_7  and  C_8
REMARK    8  A    between atoms: C_7  and  N_23
REMARK    9  A    between atoms: C_8  and  N_9
REMARK   10  A    between atoms: N_9  and  C_10
REMARK   11  A    between atoms: N_9  and  C_17
REMARK   12  A    between atoms: C_10  and  C_11
REMARK                            x       y       z     vdW  Elec       q    Type
REMARK                         _______ _______ _______ _____ _____    ______ ____
ROOT
ATOM      1  N   UNL     1      -7.619   1.645 124.313  0.00  0.00    +0.000 N 
ENDROOT
BRANCH   1   2
ATOM      2  C   UNL     1      -7.827   0.401 123.668  0.00  0.00    +0.000 A 
ATOM      3  C   UNL     1      -9.083  -0.093 123.320  0.00  0.00    +0.000 A 
ATOM      4  C   UNL     1      -9.312  -1.404 122.875  0.00  0.00    +0.000 A 
ATOM      5  C   UNL     1      -8.239  -2.229 122.601  0.00  0.00    +0.000 A 
ATOM      6  C   UNL     1      -6.957  -1.716 122.740  0.00  0.00    +0.000 A 
ATOM      7  C   UNL     1      -6.760  -0.422 123.258  0.00  0.00    +0.000 A 
ENDBRANCH   1   2
BRANCH   1   8
ATOM      8  C   UNL     1      -7.329   1.471 125.737  0.00  0.00    +0.000 C 
BRANCH   8   9
ATOM      9  C   UNL     1      -5.862   1.686 126.097  0.00  0.00    +0.000 C 
BRANCH   9  10
ATOM     10  N   UNL     1      -5.422   2.775 127.038  0.00  0.00    +0.000 NA
ATOM     11  C   UNL     1      -4.798   3.886 126.323  0.00  0.00    +0.000 C 
ATOM     12  C   UNL     1      -3.317   3.538 126.264  0.00  0.00    +0.000 C 
ATOM     13  C   UNL     1      -3.055   3.015 127.653  0.00  0.00    +0.000 C 
ATOM     14  C   UNL     1      -4.381   2.354 128.037  0.00  0.00    +0.000 C 
ENDBRANCH   9  10
BRANCH   9  15
ATOM     15  C   UNL     1      -5.329   0.214 126.556  0.00  0.00    +0.000 C 
BRANCH  15  16
ATOM     16  O   UNL     1      -6.351  -0.706 127.154  0.00  0.00    +0.000 OA
BRANCH  16  17
ATOM     17  C   UNL     1      -6.725  -2.023 126.623  0.00  0.00    +0.000 C 
BRANCH  17  19
ATOM     18  C   UNL     1      -8.636  -3.517 125.937  0.00  0.00    +0.000 C 
ATOM     19  C   UNL     1      -8.200  -2.484 126.968  0.00  0.00    +0.000 C 
ATOM     20  C   UNL     1      -8.278  -3.105 128.341  0.00  0.00    +0.000 C 
ENDBRANCH  17  19
ENDBRANCH  16  17
ENDBRANCH  15  16
ENDBRANCH   9  15
ENDBRANCH   8   9
ENDBRANCH   1   8
BRANCH   1  21
ATOM     21  C   UNL     1      -7.726   2.998 123.581  0.00  0.00    +0.000 C 
BRANCH  21  22
ATOM     22  C   UNL     1      -7.172   3.335 122.108  0.00  0.00    +0.000 A 
ATOM     23  C   UNL     1      -8.041   3.563 121.055  0.00  0.00    +0.000 A 
ATOM     24  C   UNL     1      -7.577   4.159 119.844  0.00  0.00    +0.000 A 
ATOM     25  C   UNL     1      -6.280   4.632 119.636  0.00  0.00    +0.000 A 
ATOM     26  C   UNL     1      -5.360   4.328 120.597  0.00  0.00    +0.000 A 
ATOM     27  C   UNL     1      -5.859   3.635 121.696  0.00  0.00    +0.000 A 
ENDBRANCH  21  22
ENDBRANCH   1  21
TORSDOF 10
ENDMDL
MODEL 4
REMARK VINA RESULT:      -6.7      1.644      4.870
REMARK  Name = Bepridil
REMARK  12 active torsions:
REMARK  status: ('A' for Active; 'I' for Inactive)
REMARK    1  A    between atoms: C_1  and  C_2
REMARK    2  A    between atoms: C_2  and  C_3
REMARK    3  A    between atoms: C_2  and  C_4
REMARK    4  A    between atoms: C_4  and  O_5
REMARK    5  A    between atoms: O_5  and  C_6
REMARK    6  A    between atoms: C_6  and  C_7
REMARK    7  A    between atoms: C_7  and  C_8
REMARK    8  A    between atoms: C_7  and  N_23
REMARK    9  A    between atoms: C_8  and  N_9
REMARK   10  A    between atoms: N_9  and  C_10
REMARK   11  A    between atoms: N_9  and  C_17
REMARK   12  A    between atoms: C_10  and  C_11
REMARK                            x       y       z     vdW  Elec       q    Type
REMARK                         _______ _______ _______ _____ _____    ______ ____
ROOT
ATOM      1  N   UNL     1      -8.436   2.237 123.434  0.00  0.00    +0.000 N 
ENDROOT
BRANCH   1   2
ATOM      2  C   UNL     1      -7.927   2.957 122.325  0.00  0.00    +0.000 A 
ATOM      3  C   UNL     1      -8.723   3.475 121.304  0.00  0.00    +0.000 A 
ATOM      4  C   UNL     1      -8.214   4.002 120.107  0.00  0.00    +0.000 A 
ATOM      5  C   UNL     1      -6.852   4.182 119.965  0.00  0.00    +0.000 A 
ATOM      6  C   UNL     1      -6.028   3.867 121.035  0.00  0.00    +0.000 A 
ATOM      7  C   UNL     1      -6.561   3.272 122.194  0.00  0.00    +0.000 A 
ENDBRANCH   1   2
BRANCH   1   8
ATOM      8  C   UNL     1      -8.388   3.035 124.660  0.00  0.00    +0.000 C 
BRANCH   8   9
ATOM      9  C   UNL     1      -7.449   2.474 125.723  0.00  0.00    +0.000 C 
BRANCH   9  10
ATOM     10  N   UNL     1      -6.308   3.278 126.286  0.00  0.00    +0.000 NA
ATOM     11  C   UNL     1      -5.050   2.978 125.607  0.00  0.00    +0.000 C 
ATOM     12  C   UNL     1      -4.438   1.829 126.394  0.00  0.00    +0.000 C 
ATOM     13  C   UNL     1      -4.688   2.247 127.820  0.00  0.00    +0.000 C 
ATOM     14  C   UNL     1      -6.011   3.011 127.735  0.00  0.00    +0.000 C 
ENDBRANCH   9  10
BRANCH   9  15
ATOM     15  C   UNL     1      -8.437   1.899 126.886  0.00  0.00    +0.000 C 
BRANCH  15  16
ATOM     16  O   UNL     1      -8.490   0.407 127.036  0.00  0.00    +0.000 OA
BRANCH  16  17
ATOM     17  C   UNL     1      -7.670  -0.385 127.960  0.00  0.00    +0.000 C 
BRANCH  17  19
ATOM     18  C   UNL     1      -5.688  -1.888 127.549  0.00  0.00    +0.000 C 
ATOM     19  C   UNL     1      -7.200  -1.788 127.395  0.00  0.00    +0.000 C 
ATOM     20  C   UNL     1      -7.841  -2.930 128.145  0.00  0.00    +0.000 C 
ENDBRANCH  17  19
ENDBRANCH  16  17
ENDBRANCH  15  16
ENDBRANCH   9  15
ENDBRANCH   8   9
ENDBRANCH   1   8
BRANCH   1  21
ATOM     21  C   UNL     1      -8.937   0.783 123.333  0.00  0.00    +0.000 C 
BRANCH  21  22
ATOM     22  C   UNL     1      -8.130  -0.538 123.772  0.00  0.00    +0.000 A 
ATOM     23  C   UNL     1      -8.782  -1.746 123.949  0.00  0.00    +0.000 A 
ATOM     24  C   UNL     1      -8.047  -2.967 124.029  0.00  0.00    +0.000 A 
ATOM     25  C   UNL     1      -6.665  -3.076 123.859  0.00  0.00    +0.000 A 
ATOM     26  C   UNL     1      -5.965  -1.905 123.799  0.00  0.00    +0.000 A 
ATOM     27  C   UNL     1      -6.740  -0.750 123.851  0.00  0.00    +0.000 A 
ENDBRANCH  21  22
ENDBRANCH   1  21
TORSDOF 10
ENDMDL
MODEL 5
REMARK VINA RESULT:      -6.7      2.561      5.969
REMARK  Name = Bepridil
REMARK  12 active torsions:
REMARK  status: ('A' for Active; 'I' for Inactive)
REMARK    1  A    between atoms: C_1  and  C_2
REMARK    2  A    between atoms: C_2  and  C_3
REMARK    3  A    between atoms: C_2  and  C_4
REMARK    4  A    between atoms: C_4  and  O_5
REMARK    5  A    between atoms: O_5  and  C_6
REMARK    6  A    between atoms: C_6  and  C_7
REMARK    7  A    between atoms: C_7  and  C_8
REMARK    8  A    between atoms: C_7  and  N_23
REMARK    9  A    between atoms: C_8  and  N_9
REMARK   10  A    between atoms: N_9  and  C_10
REMARK   11  A    between atoms: N_9  and  C_17
REMARK   12  A    between atoms: C_10  and  C_11
REMARK                            x       y       z     vdW  Elec       q    Type
REMARK                         _______ _______ _______ _____ _____    ______ ____
ROOT
ATOM      1  N   UNL     1      -5.853  -1.339 126.942  0.00  0.00    +0.000 N 
ENDROOT
BRANCH   1   2
ATOM      2  C   UNL     1      -5.981  -2.185 128.071  0.00  0.00    +0.000 A 
ATOM      3  C   UNL     1      -4.899  -2.667 128.807  0.00  0.00    +0.000 A 
ATOM      4  C   UNL     1      -5.004  -3.664 129.789  0.00  0.00    +0.000 A 
ATOM      5  C   UNL     1      -6.252  -4.100 130.189  0.00  0.00    +0.000 A 
ATOM      6  C   UNL     1      -7.372  -3.505 129.627  0.00  0.00    +0.000 A 
ATOM      7  C   UNL     1      -7.234  -2.560 128.592  0.00  0.00    +0.000 A 
ENDBRANCH   1   2
BRANCH   1   8
ATOM      8  C   UNL     1      -5.935   0.074 127.316  0.00  0.00    +0.000 C 
BRANCH   8   9
ATOM      9  C   UNL     1      -6.359   0.990 126.173  0.00  0.00    +0.000 C 
BRANCH   9  10
ATOM     10  N   UNL     1      -7.710   1.653 126.140  0.00  0.00    +0.000 NA
ATOM     11  C   UNL     1      -8.714   0.869 126.857  0.00  0.00    +0.000 C 
ATOM     12  C   UNL     1      -9.307  -0.066 125.813  0.00  0.00    +0.000 C 
ATOM     13  C   UNL     1      -9.464   0.843 124.620  0.00  0.00    +0.000 C 
ATOM     14  C   UNL     1      -8.292   1.816 124.764  0.00  0.00    +0.000 C 
ENDBRANCH   9  10
BRANCH   9  15
ATOM     15  C   UNL     1      -5.138   2.060 126.025  0.00  0.00    +0.000 C 
BRANCH  15  16
ATOM     16  O   UNL     1      -4.807   2.865 127.247  0.00  0.00    +0.000 OA
BRANCH  16  17
ATOM     17  C   UNL     1      -3.633   2.665 128.105  0.00  0.00    +0.000 C 
BRANCH  17  19
ATOM     18  C   UNL     1      -1.689   3.090 126.556  0.00  0.00    +0.000 C 
ATOM     19  C   UNL     1      -2.409   3.619 127.789  0.00  0.00    +0.000 C 
ATOM     20  C   UNL     1      -2.864   5.032 127.516  0.00  0.00    +0.000 C 
ENDBRANCH  17  19
ENDBRANCH  16  17
ENDBRANCH  15  16
ENDBRANCH   9  15
ENDBRANCH   8   9
ENDBRANCH   1   8
BRANCH   1  21
ATOM     21  C   UNL     1      -5.685  -1.875 125.506  0.00  0.00    +0.000 C 
BRANCH  21  22
ATOM     22  C   UNL     1      -6.853  -2.438 124.554  0.00  0.00    +0.000 A 
ATOM     23  C   UNL     1      -7.753  -3.384 125.013  0.00  0.00    +0.000 A 
ATOM     24  C   UNL     1      -8.958  -3.653 124.296  0.00  0.00    +0.000 A 
ATOM     25  C   UNL     1      -9.377  -2.961 123.157  0.00  0.00    +0.000 A 
ATOM     26  C   UNL     1      -8.474  -2.102 122.601  0.00  0.00    +0.000 A 
ATOM     27  C   UNL     1      -7.269  -1.984 123.287  0.00  0.00    +0.000 A 
ENDBRANCH  21  22
ENDBRANCH   1  21
TORSDOF 10
ENDMDL
MODEL 6
REMARK VINA RESULT:      -6.7      6.652      9.785
REMARK  Name = Bepridil
REMARK  12 active torsions:
REMARK  status: ('A' for Active; 'I' for Inactive)
REMARK    1  A    between atoms: C_1  and  C_2
REMARK    2  A    between atoms: C_2  and  C_3
REMARK    3  A    between atoms: C_2  and  C_4
REMARK    4  A    between atoms: C_4  and  O_5
REMARK    5  A    between atoms: O_5  and  C_6
REMARK    6  A    between atoms: C_6  and  C_7
REMARK    7  A    between atoms: C_7  and  C_8
REMARK    8  A    between atoms: C_7  and  N_23
REMARK    9  A    between atoms: C_8  and  N_9
REMARK   10  A    between atoms: N_9  and  C_10
REMARK   11  A    between atoms: N_9  and  C_17
REMARK   12  A    between atoms: C_10  and  C_11
REMARK                            x       y       z     vdW  Elec       q    Type
REMARK                         _______ _______ _______ _____ _____    ______ ____
ROOT
ATOM      1  N   UNL     1      -9.390   2.270 131.160  0.00  0.00    +0.000 N 
ENDROOT
BRANCH   1   2
ATOM      2  C   UNL     1      -8.709   1.170 130.584  0.00  0.00    +0.000 A 
ATOM      3  C   UNL     1      -8.096   1.204 129.333  0.00  0.00    +0.000 A 
ATOM      4  C   UNL     1      -7.604   0.068 128.670  0.00  0.00    +0.000 A 
ATOM      5  C   UNL     1      -7.563  -1.143 129.332  0.00  0.00    +0.000 A 
ATOM      6  C   UNL     1      -7.979  -1.189 130.655  0.00  0.00    +0.000 A 
ATOM      7  C   UNL     1      -8.534  -0.050 131.268  0.00  0.00    +0.000 A 
ENDBRANCH   1   2
BRANCH   1   8
ATOM      8  C   UNL     1      -9.849   3.213 130.139  0.00  0.00    +0.000 C 
BRANCH   8   9
ATOM      9  C   UNL     1      -9.790   4.672 130.578  0.00  0.00    +0.000 C 
BRANCH   9  10
ATOM     10  N   UNL     1      -8.761   5.628 130.038  0.00  0.00    +0.000 NA
ATOM     11  C   UNL     1      -7.466   4.978 129.849  0.00  0.00    +0.000 C 
ATOM     12  C   UNL     1      -6.733   5.161 131.170  0.00  0.00    +0.000 C 
ATOM     13  C   UNL     1      -7.051   6.593 131.517  0.00  0.00    +0.000 C 
ATOM     14  C   UNL     1      -8.455   6.791 130.940  0.00  0.00    +0.000 C 
ENDBRANCH   9  10
BRANCH   9  15
ATOM     15  C   UNL     1     -11.313   5.224 130.386  0.00  0.00    +0.000 C 
BRANCH  15  16
ATOM     16  O   UNL     1     -11.633   5.842 129.057  0.00  0.00    +0.000 OA
BRANCH  16  17
ATOM     17  C   UNL     1     -12.725   6.789 128.800  0.00  0.00    +0.000 C 
BRANCH  17  19
ATOM     18  C   UNL     1     -13.034   9.290 128.781  0.00  0.00    +0.000 C 
ATOM     19  C   UNL     1     -12.280   8.146 128.117  0.00  0.00    +0.000 C 
ATOM     20  C   UNL     1     -10.799   8.385 128.274  0.00  0.00    +0.000 C 
ENDBRANCH  17  19
ENDBRANCH  16  17
ENDBRANCH  15  16
ENDBRANCH   9  15
ENDBRANCH   8   9
ENDBRANCH   1   8
BRANCH   1  21
ATOM     21  C   UNL     1      -9.577   2.439 132.681  0.00  0.00    +0.000 C 
BRANCH  21  22
ATOM     22  C   UNL     1      -8.525   3.097 133.706  0.00  0.00    +0.000 A 
ATOM     23  C   UNL     1      -7.237   2.602 133.821  0.00  0.00    +0.000 A 
ATOM     24  C   UNL     1      -6.222   3.358 134.481  0.00  0.00    +0.000 A 
ATOM     25  C   UNL     1      -6.391   4.652 134.979  0.00  0.00    +0.000 A 
ATOM     26  C   UNL     1      -7.666   5.137 134.993  0.00  0.00    +0.000 A 
ATOM     27  C   UNL     1      -8.627   4.292 134.445  0.00  0.00    +0.000 A 
ENDBRANCH  21  22
ENDBRANCH   1  21
TORSDOF 10
ENDMDL
MODEL 7
REMARK VINA RESULT:      -6.7      2.546      6.503
REMARK  Name = Bepridil
REMARK  12 active torsions:
REMARK  status: ('A' for Active; 'I' for Inactive)
REMARK    1  A    between atoms: C_1  and  C_2
REMARK    2  A    between atoms: C_2  and  C_3
REMARK    3  A    between atoms: C_2  and  C_4
REMARK    4  A    between atoms: C_4  and  O_5
REMARK    5  A    between atoms: O_5  and  C_6
REMARK    6  A    between atoms: C_6  and  C_7
REMARK    7  A    between atoms: C_7  and  C_8
REMARK    8  A    between atoms: C_7  and  N_23
REMARK    9  A    between atoms: C_8  and  N_9
REMARK   10  A    between atoms: N_9  and  C_10
REMARK   11  A    between atoms: N_9  and  C_17
REMARK   12  A    between atoms: C_10  and  C_11
REMARK                            x       y       z     vdW  Elec       q    Type
REMARK                         _______ _______ _______ _____ _____    ______ ____
ROOT
ATOM      1  N   UNL     1      -7.019  -0.892 126.475  0.00  0.00    +0.000 N 
ENDROOT
BRANCH   1   2
ATOM      2  C   UNL     1      -7.618  -1.648 125.437  0.00  0.00    +0.000 A 
ATOM      3  C   UNL     1      -7.140  -1.684 124.128  0.00  0.00    +0.000 A 
ATOM      4  C   UNL     1      -7.840  -2.258 123.055  0.00  0.00    +0.000 A 
ATOM      5  C   UNL     1      -8.994  -2.976 123.300  0.00  0.00    +0.000 A 
ATOM      6  C   UNL     1      -9.405  -3.141 124.615  0.00  0.00    +0.000 A 
ATOM      7  C   UNL     1      -8.723  -2.492 125.661  0.00  0.00    +0.000 A 
ENDBRANCH   1   2
BRANCH   1   8
ATOM      8  C   UNL     1      -7.799   0.309 126.783  0.00  0.00    +0.000 C 
BRANCH   8   9
ATOM      9  C   UNL     1      -7.546   1.469 125.826  0.00  0.00    +0.000 C 
BRANCH   9  10
ATOM     10  N   UNL     1      -8.670   2.281 125.241  0.00  0.00    +0.000 NA
ATOM     11  C   UNL     1      -9.735   1.430 124.716  0.00  0.00    +0.000 C 
ATOM     12  C   UNL     1      -9.358   1.173 123.264  0.00  0.00    +0.000 C 
ATOM     13  C   UNL     1      -8.896   2.533 122.807  0.00  0.00    +0.000 C 
ATOM     14  C   UNL     1      -8.278   3.137 124.069  0.00  0.00    +0.000 C 
ENDBRANCH   9  10
BRANCH   9  15
ATOM     15  C   UNL     1      -6.437   2.396 126.583  0.00  0.00    +0.000 C 
BRANCH  15  16
ATOM     16  O   UNL     1      -5.085   2.473 125.939  0.00  0.00    +0.000 OA
BRANCH  16  17
ATOM     17  C   UNL     1      -4.110   3.553 126.133  0.00  0.00    +0.000 C 
BRANCH  17  19
ATOM     18  C   UNL     1      -1.668   3.006 126.429  0.00  0.00    +0.000 C 
ATOM     19  C   UNL     1      -2.969   3.238 127.184  0.00  0.00    +0.000 C 
ATOM     20  C   UNL     1      -2.773   4.383 128.148  0.00  0.00    +0.000 C 
ENDBRANCH  17  19
ENDBRANCH  16  17
ENDBRANCH  15  16
ENDBRANCH   9  15
ENDBRANCH   8   9
ENDBRANCH   1   8
BRANCH   1  21
ATOM     21  C   UNL     1      -5.693  -1.294 127.150  0.00  0.00    +0.000 C 
BRANCH  21  22
ATOM     22  C   UNL     1      -5.529  -2.205 128.466  0.00  0.00    +0.000 A 
ATOM     23  C   UNL     1      -6.634  -2.741 129.105  0.00  0.00    +0.000 A 
ATOM     24  C   UNL     1      -6.485  -3.786 130.066  0.00  0.00    +0.000 A 
ATOM     25  C   UNL     1      -5.276  -4.407 130.385  0.00  0.00    +0.000 A 
ATOM     26  C   UNL     1      -4.146  -3.840 129.871  0.00  0.00    +0.000 A 
ATOM     27  C   UNL     1      -4.361  -2.745 129.038  0.00  0.00    +0.000 A 
ENDBRANCH  21  22
ENDBRANCH   1  21
TORSDOF 10
ENDMDL
MODEL 8
REMARK VINA RESULT:      -6.7      2.009      5.567
REMARK  Name = Bepridil
REMARK  12 active torsions:
REMARK  status: ('A' for Active; 'I' for Inactive)
REMARK    1  A    between atoms: C_1  and  C_2
REMARK    2  A    between atoms: C_2  and  C_3
REMARK    3  A    between atoms: C_2  and  C_4
REMARK    4  A    between atoms: C_4  and  O_5
REMARK    5  A    between atoms: O_5  and  C_6
REMARK    6  A    between atoms: C_6  and  C_7
REMARK    7  A    between atoms: C_7  and  C_8
REMARK    8  A    between atoms: C_7  and  N_23
REMARK    9  A    between atoms: C_8  and  N_9
REMARK   10  A    between atoms: N_9  and  C_10
REMARK   11  A    between atoms: N_9  and  C_17
REMARK   12  A    between atoms: C_10  and  C_11
REMARK                            x       y       z     vdW  Elec       q    Type
REMARK                         _______ _______ _______ _____ _____    ______ ____
ROOT
ATOM      1  N   UNL     1      -7.733  -0.856 125.913  0.00  0.00    +0.000 N 
ENDROOT
BRANCH   1   2
ATOM      2  C   UNL     1      -7.999  -1.684 127.031  0.00  0.00    +0.000 A 
ATOM      3  C   UNL     1      -7.666  -1.348 128.343  0.00  0.00    +0.000 A 
ATOM      4  C   UNL     1      -7.735  -2.244 129.421  0.00  0.00    +0.000 A 
ATOM      5  C   UNL     1      -8.312  -3.485 129.241  0.00  0.00    +0.000 A 
ATOM      6  C   UNL     1      -8.844  -3.794 127.997  0.00  0.00    +0.000 A 
ATOM      7  C   UNL     1      -8.693  -2.904 126.917  0.00  0.00    +0.000 A 
ENDBRANCH   1   2
BRANCH   1   8
ATOM      8  C   UNL     1      -7.647   0.554 126.296  0.00  0.00    +0.000 C 
BRANCH   8   9
ATOM      9  C   UNL     1      -6.914   1.424 125.281  0.00  0.00    +0.000 C 
BRANCH   9  10
ATOM     10  N   UNL     1      -7.483   2.727 124.786  0.00  0.00    +0.000 NA
ATOM     11  C   UNL     1      -8.924   2.637 124.565  0.00  0.00    +0.000 C 
ATOM     12  C   UNL     1      -9.077   2.188 123.119  0.00  0.00    +0.000 C 
ATOM     13  C   UNL     1      -8.043   3.026 122.412  0.00  0.00    +0.000 C 
ATOM     14  C   UNL     1      -6.939   3.182 123.460  0.00  0.00    +0.000 C 
ENDBRANCH   9  10
BRANCH   9  15
ATOM     15  C   UNL     1      -5.410   1.593 125.890  0.00  0.00    +0.000 C 
BRANCH  15  16
ATOM     16  O   UNL     1      -5.063   2.946 126.436  0.00  0.00    +0.000 OA
BRANCH  16  17
ATOM     17  C   UNL     1      -3.963   3.797 125.967  0.00  0.00    +0.000 C 
BRANCH  17  19
ATOM     18  C   UNL     1      -3.192   3.484 128.346  0.00  0.00    +0.000 C 
ATOM     19  C   UNL     1      -2.729   3.894 126.955  0.00  0.00    +0.000 C 
ATOM     20  C   UNL     1      -1.606   2.981 126.529  0.00  0.00    +0.000 C 
ENDBRANCH  17  19
ENDBRANCH  16  17
ENDBRANCH  15  16
ENDBRANCH   9  15
ENDBRANCH   8   9
ENDBRANCH   1   8
BRANCH   1  21
ATOM     21  C   UNL     1      -7.593  -1.403 124.479  0.00  0.00    +0.000 C 
BRANCH  21  22
ATOM     22  C   UNL     1      -6.557  -2.530 123.983  0.00  0.00    +0.000 A 
ATOM     23  C   UNL     1      -5.363  -2.183 123.374  0.00  0.00    +0.000 A 
ATOM     24  C   UNL     1      -4.318  -3.143 123.219  0.00  0.00    +0.000 A 
ATOM     25  C   UNL     1      -4.355  -4.447 123.719  0.00  0.00    +0.000 A 
ATOM     26  C   UNL     1      -5.549  -4.872 124.223  0.00  0.00    +0.000 A 
ATOM     27  C   UNL     1      -6.562  -3.917 124.229  0.00  0.00    +0.000 A 
ENDBRANCH  21  22
ENDBRANCH   1  21
TORSDOF 10
ENDMDL
MODEL 9
REMARK VINA RESULT:      -6.4      1.941      4.435
REMARK  Name = Bepridil
REMARK  12 active torsions:
REMARK  status: ('A' for Active; 'I' for Inactive)
REMARK    1  A    between atoms: C_1  and  C_2
REMARK    2  A    between atoms: C_2  and  C_3
REMARK    3  A    between atoms: C_2  and  C_4
REMARK    4  A    between atoms: C_4  and  O_5
REMARK    5  A    between atoms: O_5  and  C_6
REMARK    6  A    between atoms: C_6  and  C_7
REMARK    7  A    between atoms: C_7  and  C_8
REMARK    8  A    between atoms: C_7  and  N_23
REMARK    9  A    between atoms: C_8  and  N_9
REMARK   10  A    between atoms: N_9  and  C_10
REMARK   11  A    between atoms: N_9  and  C_17
REMARK   12  A    between atoms: C_10  and  C_11
REMARK                            x       y       z     vdW  Elec       q    Type
REMARK                         _______ _______ _______ _____ _____    ______ ____
ROOT
ATOM      1  N   UNL     1      -6.695   1.196 124.570  0.00  0.00    +0.000 N 
ENDROOT
BRANCH   1   2
ATOM      2  C   UNL     1      -7.285   0.120 123.863  0.00  0.00    +0.000 A 
ATOM      3  C   UNL     1      -8.661  -0.061 123.728  0.00  0.00    +0.000 A 
ATOM      4  C   UNL     1      -9.250  -1.226 123.213  0.00  0.00    +0.000 A 
ATOM      5  C   UNL     1      -8.453  -2.202 122.651  0.00  0.00    +0.000 A 
ATOM      6  C   UNL     1      -7.085  -1.980 122.578  0.00  0.00    +0.000 A 
ATOM      7  C   UNL     1      -6.517  -0.836 123.169  0.00  0.00    +0.000 A 
ENDBRANCH   1   2
BRANCH   1   8
ATOM      8  C   UNL     1      -5.798   0.720 125.624  0.00  0.00    +0.000 C 
BRANCH   8   9
ATOM      9  C   UNL     1      -6.524   0.134 126.831  0.00  0.00    +0.000 C 
BRANCH   9  10
ATOM     10  N   UNL     1      -6.210  -1.238 127.363  0.00  0.00    +0.000 NA
ATOM     11  C   UNL     1      -6.671  -2.288 126.458  0.00  0.00    +0.000 C 
ATOM     12  C   UNL     1      -8.093  -2.599 126.903  0.00  0.00    +0.000 C 
ATOM     13  C   UNL     1      -7.965  -2.609 128.404  0.00  0.00    +0.000 C 
ATOM     14  C   UNL     1      -6.875  -1.568 128.671  0.00  0.00    +0.000 C 
ENDBRANCH   9  10
BRANCH   9  15
ATOM     15  C   UNL     1      -6.415   1.286 127.980  0.00  0.00    +0.000 C 
BRANCH  15  16
ATOM     16  O   UNL     1      -5.468   2.416 127.700  0.00  0.00    +0.000 OA
BRANCH  16  17
ATOM     17  C   UNL     1      -4.051   2.453 128.079  0.00  0.00    +0.000 C 
BRANCH  17  19
ATOM     18  C   UNL     1      -1.845   2.941 126.960  0.00  0.00    +0.000 C 
ATOM     19  C   UNL     1      -3.191   3.551 127.329  0.00  0.00    +0.000 C 
ATOM     20  C   UNL     1      -3.872   4.021 126.068  0.00  0.00    +0.000 C 
ENDBRANCH  17  19
ENDBRANCH  16  17
ENDBRANCH  15  16
ENDBRANCH   9  15
ENDBRANCH   8   9
ENDBRANCH   1   8
BRANCH   1  21
ATOM     21  C   UNL     1      -7.008   2.674 124.263  0.00  0.00    +0.000 C 
BRANCH  21  22
ATOM     22  C   UNL     1      -6.575   3.489 122.945  0.00  0.00    +0.000 A 
ATOM     23  C   UNL     1      -5.384   4.192 122.900  0.00  0.00    +0.000 A 
ATOM     24  C   UNL     1      -4.852   4.648 121.656  0.00  0.00    +0.000 A 
ATOM     25  C   UNL     1      -5.407   4.371 120.405  0.00  0.00    +0.000 A 
ATOM     26  C   UNL     1      -6.639   3.783 120.402  0.00  0.00    +0.000 A 
ATOM     27  C   UNL     1      -7.152   3.478 121.660  0.00  0.00    +0.000 A 
ENDBRANCH  21  22
ENDBRANCH   1  21
TORSDOF 10
ENDMDL
