MODEL 1
REMARK VINA RESULT:      -8.0      0.000      0.000
REMARK  Name = Berberine
REMARK  4 active torsions:
REMARK  status: ('A' for Active; 'I' for Inactive)
REMARK    1  A    between atoms: C_1  and  O_2
REMARK    2  A    between atoms: O_2  and  C_3
REMARK    3  A    between atoms: C_23  and  O_24
REMARK    4  A    between atoms: O_24  and  C_25
REMARK                            x       y       z     vdW  Elec       q    Type
REMARK                         _______ _______ _______ _____ _____    ______ ____
ROOT
ATOM      1  C   UNL     1      -2.527   6.523 131.979  0.00  0.00    +0.000 A 
ATOM      2  C   UNL     1      -2.831   7.162 130.776  0.00  0.00    +0.000 A 
ATOM      3  C   UNL     1      -4.149   7.315 130.366  0.00  0.00    +0.000 A 
ATOM      4  C   UNL     1      -5.195   6.845 131.157  0.00  0.00    +0.000 A 
ATOM      5  C   UNL     1      -6.509   7.009 130.728  0.00  0.00    +0.000 A 
ATOM      6  C   UNL     1      -7.585   6.584 131.515  0.00  0.00    +0.000 A 
ATOM      7  C   UNL     1      -9.000   6.744 131.115  0.00  0.00    +0.000 A 
ATOM      8  C   UNL     1      -9.380   7.547 130.015  0.00  0.00    +0.000 A 
ATOM      9  C   UNL     1     -10.709   7.613 129.648  0.00  0.00    +0.000 A 
ATOM     10  C   UNL     1     -11.683   6.945 130.339  0.00  0.00    +0.000 A 
ATOM     11  O   UNL     1     -12.918   7.138 129.807  0.00  0.00    +0.000 OA
ATOM     12  C   UNL     1     -12.593   7.920 128.636  0.00  0.00    +0.000 C 
ATOM     13  O   UNL     1     -11.201   8.306 128.589  0.00  0.00    +0.000 OA
ATOM     14  C   UNL     1     -11.379   6.164 131.429  0.00  0.00    +0.000 A 
ATOM     15  C   UNL     1     -10.028   6.057 131.814  0.00  0.00    +0.000 A 
ATOM     16  C   UNL     1      -9.646   5.123 132.926  0.00  0.00    +0.000 C 
ATOM     17  C   UNL     1      -8.414   5.624 133.651  0.00  0.00    +0.000 C 
ATOM     18  N   UNL     1      -7.321   5.981 132.710  0.00  0.00    +0.000 N 
ATOM     19  C   UNL     1      -6.039   5.786 133.125  0.00  0.00    +0.000 A 
ATOM     20  C   UNL     1      -4.928   6.208 132.380  0.00  0.00    +0.000 A 
ATOM     21  C   UNL     1      -3.571   6.030 132.790  0.00  0.00    +0.000 A 
ENDROOT
BRANCH   1  23
ATOM     22  C   UNL     1      -0.438   7.374 132.719  0.00  0.00    +0.000 C 
ATOM     23  O   UNL     1      -1.222   6.261 132.297  0.00  0.00    +0.000 OA
ENDBRANCH   1  23
BRANCH  21  24
ATOM     24  O   UNL     1      -3.426   5.367 133.991  0.00  0.00    +0.000 OA
ATOM     25  C   UNL     1      -3.077   6.131 135.145  0.00  0.00    +0.000 C 
ENDBRANCH  21  24
TORSDOF 2
ENDMDL
MODEL 2
REMARK VINA RESULT:      -7.4     10.145     12.473
REMARK  Name = Berberine
REMARK  4 active torsions:
REMARK  status: ('A' for Active; 'I' for Inactive)
REMARK    1  A    between atoms: C_1  and  O_2
REMARK    2  A    between atoms: O_2  and  C_3
REMARK    3  A    between atoms: C_23  and  O_24
REMARK    4  A    between atoms: O_24  and  C_25
REMARK                            x       y       z     vdW  Elec       q    Type
REMARK                         _______ _______ _______ _____ _____    ______ ____
ROOT
ATOM      1  C   UNL     1      -8.913  -2.361 125.641  0.00  0.00    +0.000 A 
ATOM      2  C   UNL     1      -9.564  -3.325 126.413  0.00  0.00    +0.000 A 
ATOM      3  C   UNL     1      -9.024  -3.752 127.620  0.00  0.00    +0.000 A 
ATOM      4  C   UNL     1      -7.829  -3.214 128.090  0.00  0.00    +0.000 A 
ATOM      5  C   UNL     1      -7.305  -3.655 129.302  0.00  0.00    +0.000 A 
ATOM      6  C   UNL     1      -6.128  -3.109 129.823  0.00  0.00    +0.000 A 
ATOM      7  C   UNL     1      -5.534  -3.530 131.111  0.00  0.00    +0.000 A 
ATOM      8  C   UNL     1      -6.235  -4.350 132.024  0.00  0.00    +0.000 A 
ATOM      9  C   UNL     1      -5.611  -4.764 133.184  0.00  0.00    +0.000 A 
ATOM     10  C   UNL     1      -4.336  -4.378 133.496  0.00  0.00    +0.000 A 
ATOM     11  O   UNL     1      -3.911  -4.903 134.674  0.00  0.00    +0.000 OA
ATOM     12  C   UNL     1      -5.030  -5.751 135.015  0.00  0.00    +0.000 C 
ATOM     13  O   UNL     1      -6.152  -5.587 134.120  0.00  0.00    +0.000 OA
ATOM     14  C   UNL     1      -3.610  -3.565 132.658  0.00  0.00    +0.000 A 
ATOM     15  C   UNL     1      -4.210  -3.145 131.454  0.00  0.00    +0.000 A 
ATOM     16  C   UNL     1      -3.408  -2.354 130.462  0.00  0.00    +0.000 C 
ATOM     17  C   UNL     1      -4.302  -1.432 129.659  0.00  0.00    +0.000 C 
ATOM     18  N   UNL     1      -5.483  -2.144 129.105  0.00  0.00    +0.000 N 
ATOM     19  C   UNL     1      -5.967  -1.727 127.903  0.00  0.00    +0.000 A 
ATOM     20  C   UNL     1      -7.152  -2.233 127.346  0.00  0.00    +0.000 A 
ATOM     21  C   UNL     1      -7.695  -1.811 126.094  0.00  0.00    +0.000 A 
ENDROOT
BRANCH   1  23
ATOM     22  C   UNL     1      -9.348  -3.104 123.429  0.00  0.00    +0.000 C 
ATOM     23  O   UNL     1      -9.388  -2.056 124.395  0.00  0.00    +0.000 OA
ENDBRANCH   1  23
BRANCH  21  24
ATOM     24  O   UNL     1      -6.933  -0.867 125.437  0.00  0.00    +0.000 OA
ATOM     25  C   UNL     1      -6.081  -1.306 124.379  0.00  0.00    +0.000 C 
ENDBRANCH  21  24
TORSDOF 2
ENDMDL
MODEL 3
REMARK VINA RESULT:      -7.4      9.109     11.351
REMARK  Name = Berberine
REMARK  4 active torsions:
REMARK  status: ('A' for Active; 'I' for Inactive)
REMARK    1  A    between atoms: C_1  and  O_2
REMARK    2  A    between atoms: O_2  and  C_3
REMARK    3  A    between atoms: C_23  and  O_24
REMARK    4  A    between atoms: O_24  and  C_25
REMARK                            x       y       z     vdW  Elec       q    Type
REMARK                         _______ _______ _______ _____ _____    ______ ____
ROOT
ATOM      1  C   UNL     1      -8.390   2.216 123.930  0.00  0.00    +0.000 A 
ATOM      2  C   UNL     1      -7.228   2.641 124.577  0.00  0.00    +0.000 A 
ATOM      3  C   UNL     1      -6.655   1.876 125.585  0.00  0.00    +0.000 A 
ATOM      4  C   UNL     1      -7.223   0.661 125.961  0.00  0.00    +0.000 A 
ATOM      5  C   UNL     1      -6.634  -0.091 126.973  0.00  0.00    +0.000 A 
ATOM      6  C   UNL     1      -7.154  -1.333 127.349  0.00  0.00    +0.000 A 
ATOM      7  C   UNL     1      -6.561  -2.179 128.408  0.00  0.00    +0.000 A 
ATOM      8  C   UNL     1      -5.290  -1.903 128.960  0.00  0.00    +0.000 A 
ATOM      9  C   UNL     1      -4.810  -2.689 129.989  0.00  0.00    +0.000 A 
ATOM     10  C   UNL     1      -5.518  -3.754 130.475  0.00  0.00    +0.000 A 
ATOM     11  O   UNL     1      -4.872  -4.385 131.489  0.00  0.00    +0.000 OA
ATOM     12  C   UNL     1      -3.721  -3.527 131.656  0.00  0.00    +0.000 C 
ATOM     13  O   UNL     1      -3.631  -2.505 130.638  0.00  0.00    +0.000 OA
ATOM     14  C   UNL     1      -6.752  -4.085 129.965  0.00  0.00    +0.000 A 
ATOM     15  C   UNL     1      -7.280  -3.287 128.931  0.00  0.00    +0.000 A 
ATOM     16  C   UNL     1      -8.671  -3.548 128.430  0.00  0.00    +0.000 C 
ATOM     17  C   UNL     1      -8.802  -3.155 126.973  0.00  0.00    +0.000 C 
ATOM     18  N   UNL     1      -8.273  -1.790 126.715  0.00  0.00    +0.000 N 
ATOM     19  C   UNL     1      -8.878  -1.049 125.746  0.00  0.00    +0.000 A 
ATOM     20  C   UNL     1      -8.385   0.195 125.324  0.00  0.00    +0.000 A 
ATOM     21  C   UNL     1      -8.987   0.993 124.302  0.00  0.00    +0.000 A 
ENDROOT
BRANCH   1  23
ATOM     22  C   UNL     1      -8.394   3.181 121.762  0.00  0.00    +0.000 C 
ATOM     23  O   UNL     1      -9.012   3.046 123.039  0.00  0.00    +0.000 OA
ENDBRANCH   1  23
BRANCH  21  24
ATOM     24  O   UNL     1     -10.138   0.452 123.768  0.00  0.00    +0.000 OA
ATOM     25  C   UNL     1     -10.064  -0.144 122.473  0.00  0.00    +0.000 C 
ENDBRANCH  21  24
TORSDOF 2
ENDMDL
MODEL 4
REMARK VINA RESULT:      -7.2      2.642      8.070
REMARK  Name = Berberine
REMARK  4 active torsions:
REMARK  status: ('A' for Active; 'I' for Inactive)
REMARK    1  A    between atoms: C_1  and  O_2
REMARK    2  A    between atoms: O_2  and  C_3
REMARK    3  A    between atoms: C_23  and  O_24
REMARK    4  A    between atoms: O_24  and  C_25
REMARK                            x       y       z     vdW  Elec       q    Type
REMARK                         _______ _______ _______ _____ _____    ______ ____
ROOT
ATOM      1  C   UNL     1     -12.615   7.072 129.477  0.00  0.00    +0.000 A 
ATOM      2  C   UNL     1     -12.945   7.223 130.825  0.00  0.00    +0.000 A 
ATOM      3  C   UNL     1     -12.025   6.920 131.820  0.00  0.00    +0.000 A 
ATOM      4  C   UNL     1     -10.747   6.473 131.490  0.00  0.00    +0.000 A 
ATOM      5  C   UNL     1      -9.840   6.175 132.502  0.00  0.00    +0.000 A 
ATOM      6  C   UNL     1      -8.537   5.761 132.207  0.00  0.00    +0.000 A 
ATOM      7  C   UNL     1      -7.528   5.444 133.241  0.00  0.00    +0.000 A 
ATOM      8  C   UNL     1      -7.731   5.759 134.604  0.00  0.00    +0.000 A 
ATOM      9  C   UNL     1      -6.783   5.387 135.537  0.00  0.00    +0.000 A 
ATOM     10  C   UNL     1      -5.630   4.744 135.178  0.00  0.00    +0.000 A 
ATOM     11  O   UNL     1      -4.843   4.461 136.247  0.00  0.00    +0.000 OA
ATOM     12  C   UNL     1      -5.685   4.906 137.333  0.00  0.00    +0.000 C 
ATOM     13  O   UNL     1      -6.876   5.585 136.877  0.00  0.00    +0.000 OA
ATOM     14  C   UNL     1      -5.367   4.427 133.866  0.00  0.00    +0.000 A 
ATOM     15  C   UNL     1      -6.326   4.773 132.893  0.00  0.00    +0.000 A 
ATOM     16  C   UNL     1      -6.125   4.341 131.469  0.00  0.00    +0.000 C 
ATOM     17  C   UNL     1      -6.773   5.321 130.512  0.00  0.00    +0.000 C 
ATOM     18  N   UNL     1      -8.175   5.631 130.897  0.00  0.00    +0.000 N 
ATOM     19  C   UNL     1      -9.064   5.887 129.899  0.00  0.00    +0.000 A 
ATOM     20  C   UNL     1     -10.376   6.320 130.144  0.00  0.00    +0.000 A 
ATOM     21  C   UNL     1     -11.330   6.610 129.121  0.00  0.00    +0.000 A 
ENDROOT
BRANCH   1  23
ATOM     22  C   UNL     1     -13.772   8.575 128.049  0.00  0.00    +0.000 C 
ATOM     23  O   UNL     1     -13.578   7.243 128.520  0.00  0.00    +0.000 OA
ENDBRANCH   1  23
BRANCH  21  24
ATOM     24  O   UNL     1     -10.867   6.397 127.839  0.00  0.00    +0.000 OA
ATOM     25  C   UNL     1     -10.565   7.537 127.034  0.00  0.00    +0.000 C 
ENDBRANCH  21  24
TORSDOF 2
ENDMDL
MODEL 5
REMARK VINA RESULT:      -7.2      2.220      7.909
REMARK  Name = Berberine
REMARK  4 active torsions:
REMARK  status: ('A' for Active; 'I' for Inactive)
REMARK    1  A    between atoms: C_1  and  O_2
REMARK    2  A    between atoms: O_2  and  C_3
REMARK    3  A    between atoms: C_23  and  O_24
REMARK    4  A    between atoms: O_24  and  C_25
REMARK                            x       y       z     vdW  Elec       q    Type
REMARK                         _______ _______ _______ _____ _____    ______ ____
ROOT
ATOM      1  C   UNL     1      -9.992   5.671 129.865  0.00  0.00    +0.000 A 
ATOM      2  C   UNL     1      -9.694   6.972 130.275  0.00  0.00    +0.000 A 
ATOM      3  C   UNL     1      -8.424   7.299 130.733  0.00  0.00    +0.000 A 
ATOM      4  C   UNL     1      -7.419   6.336 130.779  0.00  0.00    +0.000 A 
ATOM      5  C   UNL     1      -6.153   6.685 131.242  0.00  0.00    +0.000 A 
ATOM      6  C   UNL     1      -5.109   5.754 131.264  0.00  0.00    +0.000 A 
ATOM      7  C   UNL     1      -3.743   6.072 131.733  0.00  0.00    +0.000 A 
ATOM      8  C   UNL     1      -3.327   7.402 131.974  0.00  0.00    +0.000 A 
ATOM      9  C   UNL     1      -2.059   7.638 132.468  0.00  0.00    +0.000 A 
ATOM     10  C   UNL     1      -1.175   6.622 132.706  0.00  0.00    +0.000 A 
ATOM     11  O   UNL     1       0.008   7.071 133.198  0.00  0.00    +0.000 OA
ATOM     12  C   UNL     1      -0.273   8.481 133.343  0.00  0.00    +0.000 C 
ATOM     13  O   UNL     1      -1.552   8.858 132.787  0.00  0.00    +0.000 OA
ATOM     14  C   UNL     1      -1.514   5.310 132.473  0.00  0.00    +0.000 A 
ATOM     15  C   UNL     1      -2.809   5.033 131.991  0.00  0.00    +0.000 A 
ATOM     16  C   UNL     1      -3.253   3.608 131.834  0.00  0.00    +0.000 C 
ATOM     17  C   UNL     1      -4.271   3.479 130.719  0.00  0.00    +0.000 C 
ATOM     18  N   UNL     1      -5.362   4.481 130.843  0.00  0.00    +0.000 N 
ATOM     19  C   UNL     1      -6.604   4.119 130.420  0.00  0.00    +0.000 A 
ATOM     20  C   UNL     1      -7.678   5.020 130.363  0.00  0.00    +0.000 A 
ATOM     21  C   UNL     1      -8.991   4.678 129.913  0.00  0.00    +0.000 A 
ENDROOT
BRANCH   1  23
ATOM     22  C   UNL     1     -12.188   6.423 129.365  0.00  0.00    +0.000 C 
ATOM     23  O   UNL     1     -11.281   5.338 129.549  0.00  0.00    +0.000 OA
ENDBRANCH   1  23
BRANCH  21  24
ATOM     24  O   UNL     1      -9.139   3.353 129.558  0.00  0.00    +0.000 OA
ATOM     25  C   UNL     1      -9.581   2.434 130.557  0.00  0.00    +0.000 C 
ENDBRANCH  21  24
TORSDOF 2
ENDMDL
MODEL 6
REMARK VINA RESULT:      -7.1      5.567      6.638
REMARK  Name = Berberine
REMARK  4 active torsions:
REMARK  status: ('A' for Active; 'I' for Inactive)
REMARK    1  A    between atoms: C_1  and  O_2
REMARK    2  A    between atoms: O_2  and  C_3
REMARK    3  A    between atoms: C_23  and  O_24
REMARK    4  A    between atoms: O_24  and  C_25
REMARK                            x       y       z     vdW  Elec       q    Type
REMARK                         _______ _______ _______ _____ _____    ______ ____
ROOT
ATOM      1  C   UNL     1      -6.668  -2.741 131.311  0.00  0.00    +0.000 A 
ATOM      2  C   UNL     1      -7.552  -2.525 130.252  0.00  0.00    +0.000 A 
ATOM      3  C   UNL     1      -8.237  -1.322 130.132  0.00  0.00    +0.000 A 
ATOM      4  C   UNL     1      -8.043  -0.302 131.060  0.00  0.00    +0.000 A 
ATOM      5  C   UNL     1      -8.738   0.896 130.923  0.00  0.00    +0.000 A 
ATOM      6  C   UNL     1      -8.539   1.956 131.813  0.00  0.00    +0.000 A 
ATOM      7  C   UNL     1      -9.240   3.253 131.706  0.00  0.00    +0.000 A 
ATOM      8  C   UNL     1      -9.992   3.604 130.562  0.00  0.00    +0.000 A 
ATOM      9  C   UNL     1     -10.677   4.803 130.540  0.00  0.00    +0.000 A 
ATOM     10  C   UNL     1     -10.627   5.683 131.586  0.00  0.00    +0.000 A 
ATOM     11  O   UNL     1     -11.378   6.793 131.363  0.00  0.00    +0.000 OA
ATOM     12  C   UNL     1     -11.992   6.459 130.099  0.00  0.00    +0.000 C 
ATOM     13  O   UNL     1     -11.471   5.239 129.527  0.00  0.00    +0.000 OA
ATOM     14  C   UNL     1      -9.897   5.408 132.718  0.00  0.00    +0.000 A 
ATOM     15  C   UNL     1      -9.206   4.181 132.781  0.00  0.00    +0.000 A 
ATOM     16  C   UNL     1      -8.494   3.796 134.046  0.00  0.00    +0.000 C 
ATOM     17  C   UNL     1      -7.302   2.910 133.746  0.00  0.00    +0.000 C 
ATOM     18  N   UNL     1      -7.658   1.785 132.842  0.00  0.00    +0.000 N 
ATOM     19  C   UNL     1      -6.996   0.607 133.007  0.00  0.00    +0.000 A 
ATOM     20  C   UNL     1      -7.151  -0.479 132.132  0.00  0.00    +0.000 A 
ATOM     21  C   UNL     1      -6.464  -1.724 132.267  0.00  0.00    +0.000 A 
ENDROOT
BRANCH   1  23
ATOM     22  C   UNL     1      -5.163  -4.391 130.504  0.00  0.00    +0.000 C 
ATOM     23  O   UNL     1      -6.111  -3.978 131.487  0.00  0.00    +0.000 OA
ENDBRANCH   1  23
BRANCH  21  24
ATOM     24  O   UNL     1      -5.639  -1.796 133.370  0.00  0.00    +0.000 OA
ATOM     25  C   UNL     1      -4.230  -1.689 133.165  0.00  0.00    +0.000 C 
ENDBRANCH  21  24
TORSDOF 2
ENDMDL
MODEL 7
REMARK VINA RESULT:      -7.1      9.833     10.303
REMARK  Name = Berberine
REMARK  4 active torsions:
REMARK  status: ('A' for Active; 'I' for Inactive)
REMARK    1  A    between atoms: C_1  and  O_2
REMARK    2  A    between atoms: O_2  and  C_3
REMARK    3  A    between atoms: C_23  and  O_24
REMARK    4  A    between atoms: O_24  and  C_25
REMARK                            x       y       z     vdW  Elec       q    Type
REMARK                         _______ _______ _______ _____ _____    ______ ____
ROOT
ATOM      1  C   UNL     1      -3.812  -2.345 132.684  0.00  0.00    +0.000 A 
ATOM      2  C   UNL     1      -3.020  -1.830 131.656  0.00  0.00    +0.000 A 
ATOM      3  C   UNL     1      -3.492  -1.785 130.350  0.00  0.00    +0.000 A 
ATOM      4  C   UNL     1      -4.772  -2.240 130.044  0.00  0.00    +0.000 A 
ATOM      5  C   UNL     1      -5.226  -2.185 128.730  0.00  0.00    +0.000 A 
ATOM      6  C   UNL     1      -6.520  -2.596 128.393  0.00  0.00    +0.000 A 
ATOM      7  C   UNL     1      -7.059  -2.548 127.016  0.00  0.00    +0.000 A 
ATOM      8  C   UNL     1      -6.388  -1.866 125.976  0.00  0.00    +0.000 A 
ATOM      9  C   UNL     1      -6.904  -1.903 124.695  0.00  0.00    +0.000 A 
ATOM     10  C   UNL     1      -8.069  -2.560 124.404  0.00  0.00    +0.000 A 
ATOM     11  O   UNL     1      -8.391  -2.481 123.088  0.00  0.00    +0.000 OA
ATOM     12  C   UNL     1      -7.237  -1.787 122.564  0.00  0.00    +0.000 C 
ATOM     13  O   UNL     1      -6.338  -1.333 123.600  0.00  0.00    +0.000 OA
ATOM     14  C   UNL     1      -8.776  -3.225 125.378  0.00  0.00    +0.000 A 
ATOM     15  C   UNL     1      -8.263  -3.226 126.690  0.00  0.00    +0.000 A 
ATOM     16  C   UNL     1      -8.947  -4.037 127.753  0.00  0.00    +0.000 C 
ATOM     17  C   UNL     1      -8.753  -3.410 129.118  0.00  0.00    +0.000 C 
ATOM     18  N   UNL     1      -7.329  -3.078 129.382  0.00  0.00    +0.000 N 
ATOM     19  C   UNL     1      -6.885  -3.167 130.665  0.00  0.00    +0.000 A 
ATOM     20  C   UNL     1      -5.602  -2.753 131.055  0.00  0.00    +0.000 A 
ATOM     21  C   UNL     1      -5.108  -2.820 132.394  0.00  0.00    +0.000 A 
ENDROOT
BRANCH   1  23
ATOM     22  C   UNL     1      -2.664  -3.766 134.200  0.00  0.00    +0.000 C 
ATOM     23  O   UNL     1      -3.279  -2.508 133.933  0.00  0.00    +0.000 OA
ENDBRANCH   1  23
BRANCH  21  24
ATOM     24  O   UNL     1      -5.996  -3.368 133.296  0.00  0.00    +0.000 OA
ATOM     25  C   UNL     1      -6.695  -2.485 134.175  0.00  0.00    +0.000 C 
ENDBRANCH  21  24
TORSDOF 2
ENDMDL
MODEL 8
REMARK VINA RESULT:      -7.0      7.673      8.651
REMARK  Name = Berberine
REMARK  4 active torsions:
REMARK  status: ('A' for Active; 'I' for Inactive)
REMARK    1  A    between atoms: C_1  and  O_2
REMARK    2  A    between atoms: O_2  and  C_3
REMARK    3  A    between atoms: C_23  and  O_24
REMARK    4  A    between atoms: O_24  and  C_25
REMARK                            x       y       z     vdW  Elec       q    Type
REMARK                         _______ _______ _______ _____ _____    ______ ____
ROOT
ATOM      1  C   UNL     1      -8.022   4.355 130.775  0.00  0.00    +0.000 A 
ATOM      2  C   UNL     1      -8.915   3.301 130.976  0.00  0.00    +0.000 A 
ATOM      3  C   UNL     1      -9.097   2.327 130.002  0.00  0.00    +0.000 A 
ATOM      4  C   UNL     1      -8.377   2.376 128.810  0.00  0.00    +0.000 A 
ATOM      5  C   UNL     1      -8.573   1.391 127.847  0.00  0.00    +0.000 A 
ATOM      6  C   UNL     1      -7.840   1.387 126.656  0.00  0.00    +0.000 A 
ATOM      7  C   UNL     1      -7.997   0.358 125.605  0.00  0.00    +0.000 A 
ATOM      8  C   UNL     1      -8.733  -0.828 125.825  0.00  0.00    +0.000 A 
ATOM      9  C   UNL     1      -8.899  -1.727 124.790  0.00  0.00    +0.000 A 
ATOM     10  C   UNL     1      -8.346  -1.519 123.557  0.00  0.00    +0.000 A 
ATOM     11  O   UNL     1      -8.639  -2.518 122.684  0.00  0.00    +0.000 OA
ATOM     12  C   UNL     1      -9.531  -3.326 123.483  0.00  0.00    +0.000 C 
ATOM     13  O   UNL     1      -9.619  -2.878 124.854  0.00  0.00    +0.000 OA
ATOM     14  C   UNL     1      -7.604  -0.394 123.286  0.00  0.00    +0.000 A 
ATOM     15  C   UNL     1      -7.436   0.555 124.315  0.00  0.00    +0.000 A 
ATOM     16  C   UNL     1      -6.730   1.847 124.023  0.00  0.00    +0.000 C 
ATOM     17  C   UNL     1      -6.035   2.374 125.262  0.00  0.00    +0.000 C 
ATOM     18  N   UNL     1      -6.937   2.388 126.443  0.00  0.00    +0.000 N 
ATOM     19  C   UNL     1      -6.761   3.377 127.362  0.00  0.00    +0.000 A 
ATOM     20  C   UNL     1      -7.460   3.415 128.578  0.00  0.00    +0.000 A 
ATOM     21  C   UNL     1      -7.291   4.429 129.570  0.00  0.00    +0.000 A 
ENDROOT
BRANCH   1  23
ATOM     22  C   UNL     1      -8.910   6.426 131.522  0.00  0.00    +0.000 C 
ATOM     23  O   UNL     1      -7.961   5.375 131.685  0.00  0.00    +0.000 OA
ENDBRANCH   1  23
BRANCH  21  24
ATOM     24  O   UNL     1      -6.389   5.413 129.224  0.00  0.00    +0.000 OA
ATOM     25  C   UNL     1      -5.140   5.456 129.916  0.00  0.00    +0.000 C 
ENDBRANCH  21  24
TORSDOF 2
ENDMDL
MODEL 9
REMARK VINA RESULT:      -6.9      9.548     10.149
REMARK  Name = Berberine
REMARK  4 active torsions:
REMARK  status: ('A' for Active; 'I' for Inactive)
REMARK    1  A    between atoms: C_1  and  O_2
REMARK    2  A    between atoms: O_2  and  C_3
REMARK    3  A    between atoms: C_23  and  O_24
REMARK    4  A    between atoms: O_24  and  C_25
REMARK                            x       y       z     vdW  Elec       q    Type
REMARK                         _______ _______ _______ _____ _____    ______ ____
ROOT
ATOM      1  C   UNL     1      -4.873  -3.827 132.994  0.00  0.00    +0.000 A 
ATOM      2  C   UNL     1      -5.209  -4.950 132.235  0.00  0.00    +0.000 A 
ATOM      3  C   UNL     1      -5.825  -4.813 130.998  0.00  0.00    +0.000 A 
ATOM      4  C   UNL     1      -6.105  -3.550 130.482  0.00  0.00    +0.000 A 
ATOM      5  C   UNL     1      -6.722  -3.435 129.240  0.00  0.00    +0.000 A 
ATOM      6  C   UNL     1      -6.982  -2.182 128.675  0.00  0.00    +0.000 A 
ATOM      7  C   UNL     1      -7.623  -2.001 127.354  0.00  0.00    +0.000 A 
ATOM      8  C   UNL     1      -7.809  -3.080 126.460  0.00  0.00    +0.000 A 
ATOM      9  C   UNL     1      -8.466  -2.867 125.264  0.00  0.00    +0.000 A 
ATOM     10  C   UNL     1      -8.922  -1.629 124.901  0.00  0.00    +0.000 A 
ATOM     11  O   UNL     1      -9.547  -1.642 123.696  0.00  0.00    +0.000 OA
ATOM     12  C   UNL     1      -9.525  -3.054 123.391  0.00  0.00    +0.000 C 
ATOM     13  O   UNL     1      -8.751  -3.821 124.341  0.00  0.00    +0.000 OA
ATOM     14  C   UNL     1      -8.754  -0.537 125.720  0.00  0.00    +0.000 A 
ATOM     15  C   UNL     1      -8.108  -0.726 126.957  0.00  0.00    +0.000 A 
ATOM     16  C   UNL     1      -8.010   0.418 127.925  0.00  0.00    +0.000 C 
ATOM     17  C   UNL     1      -6.769   0.291 128.785  0.00  0.00    +0.000 C 
ATOM     18  N   UNL     1      -6.639  -1.065 129.379  0.00  0.00    +0.000 N 
ATOM     19  C   UNL     1      -6.066  -1.164 130.610  0.00  0.00    +0.000 A 
ATOM     20  C   UNL     1      -5.770  -2.397 131.212  0.00  0.00    +0.000 A 
ATOM     21  C   UNL     1      -5.158  -2.538 132.495  0.00  0.00    +0.000 A 
ENDROOT
BRANCH   1  23
ATOM     22  C   UNL     1      -5.198  -4.766 135.150  0.00  0.00    +0.000 C 
ATOM     23  O   UNL     1      -4.396  -3.986 134.266  0.00  0.00    +0.000 OA
ENDBRANCH   1  23
BRANCH  21  24
ATOM     24  O   UNL     1      -4.900  -1.342 133.133  0.00  0.00    +0.000 OA
ATOM     25  C   UNL     1      -5.791  -0.926 134.169  0.00  0.00    +0.000 C 
ENDBRANCH  21  24
TORSDOF 2
ENDMDL
