MODEL 1
REMARK VINA RESULT:      -9.2      0.000      0.000
REMARK  Name = Berotralstat
REMARK  12 active torsions:
REMARK  status: ('A' for Active; 'I' for Inactive)
REMARK    1  A    between atoms: N_1  and  C_2
REMARK    2  A    between atoms: C_2  and  C_3
REMARK    3  A    between atoms: C_5  and  N_9
REMARK    4  A    between atoms: C_11  and  C_38
REMARK    5  A    between atoms: C_13  and  C_14
REMARK    6  A    between atoms: N_16  and  C_17
REMARK    7  A    between atoms: C_19  and  C_24
REMARK    8  A    between atoms: C_24  and  N_25
REMARK    9  A    between atoms: C_24  and  C_30
REMARK   10  A    between atoms: N_25  and  C_26
REMARK   11  A    between atoms: C_26  and  C_27
REMARK   12  A    between atoms: C_34  and  C_36
REMARK                            x       y       z     vdW  Elec       q    Type
REMARK                         _______ _______ _______ _____ _____    ______ ____
ROOT
ATOM      1  C   UNL     1      -8.178   1.044 127.585  0.00  0.00    +0.000 C 
ATOM      2  O   UNL     1      -9.106   1.766 127.236  0.00  0.00    +0.000 OA
ATOM      3  N   UNL     1      -7.655   1.117 128.863  0.00  0.00    +0.000 N 
ATOM      4  H   UNL     1      -6.785   0.665 129.103  0.00  0.00    +0.000 HD
ENDROOT
BRANCH   3   5
ATOM      5  C   UNL     1      -8.310   1.886 129.842  0.00  0.00    +0.000 A 
ATOM      6  C   UNL     1      -8.251   3.275 129.795  0.00  0.00    +0.000 A 
ATOM      7  C   UNL     1      -8.873   4.023 130.814  0.00  0.00    +0.000 A 
ATOM      8  C   UNL     1      -9.575   3.335 131.825  0.00  0.00    +0.000 A 
ATOM      9  C   UNL     1      -9.657   1.967 131.857  0.00  0.00    +0.000 A 
ATOM     10  C   UNL     1      -9.001   1.254 130.888  0.00  0.00    +0.000 A 
ATOM     11  F   UNL     1      -8.957  -0.074 131.049  0.00  0.00    +0.000 F 
BRANCH   7  12
ATOM     12  C   UNL     1      -8.787   5.547 130.834  0.00  0.00    +0.000 C 
BRANCH  12  13
ATOM     13  C   UNL     1      -9.988   6.283 130.263  0.00  0.00    +0.000 A 
ATOM     14  C   UNL     1     -11.076   6.662 131.060  0.00  0.00    +0.000 A 
ATOM     15  C   UNL     1     -12.195   7.246 130.493  0.00  0.00    +0.000 A 
ATOM     16  C   UNL     1     -12.165   7.633 129.157  0.00  0.00    +0.000 A 
ATOM     17  C   UNL     1     -11.048   7.353 128.361  0.00  0.00    +0.000 A 
ATOM     18  C   UNL     1      -9.968   6.665 128.911  0.00  0.00    +0.000 A 
BRANCH  17  19
ATOM     19  C   UNL     1     -11.033   7.710 126.982  0.00  0.00    +0.000 C 
ATOM     20  N   UNL     1     -11.009   7.968 125.842  0.00  0.00    +0.000 NA
ENDBRANCH  17  19
ENDBRANCH  12  13
BRANCH  12  21
ATOM     21  N   UNL     1      -8.478   6.078 132.166  0.00  0.00    +0.000 NA
ATOM     22  H   UNL     1      -8.900   6.998 132.271  0.00  0.00    +0.000 HD
BRANCH  21  23
ATOM     23  C   UNL     1      -7.035   6.115 132.406  0.00  0.00    +0.000 C 
BRANCH  23  24
ATOM     24  C   UNL     1      -6.351   6.662 131.211  0.00  0.00    +0.000 C 
ATOM     25  C   UNL     1      -4.907   7.102 131.216  0.00  0.00    +0.000 C 
ATOM     26  C   UNL     1      -5.288   5.776 130.622  0.00  0.00    +0.000 C 
ENDBRANCH  23  24
ENDBRANCH  21  23
ENDBRANCH  12  21
ENDBRANCH   7  12
ENDBRANCH   3   5
BRANCH   1  31
ATOM     27  N   UNL     1      -6.445   0.512 125.900  0.00  0.00    +0.000 N 
ATOM     28  N   UNL     1      -6.053  -0.478 125.053  0.00  0.00    +0.000 NA
ATOM     29  C   UNL     1      -6.844  -1.524 125.345  0.00  0.00    +0.000 A 
ATOM     30  C   UNL     1      -7.810  -1.160 126.316  0.00  0.00    +0.000 A 
ATOM     31  C   UNL     1      -7.526   0.142 126.677  0.00  0.00    +0.000 A 
BRANCH  27  34
ATOM     32  C   UNL     1      -3.810   3.044 126.567  0.00  0.00    +0.000 A 
ATOM     33  C   UNL     1      -4.598   1.899 126.720  0.00  0.00    +0.000 A 
ATOM     34  C   UNL     1      -5.727   1.729 125.901  0.00  0.00    +0.000 A 
ATOM     35  C   UNL     1      -6.142   2.734 125.023  0.00  0.00    +0.000 A 
ATOM     36  C   UNL     1      -5.372   3.880 124.891  0.00  0.00    +0.000 A 
ATOM     37  C   UNL     1      -4.203   4.013 125.630  0.00  0.00    +0.000 A 
BRANCH  32  38
ATOM     38  C   UNL     1      -2.521   3.253 127.316  0.00  0.00    +0.000 C 
BRANCH  38  39
ATOM     39  N   UNL     1      -1.435   2.525 126.668  0.00  0.00    +0.000 NA
ATOM     40  H   UNL     1      -1.467   1.541 126.910  0.00  0.00    +0.000 HD
ATOM     41  H   UNL     1      -0.550   2.906 127.000  0.00  0.00    +0.000 HD
ENDBRANCH  38  39
ENDBRANCH  32  38
ENDBRANCH  27  34
BRANCH  29  42
ATOM     42  C   UNL     1      -6.715  -2.875 124.693  0.00  0.00    +0.000 C 
ATOM     43  F   UNL     1      -5.476  -3.412 124.829  0.00  0.00    +0.000 F 
ATOM     44  F   UNL     1      -7.607  -3.780 125.172  0.00  0.00    +0.000 F 
ATOM     45  F   UNL     1      -6.949  -2.786 123.352  0.00  0.00    +0.000 F 
ENDBRANCH  29  42
ENDBRANCH   1  31
TORSDOF 12
ENDMDL
MODEL 2
REMARK VINA RESULT:      -9.2      3.973      8.875
REMARK  Name = Berotralstat
REMARK  12 active torsions:
REMARK  status: ('A' for Active; 'I' for Inactive)
REMARK    1  A    between atoms: N_1  and  C_2
REMARK    2  A    between atoms: C_2  and  C_3
REMARK    3  A    between atoms: C_5  and  N_9
REMARK    4  A    between atoms: C_11  and  C_38
REMARK    5  A    between atoms: C_13  and  C_14
REMARK    6  A    between atoms: N_16  and  C_17
REMARK    7  A    between atoms: C_19  and  C_24
REMARK    8  A    between atoms: C_24  and  N_25
REMARK    9  A    between atoms: C_24  and  C_30
REMARK   10  A    between atoms: N_25  and  C_26
REMARK   11  A    between atoms: C_26  and  C_27
REMARK   12  A    between atoms: C_34  and  C_36
REMARK                            x       y       z     vdW  Elec       q    Type
REMARK                         _______ _______ _______ _____ _____    ______ ____
ROOT
ATOM      1  C   UNL     1      -7.157   4.049 130.324  0.00  0.00    +0.000 C 
ATOM      2  O   UNL     1      -7.816   3.740 129.337  0.00  0.00    +0.000 OA
ATOM      3  N   UNL     1      -7.060   3.204 131.416  0.00  0.00    +0.000 N 
ATOM      4  H   UNL     1      -6.677   3.520 132.294  0.00  0.00    +0.000 HD
ENDROOT
BRANCH   3   5
ATOM      5  C   UNL     1      -7.559   1.892 131.328  0.00  0.00    +0.000 A 
ATOM      6  C   UNL     1      -6.868   0.929 130.600  0.00  0.00    +0.000 A 
ATOM      7  C   UNL     1      -7.414  -0.366 130.485  0.00  0.00    +0.000 A 
ATOM      8  C   UNL     1      -8.622  -0.652 131.151  0.00  0.00    +0.000 A 
ATOM      9  C   UNL     1      -9.290   0.289 131.892  0.00  0.00    +0.000 A 
ATOM     10  C   UNL     1      -8.773   1.557 131.948  0.00  0.00    +0.000 A 
ATOM     11  F   UNL     1      -9.537   2.489 132.532  0.00  0.00    +0.000 F 
BRANCH   7  12
ATOM     12  C   UNL     1      -6.719  -1.440 129.650  0.00  0.00    +0.000 C 
BRANCH  12  13
ATOM     13  C   UNL     1      -7.594  -2.151 128.632  0.00  0.00    +0.000 A 
ATOM     14  C   UNL     1      -8.190  -3.391 128.898  0.00  0.00    +0.000 A 
ATOM     15  C   UNL     1      -8.903  -4.056 127.917  0.00  0.00    +0.000 A 
ATOM     16  C   UNL     1      -9.194  -3.406 126.721  0.00  0.00    +0.000 A 
ATOM     17  C   UNL     1      -8.692  -2.125 126.468  0.00  0.00    +0.000 A 
ATOM     18  C   UNL     1      -7.881  -1.504 127.417  0.00  0.00    +0.000 A 
BRANCH  17  19
ATOM     19  C   UNL     1      -8.953  -1.476 125.226  0.00  0.00    +0.000 C 
ATOM     20  N   UNL     1      -9.204  -0.946 124.216  0.00  0.00    +0.000 NA
ENDBRANCH  17  19
ENDBRANCH  12  13
BRANCH  12  21
ATOM     21  N   UNL     1      -5.507  -0.945 128.990  0.00  0.00    +0.000 NA
ATOM     22  H   UNL     1      -5.589  -1.078 127.984  0.00  0.00    +0.000 HD
BRANCH  21  23
ATOM     23  C   UNL     1      -4.305  -1.589 129.523  0.00  0.00    +0.000 C 
BRANCH  23  24
ATOM     24  C   UNL     1      -4.182  -2.950 128.951  0.00  0.00    +0.000 C 
ATOM     25  C   UNL     1      -2.967  -3.822 129.152  0.00  0.00    +0.000 C 
ATOM     26  C   UNL     1      -4.212  -4.070 129.955  0.00  0.00    +0.000 C 
ENDBRANCH  23  24
ENDBRANCH  21  23
ENDBRANCH  12  21
ENDBRANCH   7  12
ENDBRANCH   3   5
BRANCH   1  31
ATOM     27  N   UNL     1      -7.212   6.498 130.679  0.00  0.00    +0.000 N 
ATOM     28  N   UNL     1      -6.405   7.592 130.665  0.00  0.00    +0.000 NA
ATOM     29  C   UNL     1      -5.162   7.111 130.500  0.00  0.00    +0.000 A 
ATOM     30  C   UNL     1      -5.194   5.708 130.308  0.00  0.00    +0.000 A 
ATOM     31  C   UNL     1      -6.514   5.328 130.447  0.00  0.00    +0.000 A 
BRANCH  27  34
ATOM     32  C   UNL     1     -10.805   7.308 130.199  0.00  0.00    +0.000 A 
ATOM     33  C   UNL     1      -9.421   7.309 129.996  0.00  0.00    +0.000 A 
ATOM     34  C   UNL     1      -8.590   6.673 130.934  0.00  0.00    +0.000 A 
ATOM     35  C   UNL     1      -9.109   6.145 132.119  0.00  0.00    +0.000 A 
ATOM     36  C   UNL     1     -10.480   6.167 132.330  0.00  0.00    +0.000 A 
ATOM     37  C   UNL     1     -11.316   6.712 131.364  0.00  0.00    +0.000 A 
BRANCH  32  38
ATOM     38  C   UNL     1     -11.777   7.861 129.192  0.00  0.00    +0.000 C 
BRANCH  38  39
ATOM     39  N   UNL     1     -11.087   8.737 128.250  0.00  0.00    +0.000 NA
ATOM     40  H   UNL     1     -11.744   9.355 127.787  0.00  0.00    +0.000 HD
ATOM     41  H   UNL     1     -10.640   8.158 127.541  0.00  0.00    +0.000 HD
ENDBRANCH  38  39
ENDBRANCH  32  38
ENDBRANCH  27  34
BRANCH  29  42
ATOM     42  C   UNL     1      -3.927   7.973 130.497  0.00  0.00    +0.000 C 
ATOM     43  F   UNL     1      -4.128   9.182 129.915  0.00  0.00    +0.000 F 
ATOM     44  F   UNL     1      -3.435   8.196 131.743  0.00  0.00    +0.000 F 
ATOM     45  F   UNL     1      -2.923   7.373 129.795  0.00  0.00    +0.000 F 
ENDBRANCH  29  42
ENDBRANCH   1  31
TORSDOF 12
ENDMDL
MODEL 3
REMARK VINA RESULT:      -9.0      3.457      8.732
REMARK  Name = Berotralstat
REMARK  12 active torsions:
REMARK  status: ('A' for Active; 'I' for Inactive)
REMARK    1  A    between atoms: N_1  and  C_2
REMARK    2  A    between atoms: C_2  and  C_3
REMARK    3  A    between atoms: C_5  and  N_9
REMARK    4  A    between atoms: C_11  and  C_38
REMARK    5  A    between atoms: C_13  and  C_14
REMARK    6  A    between atoms: N_16  and  C_17
REMARK    7  A    between atoms: C_19  and  C_24
REMARK    8  A    between atoms: C_24  and  N_25
REMARK    9  A    between atoms: C_24  and  C_30
REMARK   10  A    between atoms: N_25  and  C_26
REMARK   11  A    between atoms: C_26  and  C_27
REMARK   12  A    between atoms: C_34  and  C_36
REMARK                            x       y       z     vdW  Elec       q    Type
REMARK                         _______ _______ _______ _____ _____    ______ ____
ROOT
ATOM      1  C   UNL     1      -9.685   3.587 130.295  0.00  0.00    +0.000 C 
ATOM      2  O   UNL     1     -10.039   2.552 130.850  0.00  0.00    +0.000 OA
ATOM      3  N   UNL     1      -8.638   3.594 129.391  0.00  0.00    +0.000 N 
ATOM      4  H   UNL     1      -8.225   4.456 129.070  0.00  0.00    +0.000 HD
ENDROOT
BRANCH   3   5
ATOM      5  C   UNL     1      -8.091   2.375 128.949  0.00  0.00    +0.000 A 
ATOM      6  C   UNL     1      -8.547   1.791 127.772  0.00  0.00    +0.000 A 
ATOM      7  C   UNL     1      -8.018   0.546 127.375  0.00  0.00    +0.000 A 
ATOM      8  C   UNL     1      -7.011  -0.044 128.166  0.00  0.00    +0.000 A 
ATOM      9  C   UNL     1      -6.542   0.544 129.311  0.00  0.00    +0.000 A 
ATOM     10  C   UNL     1      -7.105   1.729 129.710  0.00  0.00    +0.000 A 
ATOM     11  F   UNL     1      -6.748   2.184 130.917  0.00  0.00    +0.000 F 
BRANCH   7  12
ATOM     12  C   UNL     1      -8.528  -0.160 126.120  0.00  0.00    +0.000 C 
BRANCH  12  13
ATOM     13  C   UNL     1      -8.655   0.711 124.881  0.00  0.00    +0.000 A 
ATOM     14  C   UNL     1      -9.833   0.762 124.125  0.00  0.00    +0.000 A 
ATOM     15  C   UNL     1      -9.886   1.491 122.950  0.00  0.00    +0.000 A 
ATOM     16  C   UNL     1      -8.829   2.331 122.617  0.00  0.00    +0.000 A 
ATOM     17  C   UNL     1      -7.677   2.373 123.410  0.00  0.00    +0.000 A 
ATOM     18  C   UNL     1      -7.585   1.553 124.532  0.00  0.00    +0.000 A 
BRANCH  17  19
ATOM     19  C   UNL     1      -6.575   3.201 123.046  0.00  0.00    +0.000 C 
ATOM     20  N   UNL     1      -5.696   3.901 122.726  0.00  0.00    +0.000 NA
ENDBRANCH  17  19
ENDBRANCH  12  13
BRANCH  12  21
ATOM     21  N   UNL     1      -7.753  -1.362 125.794  0.00  0.00    +0.000 NA
ATOM     22  H   UNL     1      -7.330  -1.254 124.875  0.00  0.00    +0.000 HD
BRANCH  21  23
ATOM     23  C   UNL     1      -8.579  -2.568 125.871  0.00  0.00    +0.000 C 
BRANCH  23  24
ATOM     24  C   UNL     1      -8.437  -3.341 124.615  0.00  0.00    +0.000 C 
ATOM     25  C   UNL     1      -9.453  -3.294 123.499  0.00  0.00    +0.000 C 
ATOM     26  C   UNL     1      -8.172  -2.516 123.385  0.00  0.00    +0.000 C 
ENDBRANCH  23  24
ENDBRANCH  21  23
ENDBRANCH  12  21
ENDBRANCH   7  12
ENDBRANCH   3   5
BRANCH   1  31
ATOM     27  N   UNL     1      -9.638   5.810 131.382  0.00  0.00    +0.000 N 
ATOM     28  N   UNL     1     -10.423   6.897 131.613  0.00  0.00    +0.000 NA
ATOM     29  C   UNL     1     -11.545   6.677 130.909  0.00  0.00    +0.000 A 
ATOM     30  C   UNL     1     -11.511   5.395 130.308  0.00  0.00    +0.000 A 
ATOM     31  C   UNL     1     -10.272   4.861 130.603  0.00  0.00    +0.000 A 
BRANCH  27  34
ATOM     32  C   UNL     1      -6.001   6.421 131.815  0.00  0.00    +0.000 A 
ATOM     33  C   UNL     1      -7.244   6.296 131.188  0.00  0.00    +0.000 A 
ATOM     34  C   UNL     1      -8.332   5.788 131.919  0.00  0.00    +0.000 A 
ATOM     35  C   UNL     1      -8.165   5.298 133.217  0.00  0.00    +0.000 A 
ATOM     36  C   UNL     1      -6.925   5.400 133.828  0.00  0.00    +0.000 A 
ATOM     37  C   UNL     1      -5.868   5.987 133.144  0.00  0.00    +0.000 A 
BRANCH  32  38
ATOM     38  C   UNL     1      -4.813   7.063 131.148  0.00  0.00    +0.000 C 
BRANCH  38  39
ATOM     39  N   UNL     1      -5.246   7.877 130.017  0.00  0.00    +0.000 NA
ATOM     40  H   UNL     1      -5.978   8.519 130.296  0.00  0.00    +0.000 HD
ATOM     41  H   UNL     1      -5.621   7.257 129.300  0.00  0.00    +0.000 HD
ENDBRANCH  38  39
ENDBRANCH  32  38
ENDBRANCH  27  34
BRANCH  29  42
ATOM     42  C   UNL     1     -12.678   7.665 130.814  0.00  0.00    +0.000 C 
ATOM     43  F   UNL     1     -13.172   8.020 132.027  0.00  0.00    +0.000 F 
ATOM     44  F   UNL     1     -12.330   8.806 130.165  0.00  0.00    +0.000 F 
ATOM     45  F   UNL     1     -13.722   7.135 130.115  0.00  0.00    +0.000 F 
ENDBRANCH  29  42
ENDBRANCH   1  31
TORSDOF 12
ENDMDL
MODEL 4
REMARK VINA RESULT:      -8.7      2.249      3.345
REMARK  Name = Berotralstat
REMARK  12 active torsions:
REMARK  status: ('A' for Active; 'I' for Inactive)
REMARK    1  A    between atoms: N_1  and  C_2
REMARK    2  A    between atoms: C_2  and  C_3
REMARK    3  A    between atoms: C_5  and  N_9
REMARK    4  A    between atoms: C_11  and  C_38
REMARK    5  A    between atoms: C_13  and  C_14
REMARK    6  A    between atoms: N_16  and  C_17
REMARK    7  A    between atoms: C_19  and  C_24
REMARK    8  A    between atoms: C_24  and  N_25
REMARK    9  A    between atoms: C_24  and  C_30
REMARK   10  A    between atoms: N_25  and  C_26
REMARK   11  A    between atoms: C_26  and  C_27
REMARK   12  A    between atoms: C_34  and  C_36
REMARK                            x       y       z     vdW  Elec       q    Type
REMARK                         _______ _______ _______ _____ _____    ______ ____
ROOT
ATOM      1  C   UNL     1      -7.148   0.860 128.169  0.00  0.00    +0.000 C 
ATOM      2  O   UNL     1      -6.172   1.232 128.812  0.00  0.00    +0.000 OA
ATOM      3  N   UNL     1      -8.433   1.021 128.658  0.00  0.00    +0.000 N 
ATOM      4  H   UNL     1      -9.221   0.561 128.228  0.00  0.00    +0.000 HD
ENDROOT
BRANCH   3   5
ATOM      5  C   UNL     1      -8.647   1.791 129.815  0.00  0.00    +0.000 A 
ATOM      6  C   UNL     1      -8.596   3.180 129.751  0.00  0.00    +0.000 A 
ATOM      7  C   UNL     1      -8.765   3.928 130.933  0.00  0.00    +0.000 A 
ATOM      8  C   UNL     1      -9.024   3.242 132.136  0.00  0.00    +0.000 A 
ATOM      9  C   UNL     1      -9.102   1.874 132.196  0.00  0.00    +0.000 A 
ATOM     10  C   UNL     1      -8.882   1.160 131.047  0.00  0.00    +0.000 A 
ATOM     11  F   UNL     1      -8.793  -0.169 131.177  0.00  0.00    +0.000 F 
BRANCH   7  12
ATOM     12  C   UNL     1      -8.662   5.452 130.919  0.00  0.00    +0.000 C 
BRANCH  12  13
ATOM     13  C   UNL     1      -9.867   6.188 130.358  0.00  0.00    +0.000 A 
ATOM     14  C   UNL     1     -10.946   6.574 131.164  0.00  0.00    +0.000 A 
ATOM     15  C   UNL     1     -12.069   7.159 130.607  0.00  0.00    +0.000 A 
ATOM     16  C   UNL     1     -12.051   7.540 129.269  0.00  0.00    +0.000 A 
ATOM     17  C   UNL     1     -10.943   7.254 128.463  0.00  0.00    +0.000 A 
ATOM     18  C   UNL     1      -9.859   6.566 129.004  0.00  0.00    +0.000 A 
BRANCH  17  19
ATOM     19  C   UNL     1     -10.941   7.607 127.082  0.00  0.00    +0.000 C 
ATOM     20  N   UNL     1     -10.943   7.932 125.960  0.00  0.00    +0.000 NA
ENDBRANCH  17  19
ENDBRANCH  12  13
BRANCH  12  21
ATOM     21  N   UNL     1      -8.320   6.006 132.233  0.00  0.00    +0.000 NA
ATOM     22  H   UNL     1      -8.858   6.855 132.394  0.00  0.00    +0.000 HD
BRANCH  21  23
ATOM     23  C   UNL     1      -6.881   6.248 132.354  0.00  0.00    +0.000 C 
BRANCH  23  24
ATOM     24  C   UNL     1      -6.317   6.537 131.015  0.00  0.00    +0.000 C 
ATOM     25  C   UNL     1      -5.049   7.329 130.808  0.00  0.00    +0.000 C 
ATOM     26  C   UNL     1      -5.026   5.831 130.701  0.00  0.00    +0.000 C 
ENDBRANCH  23  24
ENDBRANCH  21  23
ENDBRANCH  12  21
ENDBRANCH   7  12
ENDBRANCH   3   5
BRANCH   1  31
ATOM     27  N   UNL     1      -6.652  -1.160 126.829  0.00  0.00    +0.000 N 
ATOM     28  N   UNL     1      -6.510  -1.573 125.540  0.00  0.00    +0.000 NA
ATOM     29  C   UNL     1      -6.871  -0.518 124.791  0.00  0.00    +0.000 A 
ATOM     30  C   UNL     1      -7.147   0.603 125.612  0.00  0.00    +0.000 A 
ATOM     31  C   UNL     1      -7.023   0.168 126.917  0.00  0.00    +0.000 A 
BRANCH  27  34
ATOM     32  C   UNL     1      -4.964  -3.174 129.454  0.00  0.00    +0.000 A 
ATOM     33  C   UNL     1      -5.133  -2.387 128.310  0.00  0.00    +0.000 A 
ATOM     34  C   UNL     1      -6.434  -2.091 127.869  0.00  0.00    +0.000 A 
ATOM     35  C   UNL     1      -7.553  -2.664 128.480  0.00  0.00    +0.000 A 
ATOM     36  C   UNL     1      -7.381  -3.465 129.598  0.00  0.00    +0.000 A 
ATOM     37  C   UNL     1      -6.103  -3.685 130.096  0.00  0.00    +0.000 A 
BRANCH  32  38
ATOM     38  C   UNL     1      -3.614  -3.443 130.065  0.00  0.00    +0.000 C 
BRANCH  38  39
ATOM     39  N   UNL     1      -2.664  -2.408 129.670  0.00  0.00    +0.000 NA
ATOM     40  H   UNL     1      -2.161  -2.057 130.476  0.00  0.00    +0.000 HD
ATOM     41  H   UNL     1      -3.184  -1.636 129.256  0.00  0.00    +0.000 HD
ENDBRANCH  38  39
ENDBRANCH  32  38
ENDBRANCH  27  34
BRANCH  29  42
ATOM     42  C   UNL     1      -6.936  -0.546 123.287  0.00  0.00    +0.000 C 
ATOM     43  F   UNL     1      -6.738   0.674 122.727  0.00  0.00    +0.000 F 
ATOM     44  F   UNL     1      -6.034  -1.400 122.736  0.00  0.00    +0.000 F 
ATOM     45  F   UNL     1      -8.163  -0.967 122.866  0.00  0.00    +0.000 F 
ENDBRANCH  29  42
ENDBRANCH   1  31
TORSDOF 12
ENDMDL
MODEL 5
REMARK VINA RESULT:      -8.6      3.612      9.068
REMARK  Name = Berotralstat
REMARK  12 active torsions:
REMARK  status: ('A' for Active; 'I' for Inactive)
REMARK    1  A    between atoms: N_1  and  C_2
REMARK    2  A    between atoms: C_2  and  C_3
REMARK    3  A    between atoms: C_5  and  N_9
REMARK    4  A    between atoms: C_11  and  C_38
REMARK    5  A    between atoms: C_13  and  C_14
REMARK    6  A    between atoms: N_16  and  C_17
REMARK    7  A    between atoms: C_19  and  C_24
REMARK    8  A    between atoms: C_24  and  N_25
REMARK    9  A    between atoms: C_24  and  C_30
REMARK   10  A    between atoms: N_25  and  C_26
REMARK   11  A    between atoms: C_26  and  C_27
REMARK   12  A    between atoms: C_34  and  C_36
REMARK                            x       y       z     vdW  Elec       q    Type
REMARK                         _______ _______ _______ _____ _____    ______ ____
ROOT
ATOM      1  C   UNL     1      -8.572   4.384 129.016  0.00  0.00    +0.000 C 
ATOM      2  O   UNL     1      -8.146   4.576 127.882  0.00  0.00    +0.000 OA
ATOM      3  N   UNL     1      -8.348   3.188 129.673  0.00  0.00    +0.000 N 
ATOM      4  H   UNL     1      -8.840   2.952 130.521  0.00  0.00    +0.000 HD
ENDROOT
BRANCH   3   5
ATOM      5  C   UNL     1      -7.460   2.246 129.122  0.00  0.00    +0.000 A 
ATOM      6  C   UNL     1      -7.952   1.137 128.440  0.00  0.00    +0.000 A 
ATOM      7  C   UNL     1      -7.045   0.182 127.940  0.00  0.00    +0.000 A 
ATOM      8  C   UNL     1      -5.664   0.406 128.110  0.00  0.00    +0.000 A 
ATOM      9  C   UNL     1      -5.178   1.511 128.758  0.00  0.00    +0.000 A 
ATOM     10  C   UNL     1      -6.075   2.403 129.285  0.00  0.00    +0.000 A 
ATOM     11  F   UNL     1      -5.571   3.374 130.057  0.00  0.00    +0.000 F 
BRANCH   7  12
ATOM     12  C   UNL     1      -7.542  -1.078 127.234  0.00  0.00    +0.000 C 
BRANCH  12  13
ATOM     13  C   UNL     1      -7.118  -1.231 125.783  0.00  0.00    +0.000 A 
ATOM     14  C   UNL     1      -7.480  -0.301 124.799  0.00  0.00    +0.000 A 
ATOM     15  C   UNL     1      -7.157  -0.517 123.471  0.00  0.00    +0.000 A 
ATOM     16  C   UNL     1      -6.305  -1.564 123.134  0.00  0.00    +0.000 A 
ATOM     17  C   UNL     1      -5.848  -2.453 124.114  0.00  0.00    +0.000 A 
ATOM     18  C   UNL     1      -6.266  -2.294 125.434  0.00  0.00    +0.000 A 
BRANCH  17  19
ATOM     19  C   UNL     1      -5.010  -3.551 123.764  0.00  0.00    +0.000 C 
ATOM     20  N   UNL     1      -4.293  -4.428 123.478  0.00  0.00    +0.000 NA
ENDBRANCH  17  19
ENDBRANCH  12  13
BRANCH  12  21
ATOM     21  N   UNL     1      -7.214  -2.304 127.969  0.00  0.00    +0.000 NA
ATOM     22  H   UNL     1      -7.437  -3.115 127.395  0.00  0.00    +0.000 HD
BRANCH  21  23
ATOM     23  C   UNL     1      -7.900  -2.353 129.261  0.00  0.00    +0.000 C 
BRANCH  23  24
ATOM     24  C   UNL     1      -6.906  -2.579 130.336  0.00  0.00    +0.000 C 
ATOM     25  C   UNL     1      -6.383  -3.947 130.701  0.00  0.00    +0.000 C 
ATOM     26  C   UNL     1      -5.546  -3.019 129.867  0.00  0.00    +0.000 C 
ENDBRANCH  23  24
ENDBRANCH  21  23
ENDBRANCH  12  21
ENDBRANCH   7  12
ENDBRANCH   3   5
BRANCH   1  31
ATOM     27  N   UNL     1      -8.956   6.046 130.809  0.00  0.00    +0.000 N 
ATOM     28  N   UNL     1      -9.932   6.830 131.341  0.00  0.00    +0.000 NA
ATOM     29  C   UNL     1     -10.984   6.690 130.517  0.00  0.00    +0.000 A 
ATOM     30  C   UNL     1     -10.703   5.732 129.512  0.00  0.00    +0.000 A 
ATOM     31  C   UNL     1      -9.390   5.346 129.700  0.00  0.00    +0.000 A 
BRANCH  27  34
ATOM     32  C   UNL     1      -5.371   6.784 131.441  0.00  0.00    +0.000 A 
ATOM     33  C   UNL     1      -6.578   6.634 130.750  0.00  0.00    +0.000 A 
ATOM     34  C   UNL     1      -7.676   6.055 131.408  0.00  0.00    +0.000 A 
ATOM     35  C   UNL     1      -7.550   5.521 132.693  0.00  0.00    +0.000 A 
ATOM     36  C   UNL     1      -6.345   5.649 133.367  0.00  0.00    +0.000 A 
ATOM     37  C   UNL     1      -5.282   6.304 132.757  0.00  0.00    +0.000 A 
BRANCH  32  38
ATOM     38  C   UNL     1      -4.181   7.498 130.856  0.00  0.00    +0.000 C 
BRANCH  38  39
ATOM     39  N   UNL     1      -4.591   8.327 129.728  0.00  0.00    +0.000 NA
ATOM     40  H   UNL     1      -5.272   7.842 129.155  0.00  0.00    +0.000 HD
ATOM     41  H   UNL     1      -3.770   8.519 129.155  0.00  0.00    +0.000 HD
ENDBRANCH  38  39
ENDBRANCH  32  38
ENDBRANCH  27  34
BRANCH  29  42
ATOM     42  C   UNL     1     -12.279   7.440 130.683  0.00  0.00    +0.000 C 
ATOM     43  F   UNL     1     -12.663   7.552 131.980  0.00  0.00    +0.000 F 
ATOM     44  F   UNL     1     -12.234   8.693 130.161  0.00  0.00    +0.000 F 
ATOM     45  F   UNL     1     -13.294   6.796 130.037  0.00  0.00    +0.000 F 
ENDBRANCH  29  42
ENDBRANCH   1  31
TORSDOF 12
ENDMDL
MODEL 6
REMARK VINA RESULT:      -8.6      4.244      8.593
REMARK  Name = Berotralstat
REMARK  12 active torsions:
REMARK  status: ('A' for Active; 'I' for Inactive)
REMARK    1  A    between atoms: N_1  and  C_2
REMARK    2  A    between atoms: C_2  and  C_3
REMARK    3  A    between atoms: C_5  and  N_9
REMARK    4  A    between atoms: C_11  and  C_38
REMARK    5  A    between atoms: C_13  and  C_14
REMARK    6  A    between atoms: N_16  and  C_17
REMARK    7  A    between atoms: C_19  and  C_24
REMARK    8  A    between atoms: C_24  and  N_25
REMARK    9  A    between atoms: C_24  and  C_30
REMARK   10  A    between atoms: N_25  and  C_26
REMARK   11  A    between atoms: C_26  and  C_27
REMARK   12  A    between atoms: C_34  and  C_36
REMARK                            x       y       z     vdW  Elec       q    Type
REMARK                         _______ _______ _______ _____ _____    ______ ____
ROOT
ATOM      1  C   UNL     1      -9.584   3.680 130.495  0.00  0.00    +0.000 C 
ATOM      2  O   UNL     1      -9.456   3.107 129.418  0.00  0.00    +0.000 OA
ATOM      3  N   UNL     1      -9.194   3.078 131.678  0.00  0.00    +0.000 N 
ATOM      4  H   UNL     1      -9.458   3.458 132.574  0.00  0.00    +0.000 HD
ENDROOT
BRANCH   3   5
ATOM      5  C   UNL     1      -8.466   1.875 131.641  0.00  0.00    +0.000 A 
ATOM      6  C   UNL     1      -7.091   1.896 131.428  0.00  0.00    +0.000 A 
ATOM      7  C   UNL     1      -6.392   0.676 131.346  0.00  0.00    +0.000 A 
ATOM      8  C   UNL     1      -7.104  -0.526 131.527  0.00  0.00    +0.000 A 
ATOM      9  C   UNL     1      -8.454  -0.547 131.764  0.00  0.00    +0.000 A 
ATOM     10  C   UNL     1      -9.128   0.646 131.787  0.00  0.00    +0.000 A 
ATOM     11  F   UNL     1     -10.464   0.578 131.847  0.00  0.00    +0.000 F 
BRANCH   7  12
ATOM     12  C   UNL     1      -4.892   0.649 131.058  0.00  0.00    +0.000 C 
BRANCH  12  13
ATOM     13  C   UNL     1      -4.117   1.884 131.486  0.00  0.00    +0.000 A 
ATOM     14  C   UNL     1      -3.549   2.003 132.761  0.00  0.00    +0.000 A 
ATOM     15  C   UNL     1      -2.931   3.178 133.151  0.00  0.00    +0.000 A 
ATOM     16  C   UNL     1      -2.703   4.177 132.211  0.00  0.00    +0.000 A 
ATOM     17  C   UNL     1      -3.174   4.042 130.900  0.00  0.00    +0.000 A 
ATOM     18  C   UNL     1      -3.893   2.903 130.543  0.00  0.00    +0.000 A 
BRANCH  17  19
ATOM     19  C   UNL     1      -2.978   5.084 129.948  0.00  0.00    +0.000 C 
ATOM     20  N   UNL     1      -2.837   5.962 129.190  0.00  0.00    +0.000 NA
ENDBRANCH  17  19
ENDBRANCH  12  13
BRANCH  12  21
ATOM     21  N   UNL     1      -4.236  -0.548 131.594  0.00  0.00    +0.000 NA
ATOM     22  H   UNL     1      -3.655  -0.290 132.389  0.00  0.00    +0.000 HD
BRANCH  21  23
ATOM     23  C   UNL     1      -3.462  -1.242 130.563  0.00  0.00    +0.000 C 
BRANCH  23  24
ATOM     24  C   UNL     1      -4.388  -1.937 129.639  0.00  0.00    +0.000 C 
ATOM     25  C   UNL     1      -4.045  -3.236 128.951  0.00  0.00    +0.000 C 
ATOM     26  C   UNL     1      -4.947  -3.236 130.152  0.00  0.00    +0.000 C 
ENDBRANCH  23  24
ENDBRANCH  21  23
ENDBRANCH  12  21
ENDBRANCH   7  12
ENDBRANCH   3   5
BRANCH   1  31
ATOM     27  N   UNL     1      -9.663   6.008 131.333  0.00  0.00    +0.000 N 
ATOM     28  N   UNL     1     -10.479   7.095 131.375  0.00  0.00    +0.000 NA
ATOM     29  C   UNL     1     -11.531   6.776 130.603  0.00  0.00    +0.000 A 
ATOM     30  C   UNL     1     -11.427   5.438 130.151  0.00  0.00    +0.000 A 
ATOM     31  C   UNL     1     -10.212   4.967 130.609  0.00  0.00    +0.000 A 
BRANCH  27  34
ATOM     32  C   UNL     1      -7.030   5.738 133.939  0.00  0.00    +0.000 A 
ATOM     33  C   UNL     1      -8.300   5.841 133.363  0.00  0.00    +0.000 A 
ATOM     34  C   UNL     1      -8.409   6.073 131.981  0.00  0.00    +0.000 A 
ATOM     35  C   UNL     1      -7.278   6.318 131.197  0.00  0.00    +0.000 A 
ATOM     36  C   UNL     1      -6.021   6.240 131.776  0.00  0.00    +0.000 A 
ATOM     37  C   UNL     1      -5.902   5.920 133.123  0.00  0.00    +0.000 A 
BRANCH  32  38
ATOM     38  C   UNL     1      -6.818   5.376 135.385  0.00  0.00    +0.000 C 
BRANCH  38  39
ATOM     39  N   UNL     1      -7.949   5.824 136.191  0.00  0.00    +0.000 NA
ATOM     40  H   UNL     1      -8.683   5.125 136.199  0.00  0.00    +0.000 HD
ATOM     41  H   UNL     1      -8.324   6.675 135.773  0.00  0.00    +0.000 HD
ENDBRANCH  38  39
ENDBRANCH  32  38
ENDBRANCH  27  34
BRANCH  29  42
ATOM     42  C   UNL     1     -12.663   7.723 130.303  0.00  0.00    +0.000 C 
ATOM     43  F   UNL     1     -13.227   8.244 131.422  0.00  0.00    +0.000 F 
ATOM     44  F   UNL     1     -12.287   8.762 129.513  0.00  0.00    +0.000 F 
ATOM     45  F   UNL     1     -13.663   7.080 129.634  0.00  0.00    +0.000 F 
ENDBRANCH  29  42
ENDBRANCH   1  31
TORSDOF 12
ENDMDL
MODEL 7
REMARK VINA RESULT:      -8.5      3.374      9.227
REMARK  Name = Berotralstat
REMARK  12 active torsions:
REMARK  status: ('A' for Active; 'I' for Inactive)
REMARK    1  A    between atoms: N_1  and  C_2
REMARK    2  A    between atoms: C_2  and  C_3
REMARK    3  A    between atoms: C_5  and  N_9
REMARK    4  A    between atoms: C_11  and  C_38
REMARK    5  A    between atoms: C_13  and  C_14
REMARK    6  A    between atoms: N_16  and  C_17
REMARK    7  A    between atoms: C_19  and  C_24
REMARK    8  A    between atoms: C_24  and  N_25
REMARK    9  A    between atoms: C_24  and  C_30
REMARK   10  A    between atoms: N_25  and  C_26
REMARK   11  A    between atoms: C_26  and  C_27
REMARK   12  A    between atoms: C_34  and  C_36
REMARK                            x       y       z     vdW  Elec       q    Type
REMARK                         _______ _______ _______ _____ _____    ______ ____
ROOT
ATOM      1  C   UNL     1      -8.679   4.540 129.416  0.00  0.00    +0.000 C 
ATOM      2  O   UNL     1      -7.658   4.997 128.913  0.00  0.00    +0.000 OA
ATOM      3  N   UNL     1      -8.978   3.192 129.332  0.00  0.00    +0.000 N 
ATOM      4  H   UNL     1      -9.890   2.838 129.578  0.00  0.00    +0.000 HD
ENDROOT
BRANCH   3   5
ATOM      5  C   UNL     1      -8.016   2.294 128.836  0.00  0.00    +0.000 A 
ATOM      6  C   UNL     1      -7.963   2.007 127.476  0.00  0.00    +0.000 A 
ATOM      7  C   UNL     1      -7.022   1.066 127.010  0.00  0.00    +0.000 A 
ATOM      8  C   UNL     1      -6.135   0.481 127.935  0.00  0.00    +0.000 A 
ATOM      9  C   UNL     1      -6.167   0.785 129.271  0.00  0.00    +0.000 A 
ATOM     10  C   UNL     1      -7.124   1.660 129.715  0.00  0.00    +0.000 A 
ATOM     11  F   UNL     1      -7.239   1.799 131.042  0.00  0.00    +0.000 F 
BRANCH   7  12
ATOM     12  C   UNL     1      -6.966   0.678 125.533  0.00  0.00    +0.000 C 
BRANCH  12  13
ATOM     13  C   UNL     1      -7.200  -0.793 125.230  0.00  0.00    +0.000 A 
ATOM     14  C   UNL     1      -8.465  -1.383 125.340  0.00  0.00    +0.000 A 
ATOM     15  C   UNL     1      -8.628  -2.744 125.148  0.00  0.00    +0.000 A 
ATOM     16  C   UNL     1      -7.567  -3.498 124.657  0.00  0.00    +0.000 A 
ATOM     17  C   UNL     1      -6.315  -2.911 124.444  0.00  0.00    +0.000 A 
ATOM     18  C   UNL     1      -6.129  -1.563 124.744  0.00  0.00    +0.000 A 
BRANCH  17  19
ATOM     19  C   UNL     1      -5.217  -3.692 123.981  0.00  0.00    +0.000 C 
ATOM     20  N   UNL     1      -4.300  -4.329 123.636  0.00  0.00    +0.000 NA
ENDBRANCH  17  19
ENDBRANCH  12  13
BRANCH  12  21
ATOM     21  N   UNL     1      -7.853   1.495 124.700  0.00  0.00    +0.000 NA
ATOM     22  H   UNL     1      -8.766   1.048 124.636  0.00  0.00    +0.000 HD
BRANCH  21  23
ATOM     23  C   UNL     1      -7.276   1.735 123.377  0.00  0.00    +0.000 C 
BRANCH  23  24
ATOM     24  C   UNL     1      -7.139   3.194 123.157  0.00  0.00    +0.000 C 
ATOM     25  C   UNL     1      -5.806   3.900 123.112  0.00  0.00    +0.000 C 
ATOM     26  C   UNL     1      -6.535   3.587 121.836  0.00  0.00    +0.000 C 
ENDBRANCH  23  24
ENDBRANCH  21  23
ENDBRANCH  12  21
ENDBRANCH   7  12
ENDBRANCH   3   5
BRANCH   1  31
ATOM     27  N   UNL     1      -9.690   5.600 131.410  0.00  0.00    +0.000 N 
ATOM     28  N   UNL     1     -10.763   6.346 131.789  0.00  0.00    +0.000 NA
ATOM     29  C   UNL     1     -11.389   6.669 130.645  0.00  0.00    +0.000 A 
ATOM     30  C   UNL     1     -10.763   6.038 129.542  0.00  0.00    +0.000 A 
ATOM     31  C   UNL     1      -9.662   5.375 130.047  0.00  0.00    +0.000 A 
BRANCH  27  34
ATOM     32  C   UNL     1      -6.619   5.373 133.487  0.00  0.00    +0.000 A 
ATOM     33  C   UNL     1      -7.449   5.665 132.400  0.00  0.00    +0.000 A 
ATOM     34  C   UNL     1      -8.770   5.183 132.397  0.00  0.00    +0.000 A 
ATOM     35  C   UNL     1      -9.228   4.324 133.399  0.00  0.00    +0.000 A 
ATOM     36  C   UNL     1      -8.394   4.015 134.463  0.00  0.00    +0.000 A 
ATOM     37  C   UNL     1      -7.119   4.564 134.520  0.00  0.00    +0.000 A 
BRANCH  32  38
ATOM     38  C   UNL     1      -5.233   5.943 133.630  0.00  0.00    +0.000 C 
BRANCH  38  39
ATOM     39  N   UNL     1      -4.803   6.550 132.374  0.00  0.00    +0.000 NA
ATOM     40  H   UNL     1      -3.822   6.800 132.413  0.00  0.00    +0.000 HD
ATOM     41  H   UNL     1      -5.344   7.401 132.227  0.00  0.00    +0.000 HD
ENDBRANCH  38  39
ENDBRANCH  32  38
ENDBRANCH  27  34
BRANCH  29  42
ATOM     42  C   UNL     1     -12.603   7.557 130.581  0.00  0.00    +0.000 C 
ATOM     43  F   UNL     1     -13.573   7.068 129.767  0.00  0.00    +0.000 F 
ATOM     44  F   UNL     1     -13.163   7.775 131.799  0.00  0.00    +0.000 F 
ATOM     45  F   UNL     1     -12.275   8.787 130.089  0.00  0.00    +0.000 F 
ENDBRANCH  29  42
ENDBRANCH   1  31
TORSDOF 12
ENDMDL
MODEL 8
REMARK VINA RESULT:      -8.5      3.772      8.811
REMARK  Name = Berotralstat
REMARK  12 active torsions:
REMARK  status: ('A' for Active; 'I' for Inactive)
REMARK    1  A    between atoms: N_1  and  C_2
REMARK    2  A    between atoms: C_2  and  C_3
REMARK    3  A    between atoms: C_5  and  N_9
REMARK    4  A    between atoms: C_11  and  C_38
REMARK    5  A    between atoms: C_13  and  C_14
REMARK    6  A    between atoms: N_16  and  C_17
REMARK    7  A    between atoms: C_19  and  C_24
REMARK    8  A    between atoms: C_24  and  N_25
REMARK    9  A    between atoms: C_24  and  C_30
REMARK   10  A    between atoms: N_25  and  C_26
REMARK   11  A    between atoms: C_26  and  C_27
REMARK   12  A    between atoms: C_34  and  C_36
REMARK                            x       y       z     vdW  Elec       q    Type
REMARK                         _______ _______ _______ _____ _____    ______ ____
ROOT
ATOM      1  C   UNL     1      -8.753   4.484 129.329  0.00  0.00    +0.000 C 
ATOM      2  O   UNL     1      -8.102   4.716 128.315  0.00  0.00    +0.000 OA
ATOM      3  N   UNL     1      -8.733   3.235 129.924  0.00  0.00    +0.000 N 
ATOM      4  H   UNL     1      -9.395   2.983 130.642  0.00  0.00    +0.000 HD
ENDROOT
BRANCH   3   5
ATOM      5  C   UNL     1      -7.812   2.268 129.483  0.00  0.00    +0.000 A 
ATOM      6  C   UNL     1      -8.243   1.189 128.719  0.00  0.00    +0.000 A 
ATOM      7  C   UNL     1      -7.310   0.207 128.331  0.00  0.00    +0.000 A 
ATOM      8  C   UNL     1      -5.959   0.376 128.695  0.00  0.00    +0.000 A 
ATOM      9  C   UNL     1      -5.528   1.453 129.425  0.00  0.00    +0.000 A 
ATOM     10  C   UNL     1      -6.458   2.370 129.839  0.00  0.00    +0.000 A 
ATOM     11  F   UNL     1      -6.032   3.310 130.692  0.00  0.00    +0.000 F 
BRANCH   7  12
ATOM     12  C   UNL     1      -7.749  -1.024 127.538  0.00  0.00    +0.000 C 
BRANCH  12  13
ATOM     13  C   UNL     1      -7.578  -0.931 126.031  0.00  0.00    +0.000 A 
ATOM     14  C   UNL     1      -6.396  -1.323 125.390  0.00  0.00    +0.000 A 
ATOM     15  C   UNL     1      -6.238  -1.139 124.028  0.00  0.00    +0.000 A 
ATOM     16  C   UNL     1      -7.327  -0.739 123.259  0.00  0.00    +0.000 A 
ATOM     17  C   UNL     1      -8.551  -0.435 123.864  0.00  0.00    +0.000 A 
ATOM     18  C   UNL     1      -8.672  -0.516 125.250  0.00  0.00    +0.000 A 
BRANCH  17  19
ATOM     19  C   UNL     1      -9.654   0.016 123.083  0.00  0.00    +0.000 C 
ATOM     20  N   UNL     1     -10.535   0.394 122.414  0.00  0.00    +0.000 NA
ENDBRANCH  17  19
ENDBRANCH  12  13
BRANCH  12  21
ATOM     21  N   UNL     1      -7.127  -2.259 128.024  0.00  0.00    +0.000 NA
ATOM     22  H   UNL     1      -7.091  -2.941 127.270  0.00  0.00    +0.000 HD
BRANCH  21  23
ATOM     23  C   UNL     1      -7.827  -2.787 129.196  0.00  0.00    +0.000 C 
BRANCH  23  24
ATOM     24  C   UNL     1      -6.852  -3.031 130.284  0.00  0.00    +0.000 C 
ATOM     25  C   UNL     1      -6.128  -4.343 130.464  0.00  0.00    +0.000 C 
ATOM     26  C   UNL     1      -5.422  -3.174 129.839  0.00  0.00    +0.000 C 
ENDBRANCH  23  24
ENDBRANCH  21  23
ENDBRANCH  12  21
ENDBRANCH   7  12
ENDBRANCH   3   5
BRANCH   1  31
ATOM     27  N   UNL     1      -9.304   6.178 131.047  0.00  0.00    +0.000 N 
ATOM     28  N   UNL     1     -10.326   6.970 131.470  0.00  0.00    +0.000 NA
ATOM     29  C   UNL     1     -11.294   6.815 130.552  0.00  0.00    +0.000 A 
ATOM     30  C   UNL     1     -10.920   5.839 129.596  0.00  0.00    +0.000 A 
ATOM     31  C   UNL     1      -9.632   5.457 129.915  0.00  0.00    +0.000 A 
BRANCH  27  34
ATOM     32  C   UNL     1      -6.739   5.503 133.648  0.00  0.00    +0.000 A 
ATOM     33  C   UNL     1      -7.994   5.623 133.043  0.00  0.00    +0.000 A 
ATOM     34  C   UNL     1      -8.087   6.199 131.764  0.00  0.00    +0.000 A 
ATOM     35  C   UNL     1      -6.968   6.757 131.140  0.00  0.00    +0.000 A 
ATOM     36  C   UNL     1      -5.728   6.660 131.753  0.00  0.00    +0.000 A 
ATOM     37  C   UNL     1      -5.615   6.009 132.975  0.00  0.00    +0.000 A 
BRANCH  32  38
ATOM     38  C   UNL     1      -6.531   4.796 134.961  0.00  0.00    +0.000 C 
BRANCH  38  39
ATOM     39  N   UNL     1      -5.532   3.743 134.816  0.00  0.00    +0.000 NA
ATOM     40  H   UNL     1      -4.647   4.030 135.218  0.00  0.00    +0.000 HD
ATOM     41  H   UNL     1      -5.389   3.570 133.822  0.00  0.00    +0.000 HD
ENDBRANCH  38  39
ENDBRANCH  32  38
ENDBRANCH  27  34
BRANCH  29  42
ATOM     42  C   UNL     1     -12.599   7.567 130.580  0.00  0.00    +0.000 C 
ATOM     43  F   UNL     1     -13.542   7.019 129.772  0.00  0.00    +0.000 F 
ATOM     44  F   UNL     1     -13.131   7.655 131.827  0.00  0.00    +0.000 F 
ATOM     45  F   UNL     1     -12.424   8.850 130.151  0.00  0.00    +0.000 F 
ENDBRANCH  29  42
ENDBRANCH   1  31
TORSDOF 12
ENDMDL
MODEL 9
REMARK VINA RESULT:      -8.4      2.586      4.352
REMARK  Name = Berotralstat
REMARK  12 active torsions:
REMARK  status: ('A' for Active; 'I' for Inactive)
REMARK    1  A    between atoms: N_1  and  C_2
REMARK    2  A    between atoms: C_2  and  C_3
REMARK    3  A    between atoms: C_5  and  N_9
REMARK    4  A    between atoms: C_11  and  C_38
REMARK    5  A    between atoms: C_13  and  C_14
REMARK    6  A    between atoms: N_16  and  C_17
REMARK    7  A    between atoms: C_19  and  C_24
REMARK    8  A    between atoms: C_24  and  N_25
REMARK    9  A    between atoms: C_24  and  C_30
REMARK   10  A    between atoms: N_25  and  C_26
REMARK   11  A    between atoms: C_26  and  C_27
REMARK   12  A    between atoms: C_34  and  C_36
REMARK                            x       y       z     vdW  Elec       q    Type
REMARK                         _______ _______ _______ _____ _____    ______ ____
ROOT
ATOM      1  C   UNL     1      -6.779   2.350 126.356  0.00  0.00    +0.000 C 
ATOM      2  O   UNL     1      -5.764   2.312 127.044  0.00  0.00    +0.000 OA
ATOM      3  N   UNL     1      -8.037   2.331 126.933  0.00  0.00    +0.000 N 
ATOM      4  H   UNL     1      -8.868   2.179 126.381  0.00  0.00    +0.000 HD
ENDROOT
BRANCH   3   5
ATOM      5  C   UNL     1      -8.167   2.466 128.327  0.00  0.00    +0.000 A 
ATOM      6  C   UNL     1      -8.200   3.730 128.907  0.00  0.00    +0.000 A 
ATOM      7  C   UNL     1      -8.281   3.838 130.310  0.00  0.00    +0.000 A 
ATOM      8  C   UNL     1      -8.370   2.658 131.076  0.00  0.00    +0.000 A 
ATOM      9  C   UNL     1      -8.365   1.413 130.503  0.00  0.00    +0.000 A 
ATOM     10  C   UNL     1      -8.232   1.325 129.142  0.00  0.00    +0.000 A 
ATOM     11  F   UNL     1      -8.056   0.098 128.636  0.00  0.00    +0.000 F 
BRANCH   7  12
ATOM     12  C   UNL     1      -8.264   5.204 130.994  0.00  0.00    +0.000 C 
BRANCH  12  13
ATOM     13  C   UNL     1      -9.602   5.921 131.065  0.00  0.00    +0.000 A 
ATOM     14  C   UNL     1     -10.368   5.955 132.237  0.00  0.00    +0.000 A 
ATOM     15  C   UNL     1     -11.624   6.535 132.243  0.00  0.00    +0.000 A 
ATOM     16  C   UNL     1     -12.050   7.258 131.133  0.00  0.00    +0.000 A 
ATOM     17  C   UNL     1     -11.259   7.323 129.980  0.00  0.00    +0.000 A 
ATOM     18  C   UNL     1     -10.043   6.643 129.942  0.00  0.00    +0.000 A 
BRANCH  17  19
ATOM     19  C   UNL     1     -11.713   8.027 128.827  0.00  0.00    +0.000 C 
ATOM     20  N   UNL     1     -12.051   8.601 127.868  0.00  0.00    +0.000 NA
ENDBRANCH  17  19
ENDBRANCH  12  13
BRANCH  12  21
ATOM     21  N   UNL     1      -7.664   5.158 132.331  0.00  0.00    +0.000 NA
ATOM     22  H   UNL     1      -8.385   5.314 133.033  0.00  0.00    +0.000 HD
BRANCH  21  23
ATOM     23  C   UNL     1      -6.569   6.120 132.461  0.00  0.00    +0.000 C 
BRANCH  23  24
ATOM     24  C   UNL     1      -5.982   6.379 131.125  0.00  0.00    +0.000 C 
ATOM     25  C   UNL     1      -4.770   7.253 130.912  0.00  0.00    +0.000 C 
ATOM     26  C   UNL     1      -4.633   5.757 130.888  0.00  0.00    +0.000 C 
ENDBRANCH  23  24
ENDBRANCH  21  23
ENDBRANCH  12  21
ENDBRANCH   7  12
ENDBRANCH   3   5
BRANCH   1  31
ATOM     27  N   UNL     1      -6.725   1.164 124.185  0.00  0.00    +0.000 N 
ATOM     28  N   UNL     1      -6.587   1.394 122.851  0.00  0.00    +0.000 NA
ATOM     29  C   UNL     1      -6.585   2.731 122.723  0.00  0.00    +0.000 A 
ATOM     30  C   UNL     1      -6.622   3.352 123.995  0.00  0.00    +0.000 A 
ATOM     31  C   UNL     1      -6.734   2.333 124.921  0.00  0.00    +0.000 A 
BRANCH  27  34
ATOM     32  C   UNL     1      -8.194  -2.154 124.976  0.00  0.00    +0.000 A 
ATOM     33  C   UNL     1      -8.118  -0.786 124.697  0.00  0.00    +0.000 A 
ATOM     34  C   UNL     1      -6.857  -0.168 124.635  0.00  0.00    +0.000 A 
ATOM     35  C   UNL     1      -5.692  -0.868 124.960  0.00  0.00    +0.000 A 
ATOM     36  C   UNL     1      -5.773  -2.219 125.261  0.00  0.00    +0.000 A 
ATOM     37  C   UNL     1      -7.006  -2.858 125.233  0.00  0.00    +0.000 A 
BRANCH  32  38
ATOM     38  C   UNL     1      -9.490  -2.921 124.947  0.00  0.00    +0.000 C 
BRANCH  38  39
ATOM     39  N   UNL     1      -9.870  -3.222 123.571  0.00  0.00    +0.000 NA
ATOM     40  H   UNL     1     -10.587  -2.583 123.249  0.00  0.00    +0.000 HD
ATOM     41  H   UNL     1     -10.249  -4.167 123.542  0.00  0.00    +0.000 HD
ENDBRANCH  38  39
ENDBRANCH  32  38
ENDBRANCH  27  34
BRANCH  29  42
ATOM     42  C   UNL     1      -6.522   3.442 121.397  0.00  0.00    +0.000 C 
ATOM     43  F   UNL     1      -5.900   2.713 120.435  0.00  0.00    +0.000 F 
ATOM     44  F   UNL     1      -7.748   3.783 120.921  0.00  0.00    +0.000 F 
ATOM     45  F   UNL     1      -5.821   4.607 121.508  0.00  0.00    +0.000 F 
ENDBRANCH  29  42
ENDBRANCH   1  31
TORSDOF 12
ENDMDL
