MODEL 1
REMARK VINA RESULT:      -7.3      0.000      0.000
REMARK  Name = Besifloxacin
REMARK  5 active torsions:
REMARK  status: ('A' for Active; 'I' for Inactive)
REMARK    1  A    between atoms: N_1  and  C_2
REMARK    2  A    between atoms: N_7  and  C_9
REMARK    3  A    between atoms: C_16  and  C_25
REMARK    4  A    between atoms: N_18  and  C_19
REMARK    5  A    between atoms: C_25  and  O_26
REMARK                            x       y       z     vdW  Elec       q    Type
REMARK                         _______ _______ _______ _____ _____    ______ ____
ROOT
ATOM      1  C   UNL     1      -7.089   3.771 130.043  0.00  0.00    +0.000 A 
ATOM      2  C   UNL     1      -8.271   4.009 129.316  0.00  0.00    +0.000 A 
ATOM      3  F   UNL     1      -9.446   4.160 129.937  0.00  0.00    +0.000 F 
ATOM      4  C   UNL     1      -8.294   4.156 127.941  0.00  0.00    +0.000 A 
ATOM      5  C   UNL     1      -7.112   4.060 127.213  0.00  0.00    +0.000 A 
ATOM      6  C   UNL     1      -7.223   4.199 125.739  0.00  0.00    +0.000 A 
ATOM      7  O   UNL     1      -8.330   4.402 125.252  0.00  0.00    +0.000 OA
ATOM      8  C   UNL     1      -5.995   4.081 124.912  0.00  0.00    +0.000 A 
ATOM      9  C   UNL     1      -4.870   3.856 125.610  0.00  0.00    +0.000 A 
ATOM     10  N   UNL     1      -4.720   3.724 126.986  0.00  0.00    +0.000 N 
ATOM     11  C   UNL     1      -5.870   3.836 127.849  0.00  0.00    +0.000 A 
ATOM     12  C   UNL     1      -5.883   3.716 129.285  0.00  0.00    +0.000 A 
ATOM     13 CL   UNL     1      -4.431   3.436 130.233  0.00  0.00    +0.000 Cl
ENDROOT
BRANCH   1  19
ATOM     14  C   UNL     1      -8.583   4.813 133.008  0.00  0.00    +0.000 C 
ATOM     15  C   UNL     1      -9.059   3.512 133.676  0.00  0.00    +0.000 C 
ATOM     16  C   UNL     1      -9.475   2.476 132.629  0.00  0.00    +0.000 C 
ATOM     17  C   UNL     1      -8.341   1.544 132.188  0.00  0.00    +0.000 C 
ATOM     18  C   UNL     1      -6.993   2.223 131.978  0.00  0.00    +0.000 C 
ATOM     19  N   UNL     1      -7.130   3.568 131.421  0.00  0.00    +0.000 N 
ATOM     20  C   UNL     1      -7.179   4.668 132.395  0.00  0.00    +0.000 C 
BRANCH  14  21
ATOM     21  N   UNL     1      -8.588   5.900 134.000  0.00  0.00    +0.000 NA
ATOM     22  H   UNL     1      -9.209   6.638 133.671  0.00  0.00    +0.000 HD
ATOM     23  H   UNL     1      -7.656   6.313 134.043  0.00  0.00    +0.000 HD
ENDBRANCH  14  21
ENDBRANCH   1  19
BRANCH  10  24
ATOM     24  C   UNL     1      -3.396   3.355 127.521  0.00  0.00    +0.000 C 
ATOM     25  C   UNL     1      -2.091   3.164 126.822  0.00  0.00    +0.000 C 
ATOM     26  C   UNL     1      -2.309   4.397 127.648  0.00  0.00    +0.000 C 
ENDBRANCH  10  24
BRANCH   8  27
ATOM     27  C   UNL     1      -6.068   4.208 123.430  0.00  0.00    +0.000 C 
ATOM     28  O   UNL     1      -5.184   4.709 122.745  0.00  0.00    +0.000 OA
BRANCH  27  29
ATOM     29  O   UNL     1      -7.180   3.738 122.826  0.00  0.00    +0.000 OA
ATOM     30  H   UNL     1      -7.960   3.515 123.353  0.00  0.00    +0.000 HD
ENDBRANCH  27  29
ENDBRANCH   8  27
TORSDOF 5
ENDMDL
MODEL 2
REMARK VINA RESULT:      -7.2      5.077      7.024
REMARK  Name = Besifloxacin
REMARK  5 active torsions:
REMARK  status: ('A' for Active; 'I' for Inactive)
REMARK    1  A    between atoms: N_1  and  C_2
REMARK    2  A    between atoms: N_7  and  C_9
REMARK    3  A    between atoms: C_16  and  C_25
REMARK    4  A    between atoms: N_18  and  C_19
REMARK    5  A    between atoms: C_25  and  O_26
REMARK                            x       y       z     vdW  Elec       q    Type
REMARK                         _______ _______ _______ _____ _____    ______ ____
ROOT
ATOM      1  C   UNL     1     -10.200   5.761 130.229  0.00  0.00    +0.000 A 
ATOM      2  C   UNL     1     -10.894   4.537 130.263  0.00  0.00    +0.000 A 
ATOM      3  F   UNL     1     -12.064   4.388 129.632  0.00  0.00    +0.000 F 
ATOM      4  C   UNL     1     -10.402   3.408 130.892  0.00  0.00    +0.000 A 
ATOM      5  C   UNL     1      -9.170   3.455 131.537  0.00  0.00    +0.000 A 
ATOM      6  C   UNL     1      -8.724   2.212 132.215  0.00  0.00    +0.000 A 
ATOM      7  O   UNL     1      -9.446   1.222 132.157  0.00  0.00    +0.000 OA
ATOM      8  C   UNL     1      -7.427   2.215 132.940  0.00  0.00    +0.000 A 
ATOM      9  C   UNL     1      -6.769   3.384 132.903  0.00  0.00    +0.000 A 
ATOM     10  N   UNL     1      -7.146   4.568 132.279  0.00  0.00    +0.000 N 
ATOM     11  C   UNL     1      -8.388   4.633 131.550  0.00  0.00    +0.000 A 
ATOM     12  C   UNL     1      -8.923   5.780 130.861  0.00  0.00    +0.000 A 
ATOM     13 CL   UNL     1      -8.084   7.321 130.779  0.00  0.00    +0.000 Cl
ENDROOT
BRANCH   1  19
ATOM     14  C   UNL     1     -11.503   7.038 127.265  0.00  0.00    +0.000 C 
ATOM     15  C   UNL     1     -12.863   7.631 127.668  0.00  0.00    +0.000 C 
ATOM     16  C   UNL     1     -13.501   6.826 128.803  0.00  0.00    +0.000 C 
ATOM     17  C   UNL     1     -13.143   7.333 130.204  0.00  0.00    +0.000 C 
ATOM     18  C   UNL     1     -11.687   7.740 130.390  0.00  0.00    +0.000 C 
ATOM     19  N   UNL     1     -10.771   6.886 129.635  0.00  0.00    +0.000 N 
ATOM     20  C   UNL     1     -10.405   7.360 128.294  0.00  0.00    +0.000 C 
BRANCH  14  21
ATOM     21  N   UNL     1     -11.119   7.552 125.941  0.00  0.00    +0.000 NA
ATOM     22  H   UNL     1     -10.404   8.268 126.064  0.00  0.00    +0.000 HD
ATOM     23  H   UNL     1     -11.922   8.025 125.525  0.00  0.00    +0.000 HD
ENDBRANCH  14  21
ENDBRANCH   1  19
BRANCH  10  24
ATOM     24  C   UNL     1      -6.314   5.769 132.479  0.00  0.00    +0.000 C 
ATOM     25  C   UNL     1      -5.066   5.958 133.277  0.00  0.00    +0.000 C 
ATOM     26  C   UNL     1      -4.979   5.894 131.780  0.00  0.00    +0.000 C 
ENDBRANCH  10  24
BRANCH   8  27
ATOM     27  C   UNL     1      -6.950   0.988 133.637  0.00  0.00    +0.000 C 
ATOM     28  O   UNL     1      -6.243   1.005 134.637  0.00  0.00    +0.000 OA
BRANCH  27  29
ATOM     29  O   UNL     1      -7.330  -0.200 133.120  0.00  0.00    +0.000 OA
ATOM     30  H   UNL     1      -6.870  -1.011 133.382  0.00  0.00    +0.000 HD
ENDBRANCH  27  29
ENDBRANCH   8  27
TORSDOF 5
ENDMDL
MODEL 3
REMARK VINA RESULT:      -7.1      4.722      7.496
REMARK  Name = Besifloxacin
REMARK  5 active torsions:
REMARK  status: ('A' for Active; 'I' for Inactive)
REMARK    1  A    between atoms: N_1  and  C_2
REMARK    2  A    between atoms: N_7  and  C_9
REMARK    3  A    between atoms: C_16  and  C_25
REMARK    4  A    between atoms: N_18  and  C_19
REMARK    5  A    between atoms: C_25  and  O_26
REMARK                            x       y       z     vdW  Elec       q    Type
REMARK                         _______ _______ _______ _____ _____    ______ ____
ROOT
ATOM      1  C   UNL     1      -7.780  -0.242 126.551  0.00  0.00    +0.000 A 
ATOM      2  C   UNL     1      -7.855   0.916 125.755  0.00  0.00    +0.000 A 
ATOM      3  F   UNL     1      -7.870   0.837 124.419  0.00  0.00    +0.000 F 
ATOM      4  C   UNL     1      -7.972   2.189 126.283  0.00  0.00    +0.000 A 
ATOM      5  C   UNL     1      -8.010   2.366 127.662  0.00  0.00    +0.000 A 
ATOM      6  C   UNL     1      -8.105   3.764 128.153  0.00  0.00    +0.000 A 
ATOM      7  O   UNL     1      -8.161   4.671 127.329  0.00  0.00    +0.000 OA
ATOM      8  C   UNL     1      -8.125   4.012 129.618  0.00  0.00    +0.000 A 
ATOM      9  C   UNL     1      -8.055   2.904 130.373  0.00  0.00    +0.000 A 
ATOM     10  N   UNL     1      -7.969   1.580 129.957  0.00  0.00    +0.000 N 
ATOM     11  C   UNL     1      -7.954   1.267 128.550  0.00  0.00    +0.000 A 
ATOM     12  C   UNL     1      -7.860  -0.045 127.961  0.00  0.00    +0.000 A 
ATOM     13 CL   UNL     1      -7.781  -1.517 128.915  0.00  0.00    +0.000 Cl
ENDROOT
BRANCH   1  19
ATOM     14  C   UNL     1      -8.822  -2.337 123.975  0.00  0.00    +0.000 C 
ATOM     15  C   UNL     1      -7.518  -2.798 123.304  0.00  0.00    +0.000 C 
ATOM     16  C   UNL     1      -6.450  -1.702 123.364  0.00  0.00    +0.000 C 
ATOM     17  C   UNL     1      -5.550  -1.776 124.601  0.00  0.00    +0.000 C 
ATOM     18  C   UNL     1      -6.269  -2.099 125.904  0.00  0.00    +0.000 C 
ATOM     19  N   UNL     1      -7.600  -1.495 125.969  0.00  0.00    +0.000 N 
ATOM     20  C   UNL     1      -8.713  -2.337 125.510  0.00  0.00    +0.000 C 
BRANCH  14  21
ATOM     21  N   UNL     1      -9.925  -3.212 123.549  0.00  0.00    +0.000 NA
ATOM     22  H   UNL     1     -10.272  -3.720 124.362  0.00  0.00    +0.000 HD
ATOM     23  H   UNL     1      -9.560  -3.919 122.910  0.00  0.00    +0.000 HD
ENDBRANCH  14  21
ENDBRANCH   1  19
BRANCH  10  24
ATOM     24  C   UNL     1      -7.777   0.530 130.975  0.00  0.00    +0.000 C 
ATOM     25  C   UNL     1      -7.678   0.632 132.461  0.00  0.00    +0.000 C 
ATOM     26  C   UNL     1      -8.934   0.092 131.844  0.00  0.00    +0.000 C 
ENDBRANCH  10  24
BRANCH   8  27
ATOM     27  C   UNL     1      -8.215   5.401 130.147  0.00  0.00    +0.000 C 
ATOM     28  O   UNL     1      -7.607   5.793 131.136  0.00  0.00    +0.000 OA
BRANCH  27  29
ATOM     29  O   UNL     1      -9.016   6.262 129.484  0.00  0.00    +0.000 OA
ATOM     30  H   UNL     1      -8.740   6.618 128.627  0.00  0.00    +0.000 HD
ENDBRANCH  27  29
ENDBRANCH   8  27
TORSDOF 5
ENDMDL
MODEL 4
REMARK VINA RESULT:      -7.0      5.402      8.372
REMARK  Name = Besifloxacin
REMARK  5 active torsions:
REMARK  status: ('A' for Active; 'I' for Inactive)
REMARK    1  A    between atoms: N_1  and  C_2
REMARK    2  A    between atoms: N_7  and  C_9
REMARK    3  A    between atoms: C_16  and  C_25
REMARK    4  A    between atoms: N_18  and  C_19
REMARK    5  A    between atoms: C_25  and  O_26
REMARK                            x       y       z     vdW  Elec       q    Type
REMARK                         _______ _______ _______ _____ _____    ______ ____
ROOT
ATOM      1  C   UNL     1      -7.689  -1.168 127.491  0.00  0.00    +0.000 A 
ATOM      2  C   UNL     1      -8.144   0.140 127.243  0.00  0.00    +0.000 A 
ATOM      3  F   UNL     1      -8.419   0.553 126.001  0.00  0.00    +0.000 F 
ATOM      4  C   UNL     1      -8.387   1.058 128.249  0.00  0.00    +0.000 A 
ATOM      5  C   UNL     1      -8.173   0.703 129.577  0.00  0.00    +0.000 A 
ATOM      6  C   UNL     1      -8.427   1.752 130.597  0.00  0.00    +0.000 A 
ATOM      7  O   UNL     1      -8.821   2.851 130.221  0.00  0.00    +0.000 OA
ATOM      8  C   UNL     1      -8.191   1.434 132.029  0.00  0.00    +0.000 A 
ATOM      9  C   UNL     1      -7.758   0.184 132.260  0.00  0.00    +0.000 A 
ATOM     10  N   UNL     1      -7.512  -0.828 131.339  0.00  0.00    +0.000 N 
ATOM     11  C   UNL     1      -7.729  -0.591 129.934  0.00  0.00    +0.000 A 
ATOM     12  C   UNL     1      -7.513  -1.527 128.859  0.00  0.00    +0.000 A 
ATOM     13 CL   UNL     1      -6.962  -3.173 129.124  0.00  0.00    +0.000 Cl
ENDROOT
BRANCH   1  19
ATOM     14  C   UNL     1      -8.812  -2.349 124.416  0.00  0.00    +0.000 C 
ATOM     15  C   UNL     1      -7.601  -2.194 123.480  0.00  0.00    +0.000 C 
ATOM     16  C   UNL     1      -6.761  -0.973 123.864  0.00  0.00    +0.000 C 
ATOM     17  C   UNL     1      -5.639  -1.277 124.861  0.00  0.00    +0.000 C 
ATOM     18  C   UNL     1      -6.020  -2.225 125.992  0.00  0.00    +0.000 C 
ATOM     19  N   UNL     1      -7.400  -2.032 126.436  0.00  0.00    +0.000 N 
ATOM     20  C   UNL     1      -8.408  -2.889 125.799  0.00  0.00    +0.000 C 
BRANCH  14  21
ATOM     21  N   UNL     1      -9.798  -3.245 123.793  0.00  0.00    +0.000 NA
ATOM     22  H   UNL     1      -9.848  -3.035 122.797  0.00  0.00    +0.000 HD
ATOM     23  H   UNL     1     -10.722  -3.035 124.172  0.00  0.00    +0.000 HD
ENDBRANCH  14  21
ENDBRANCH   1  19
BRANCH  10  24
ATOM     24  C   UNL     1      -6.919  -2.091 131.818  0.00  0.00    +0.000 C 
ATOM     25  C   UNL     1      -6.373  -2.454 133.159  0.00  0.00    +0.000 C 
ATOM     26  C   UNL     1      -7.705  -3.000 132.736  0.00  0.00    +0.000 C 
ENDBRANCH  10  24
BRANCH   8  27
ATOM     27  C   UNL     1      -8.429   2.462 133.080  0.00  0.00    +0.000 C 
ATOM     28  O   UNL     1      -7.560   2.876 133.837  0.00  0.00    +0.000 OA
BRANCH  27  29
ATOM     29  O   UNL     1      -9.682   2.954 133.186  0.00  0.00    +0.000 OA
ATOM     30  H   UNL     1     -10.056   3.142 134.059  0.00  0.00    +0.000 HD
ENDBRANCH  27  29
ENDBRANCH   8  27
TORSDOF 5
ENDMDL
MODEL 5
REMARK VINA RESULT:      -7.0      5.247      6.076
REMARK  Name = Besifloxacin
REMARK  5 active torsions:
REMARK  status: ('A' for Active; 'I' for Inactive)
REMARK    1  A    between atoms: N_1  and  C_2
REMARK    2  A    between atoms: N_7  and  C_9
REMARK    3  A    between atoms: C_16  and  C_25
REMARK    4  A    between atoms: N_18  and  C_19
REMARK    5  A    between atoms: C_25  and  O_26
REMARK                            x       y       z     vdW  Elec       q    Type
REMARK                         _______ _______ _______ _____ _____    ______ ____
ROOT
ATOM      1  C   UNL     1      -6.778  -1.804 128.946  0.00  0.00    +0.000 A 
ATOM      2  C   UNL     1      -7.710  -2.723 128.429  0.00  0.00    +0.000 A 
ATOM      3  F   UNL     1      -8.006  -3.850 129.086  0.00  0.00    +0.000 F 
ATOM      4  C   UNL     1      -8.411  -2.508 127.257  0.00  0.00    +0.000 A 
ATOM      5  C   UNL     1      -8.202  -1.341 126.528  0.00  0.00    +0.000 A 
ATOM      6  C   UNL     1      -8.970  -1.197 125.266  0.00  0.00    +0.000 A 
ATOM      7  O   UNL     1      -9.747  -2.091 124.947  0.00  0.00    +0.000 OA
ATOM      8  C   UNL     1      -8.766   0.019 124.436  0.00  0.00    +0.000 A 
ATOM      9  C   UNL     1      -7.878   0.894 124.935  0.00  0.00    +0.000 A 
ATOM     10  N   UNL     1      -7.142   0.801 126.111  0.00  0.00    +0.000 N 
ATOM     11  C   UNL     1      -7.297  -0.348 126.968  0.00  0.00    +0.000 A 
ATOM     12  C   UNL     1      -6.605  -0.597 128.207  0.00  0.00    +0.000 A 
ATOM     13 CL   UNL     1      -5.448   0.529 128.897  0.00  0.00    +0.000 Cl
ENDROOT
BRANCH   1  19
ATOM     14  C   UNL     1      -6.972  -3.195 132.130  0.00  0.00    +0.000 C 
ATOM     15  C   UNL     1      -5.806  -4.196 132.183  0.00  0.00    +0.000 C 
ATOM     16  C   UNL     1      -5.552  -4.819 130.808  0.00  0.00    +0.000 C 
ATOM     17  C   UNL     1      -4.532  -4.055 129.957  0.00  0.00    +0.000 C 
ATOM     18  C   UNL     1      -4.659  -2.537 130.006  0.00  0.00    +0.000 C 
ATOM     19  N   UNL     1      -6.051  -2.099 130.098  0.00  0.00    +0.000 N 
ATOM     20  C   UNL     1      -6.568  -1.872 131.455  0.00  0.00    +0.000 C 
BRANCH  14  21
ATOM     21  N   UNL     1      -7.455  -2.936 133.495  0.00  0.00    +0.000 NA
ATOM     22  H   UNL     1      -6.848  -3.422 134.154  0.00  0.00    +0.000 HD
ATOM     23  H   UNL     1      -8.380  -3.352 133.604  0.00  0.00    +0.000 HD
ENDBRANCH  14  21
ENDBRANCH   1  19
BRANCH  10  24
ATOM     24  C   UNL     1      -6.128   1.834 126.393  0.00  0.00    +0.000 C 
ATOM     25  C   UNL     1      -5.692   3.007 125.581  0.00  0.00    +0.000 C 
ATOM     26  C   UNL     1      -6.554   3.230 126.788  0.00  0.00    +0.000 C 
ENDBRANCH  10  24
BRANCH   8  27
ATOM     27  C   UNL     1      -9.515   0.196 123.161  0.00  0.00    +0.000 C 
ATOM     28  O   UNL     1      -9.781   1.288 122.674  0.00  0.00    +0.000 OA
BRANCH  27  29
ATOM     29  O   UNL     1      -9.914  -0.924 122.520  0.00  0.00    +0.000 OA
ATOM     30  H   UNL     1     -10.679  -1.420 122.845  0.00  0.00    +0.000 HD
ENDBRANCH  27  29
ENDBRANCH   8  27
TORSDOF 5
ENDMDL
MODEL 6
REMARK VINA RESULT:      -6.9      4.404      5.234
REMARK  Name = Besifloxacin
REMARK  5 active torsions:
REMARK  status: ('A' for Active; 'I' for Inactive)
REMARK    1  A    between atoms: N_1  and  C_2
REMARK    2  A    between atoms: N_7  and  C_9
REMARK    3  A    between atoms: C_16  and  C_25
REMARK    4  A    between atoms: N_18  and  C_19
REMARK    5  A    between atoms: C_25  and  O_26
REMARK                            x       y       z     vdW  Elec       q    Type
REMARK                         _______ _______ _______ _____ _____    ______ ____
ROOT
ATOM      1  C   UNL     1      -7.489   0.055 129.014  0.00  0.00    +0.000 A 
ATOM      2  C   UNL     1      -7.848   1.396 128.780  0.00  0.00    +0.000 A 
ATOM      3  F   UNL     1      -7.703   2.326 129.731  0.00  0.00    +0.000 F 
ATOM      4  C   UNL     1      -8.315   1.849 127.561  0.00  0.00    +0.000 A 
ATOM      5  C   UNL     1      -8.455   0.962 126.498  0.00  0.00    +0.000 A 
ATOM      6  C   UNL     1      -8.991   1.519 125.230  0.00  0.00    +0.000 A 
ATOM      7  O   UNL     1      -9.261   2.714 125.184  0.00  0.00    +0.000 OA
ATOM      8  C   UNL     1      -9.184   0.610 124.071  0.00  0.00    +0.000 A 
ATOM      9  C   UNL     1      -8.838  -0.668 124.299  0.00  0.00    +0.000 A 
ATOM     10  N   UNL     1      -8.330  -1.229 125.465  0.00  0.00    +0.000 N 
ATOM     11  C   UNL     1      -8.110  -0.403 126.625  0.00  0.00    +0.000 A 
ATOM     12  C   UNL     1      -7.602  -0.832 127.904  0.00  0.00    +0.000 A 
ATOM     13 CL   UNL     1      -7.126  -2.489 128.235  0.00  0.00    +0.000 Cl
ENDROOT
BRANCH   1  19
ATOM     14  C   UNL     1      -5.443   0.824 131.722  0.00  0.00    +0.000 C 
ATOM     15  C   UNL     1      -6.374   0.741 132.943  0.00  0.00    +0.000 C 
ATOM     16  C   UNL     1      -7.797   1.172 132.580  0.00  0.00    +0.000 C 
ATOM     17  C   UNL     1      -8.700   0.022 132.123  0.00  0.00    +0.000 C 
ATOM     18  C   UNL     1      -8.037  -0.989 131.196  0.00  0.00    +0.000 C 
ATOM     19  N   UNL     1      -7.084  -0.362 130.281  0.00  0.00    +0.000 N 
ATOM     20  C   UNL     1      -5.685  -0.328 130.730  0.00  0.00    +0.000 C 
BRANCH  14  21
ATOM     21  N   UNL     1      -4.043   0.811 132.175  0.00  0.00    +0.000 NA
ATOM     22  H   UNL     1      -3.615   1.705 131.939  0.00  0.00    +0.000 HD
ATOM     23  H   UNL     1      -3.530   0.105 131.646  0.00  0.00    +0.000 HD
ENDBRANCH  14  21
ENDBRANCH   1  19
BRANCH  10  24
ATOM     24  C   UNL     1      -8.138  -2.691 125.520  0.00  0.00    +0.000 C 
ATOM     25  C   UNL     1      -8.456  -3.746 124.513  0.00  0.00    +0.000 C 
ATOM     26  C   UNL     1      -7.027  -3.343 124.729  0.00  0.00    +0.000 C 
ENDBRANCH  10  24
BRANCH   8  27
ATOM     27  C   UNL     1      -9.724   1.131 122.785  0.00  0.00    +0.000 C 
ATOM     28  O   UNL     1     -10.506   0.511 122.074  0.00  0.00    +0.000 OA
BRANCH  27  29
ATOM     29  O   UNL     1      -9.317   2.359 122.399  0.00  0.00    +0.000 OA
ATOM     30  H   UNL     1      -9.384   2.621 121.470  0.00  0.00    +0.000 HD
ENDBRANCH  27  29
ENDBRANCH   8  27
TORSDOF 5
ENDMDL
MODEL 7
REMARK VINA RESULT:      -6.7      4.916      6.809
REMARK  Name = Besifloxacin
REMARK  5 active torsions:
REMARK  status: ('A' for Active; 'I' for Inactive)
REMARK    1  A    between atoms: N_1  and  C_2
REMARK    2  A    between atoms: N_7  and  C_9
REMARK    3  A    between atoms: C_16  and  C_25
REMARK    4  A    between atoms: N_18  and  C_19
REMARK    5  A    between atoms: C_25  and  O_26
REMARK                            x       y       z     vdW  Elec       q    Type
REMARK                         _______ _______ _______ _____ _____    ______ ____
ROOT
ATOM      1  C   UNL     1      -6.094  -0.367 126.407  0.00  0.00    +0.000 A 
ATOM      2  C   UNL     1      -6.074   0.579 125.365  0.00  0.00    +0.000 A 
ATOM      3  F   UNL     1      -6.568   0.287 124.157  0.00  0.00    +0.000 F 
ATOM      4  C   UNL     1      -5.602   1.869 125.526  0.00  0.00    +0.000 A 
ATOM      5  C   UNL     1      -5.110   2.278 126.762  0.00  0.00    +0.000 A 
ATOM      6  C   UNL     1      -4.594   3.667 126.847  0.00  0.00    +0.000 A 
ATOM      7  O   UNL     1      -4.643   4.373 125.846  0.00  0.00    +0.000 OA
ATOM      8  C   UNL     1      -4.034   4.148 128.137  0.00  0.00    +0.000 A 
ATOM      9  C   UNL     1      -4.057   3.242 129.128  0.00  0.00    +0.000 A 
ATOM     10  N   UNL     1      -4.534   1.936 129.093  0.00  0.00    +0.000 N 
ATOM     11  C   UNL     1      -5.098   1.408 127.876  0.00  0.00    +0.000 A 
ATOM     12  C   UNL     1      -5.622   0.081 127.675  0.00  0.00    +0.000 A 
ATOM     13 CL   UNL     1      -5.682  -1.125 128.950  0.00  0.00    +0.000 Cl
ENDROOT
BRANCH   1  19
ATOM     14  C   UNL     1      -8.719  -2.308 125.202  0.00  0.00    +0.000 C 
ATOM     15  C   UNL     1      -8.058  -3.267 124.198  0.00  0.00    +0.000 C 
ATOM     16  C   UNL     1      -6.873  -2.599 123.496  0.00  0.00    +0.000 C 
ATOM     17  C   UNL     1      -5.530  -2.808 124.204  0.00  0.00    +0.000 C 
ATOM     18  C   UNL     1      -5.576  -2.694 125.722  0.00  0.00    +0.000 C 
ATOM     19  N   UNL     1      -6.521  -1.673 126.174  0.00  0.00    +0.000 N 
ATOM     20  C   UNL     1      -7.879  -2.142 126.481  0.00  0.00    +0.000 C 
BRANCH  14  21
ATOM     21  N   UNL     1     -10.060  -2.807 125.542  0.00  0.00    +0.000 NA
ATOM     22  H   UNL     1     -10.045  -3.826 125.524  0.00  0.00    +0.000 HD
ATOM     23  H   UNL     1     -10.714  -2.522 124.813  0.00  0.00    +0.000 HD
ENDBRANCH  14  21
ENDBRANCH   1  19
BRANCH  10  24
ATOM     24  C   UNL     1      -4.340   1.081 130.280  0.00  0.00    +0.000 C 
ATOM     25  C   UNL     1      -3.889   1.430 131.659  0.00  0.00    +0.000 C 
ATOM     26  C   UNL     1      -5.337   1.120 131.416  0.00  0.00    +0.000 C 
ENDBRANCH  10  24
BRANCH   8  27
ATOM     27  C   UNL     1      -3.502   5.533 128.260  0.00  0.00    +0.000 C 
ATOM     28  O   UNL     1      -2.405   5.801 128.734  0.00  0.00    +0.000 OA
BRANCH  27  29
ATOM     29  O   UNL     1      -4.289   6.536 127.816  0.00  0.00    +0.000 OA
ATOM     30  H   UNL     1      -5.204   6.606 128.123  0.00  0.00    +0.000 HD
ENDBRANCH  27  29
ENDBRANCH   8  27
TORSDOF 5
ENDMDL
MODEL 8
REMARK VINA RESULT:      -6.6      4.215      5.958
REMARK  Name = Besifloxacin
REMARK  5 active torsions:
REMARK  status: ('A' for Active; 'I' for Inactive)
REMARK    1  A    between atoms: N_1  and  C_2
REMARK    2  A    between atoms: N_7  and  C_9
REMARK    3  A    between atoms: C_16  and  C_25
REMARK    4  A    between atoms: N_18  and  C_19
REMARK    5  A    between atoms: C_25  and  O_26
REMARK                            x       y       z     vdW  Elec       q    Type
REMARK                         _______ _______ _______ _____ _____    ______ ____
ROOT
ATOM      1  C   UNL     1      -6.551   0.172 130.196  0.00  0.00    +0.000 A 
ATOM      2  C   UNL     1      -7.917   0.294 130.512  0.00  0.00    +0.000 A 
ATOM      3  F   UNL     1      -8.689  -0.788 130.664  0.00  0.00    +0.000 F 
ATOM      4  C   UNL     1      -8.533   1.510 130.739  0.00  0.00    +0.000 A 
ATOM      5  C   UNL     1      -7.798   2.688 130.649  0.00  0.00    +0.000 A 
ATOM      6  C   UNL     1      -8.538   3.955 130.876  0.00  0.00    +0.000 A 
ATOM      7  O   UNL     1      -9.734   3.895 131.143  0.00  0.00    +0.000 OA
ATOM      8  C   UNL     1      -7.806   5.243 130.768  0.00  0.00    +0.000 A 
ATOM      9  C   UNL     1      -6.503   5.122 130.467  0.00  0.00    +0.000 A 
ATOM     10  N   UNL     1      -5.771   3.960 130.251  0.00  0.00    +0.000 N 
ATOM     11  C   UNL     1      -6.417   2.675 130.349  0.00  0.00    +0.000 A 
ATOM     12  C   UNL     1      -5.804   1.386 130.146  0.00  0.00    +0.000 A 
ATOM     13 CL   UNL     1      -4.101   1.188 129.766  0.00  0.00    +0.000 Cl
ENDROOT
BRANCH   1  19
ATOM     14  C   UNL     1      -6.346  -3.136 131.255  0.00  0.00    +0.000 C 
ATOM     15  C   UNL     1      -6.668  -3.962 129.999  0.00  0.00    +0.000 C 
ATOM     16  C   UNL     1      -7.674  -3.234 129.104  0.00  0.00    +0.000 C 
ATOM     17  C   UNL     1      -7.029  -2.334 128.045  0.00  0.00    +0.000 C 
ATOM     18  C   UNL     1      -5.835  -1.521 128.531  0.00  0.00    +0.000 C 
ATOM     19  N   UNL     1      -5.993  -1.074 129.914  0.00  0.00    +0.000 N 
ATOM     20  C   UNL     1      -5.418  -1.949 130.945  0.00  0.00    +0.000 C 
BRANCH  14  21
ATOM     21  N   UNL     1      -5.728  -4.007 132.267  0.00  0.00    +0.000 NA
ATOM     22  H   UNL     1      -6.243  -3.910 133.141  0.00  0.00    +0.000 HD
ATOM     23  H   UNL     1      -4.783  -3.673 132.458  0.00  0.00    +0.000 HD
ENDBRANCH  14  21
ENDBRANCH   1  19
BRANCH  10  24
ATOM     24  C   UNL     1      -4.369   4.079 129.809  0.00  0.00    +0.000 C 
ATOM     25  C   UNL     1      -3.528   5.291 129.580  0.00  0.00    +0.000 C 
ATOM     26  C   UNL     1      -3.289   4.450 130.799  0.00  0.00    +0.000 C 
ENDBRANCH  10  24
BRANCH   8  27
ATOM     27  C   UNL     1      -8.516   6.535 130.984  0.00  0.00    +0.000 C 
ATOM     28  O   UNL     1      -8.407   7.503 130.241  0.00  0.00    +0.000 OA
BRANCH  27  29
ATOM     29  O   UNL     1      -9.321   6.622 132.064  0.00  0.00    +0.000 OA
ATOM     30  H   UNL     1      -9.271   5.951 132.760  0.00  0.00    +0.000 HD
ENDBRANCH  27  29
ENDBRANCH   8  27
TORSDOF 5
ENDMDL
MODEL 9
REMARK VINA RESULT:      -6.5      4.908      6.099
REMARK  Name = Besifloxacin
REMARK  5 active torsions:
REMARK  status: ('A' for Active; 'I' for Inactive)
REMARK    1  A    between atoms: N_1  and  C_2
REMARK    2  A    between atoms: N_7  and  C_9
REMARK    3  A    between atoms: C_16  and  C_25
REMARK    4  A    between atoms: N_18  and  C_19
REMARK    5  A    between atoms: C_25  and  O_26
REMARK                            x       y       z     vdW  Elec       q    Type
REMARK                         _______ _______ _______ _____ _____    ______ ____
ROOT
ATOM      1  C   UNL     1      -6.306  -1.092 127.963  0.00  0.00    +0.000 A 
ATOM      2  C   UNL     1      -5.632   0.134 128.121  0.00  0.00    +0.000 A 
ATOM      3  F   UNL     1      -4.902   0.385 129.214  0.00  0.00    +0.000 F 
ATOM      4  C   UNL     1      -5.631   1.124 127.157  0.00  0.00    +0.000 A 
ATOM      5  C   UNL     1      -6.326   0.934 125.967  0.00  0.00    +0.000 A 
ATOM      6  C   UNL     1      -6.302   2.055 124.993  0.00  0.00    +0.000 A 
ATOM      7  O   UNL     1      -5.669   3.065 125.279  0.00  0.00    +0.000 OA
ATOM      8  C   UNL     1      -7.049   1.913 123.716  0.00  0.00    +0.000 A 
ATOM      9  C   UNL     1      -7.688   0.742 123.569  0.00  0.00    +0.000 A 
ATOM     10  N   UNL     1      -7.733  -0.334 124.450  0.00  0.00    +0.000 N 
ATOM     11  C   UNL     1      -7.024  -0.267 125.703  0.00  0.00    +0.000 A 
ATOM     12  C   UNL     1      -6.980  -1.286 126.722  0.00  0.00    +0.000 A 
ATOM     13 CL   UNL     1      -7.791  -2.835 126.559  0.00  0.00    +0.000 Cl
ENDROOT
BRANCH   1  19
ATOM     14  C   UNL     1      -4.420  -2.544 130.501  0.00  0.00    +0.000 C 
ATOM     15  C   UNL     1      -5.309  -2.434 131.751  0.00  0.00    +0.000 C 
ATOM     16  C   UNL     1      -6.164  -1.165 131.709  0.00  0.00    +0.000 C 
ATOM     17  C   UNL     1      -7.534  -1.359 131.053  0.00  0.00    +0.000 C 
ATOM     18  C   UNL     1      -7.533  -2.222 129.798  0.00  0.00    +0.000 C 
ATOM     19  N   UNL     1      -6.327  -2.030 128.994  0.00  0.00    +0.000 N 
ATOM     20  C   UNL     1      -5.221  -2.961 129.256  0.00  0.00    +0.000 C 
BRANCH  14  21
ATOM     21  N   UNL     1      -3.341  -3.513 130.753  0.00  0.00    +0.000 NA
ATOM     22  H   UNL     1      -3.562  -4.381 130.266  0.00  0.00    +0.000 HD
ATOM     23  H   UNL     1      -3.329  -3.743 131.747  0.00  0.00    +0.000 HD
ENDBRANCH  14  21
ENDBRANCH   1  19
BRANCH  10  24
ATOM     24  C   UNL     1      -8.608  -1.476 124.126  0.00  0.00    +0.000 C 
ATOM     25  C   UNL     1      -9.400  -1.768 122.895  0.00  0.00    +0.000 C 
ATOM     26  C   UNL     1      -8.141  -2.541 123.160  0.00  0.00    +0.000 C 
ENDBRANCH  10  24
BRANCH   8  27
ATOM     27  C   UNL     1      -7.053   3.019 122.718  0.00  0.00    +0.000 C 
ATOM     28  O   UNL     1      -6.103   3.282 121.990  0.00  0.00    +0.000 OA
BRANCH  27  29
ATOM     29  O   UNL     1      -8.177   3.761 122.625  0.00  0.00    +0.000 OA
ATOM     30  H   UNL     1      -8.978   3.486 123.094  0.00  0.00    +0.000 HD
ENDBRANCH  27  29
ENDBRANCH   8  27
TORSDOF 5
ENDMDL
