MODEL 1
REMARK VINA RESULT:      -9.1      0.000      0.000
REMARK  Name = Beta carotene
REMARK  20 active torsions:
REMARK  status: ('A' for Active; 'I' for Inactive)
REMARK    1  A    between atoms: C_1  and  C_2
REMARK    2  A    between atoms: C_2  and  C_3
REMARK    3  A    between atoms: C_4  and  C_5
REMARK    4  A    between atoms: C_6  and  C_7
REMARK    5  A    between atoms: C_6  and  C_8
REMARK    6  A    between atoms: C_9  and  C_10
REMARK    7  A    between atoms: C_11  and  C_12
REMARK    8  A    between atoms: C_16  and  C_17
REMARK    9  A    between atoms: C_16  and  C_18
REMARK   10  A    between atoms: C_19  and  C_20
REMARK   11  A    between atoms: C_21  and  C_22
REMARK   12  A    between atoms: C_23  and  C_24
REMARK   13  A    between atoms: C_23  and  C_25
REMARK   14  A    between atoms: C_26  and  C_27
REMARK   15  A    between atoms: C_28  and  C_29
REMARK   16  A    between atoms: C_28  and  C_30
REMARK   17  A    between atoms: C_31  and  C_32
REMARK   18  A    between atoms: C_33  and  C_34
REMARK   19  A    between atoms: C_38  and  C_39
REMARK   20  A    between atoms: C_38  and  C_40
REMARK                            x       y       z     vdW  Elec       q    Type
REMARK                         _______ _______ _______ _____ _____    ______ ____
ROOT
ATOM      1  C   UNL     1      -7.808   4.851 134.437  0.00  0.00    +0.000 C 
ATOM      2  C   UNL     1      -8.640   3.826 134.194  0.00  0.00    +0.000 C 
ENDROOT
BRANCH   1   5
ATOM      3  C   UNL     1      -5.879   5.034 136.582  0.00  0.00    +0.000 C 
ATOM      4  C   UNL     1      -7.120   5.906 136.575  0.00  0.00    +0.000 C 
ATOM      5  C   UNL     1      -7.990   5.782 135.546  0.00  0.00    +0.000 C 
BRANCH   4   6
ATOM      6  C   UNL     1      -7.366   6.870 137.664  0.00  0.00    +0.000 C 
ATOM      7  C   UNL     1      -7.990   8.048 137.492  0.00  0.00    +0.000 C 
BRANCH   7   8
ATOM      8  C   UNL     1      -8.329   9.060 138.474  0.00  0.00    +0.000 C 
ATOM      9  C   UNL     1      -9.594   9.508 138.694  0.00  0.00    +0.000 C 
ATOM     10  C   UNL     1     -10.801   9.057 137.902  0.00  0.00    +0.000 C 
BRANCH   9  11
ATOM     11  C   UNL     1      -9.858  10.510 139.735  0.00  0.00    +0.000 C 
ATOM     12  C   UNL     1      -8.978  11.407 140.233  0.00  0.00    +0.000 C 
BRANCH  12  13
ATOM     13  C   UNL     1      -9.222  12.263 141.404  0.00  0.00    +0.000 C 
ATOM     14  C   UNL     1      -9.119  11.761 142.662  0.00  0.00    +0.000 C 
ATOM     15  C   UNL     1      -8.668  10.360 143.013  0.00  0.00    +0.000 C 
ATOM     16  C   UNL     1      -9.423  12.570 143.902  0.00  0.00    +0.000 C 
ATOM     17  C   UNL     1     -10.096  13.908 143.638  0.00  0.00    +0.000 C 
ATOM     18  C   UNL     1      -9.411  14.603 142.475  0.00  0.00    +0.000 C 
ATOM     19  C   UNL     1      -9.505  13.775 141.157  0.00  0.00    +0.000 C 
ATOM     20  C   UNL     1      -8.492  14.426 140.184  0.00  0.00    +0.000 C 
ATOM     21  C   UNL     1     -10.919  13.956 140.569  0.00  0.00    +0.000 C 
ENDBRANCH  12  13
ENDBRANCH   9  11
ENDBRANCH   7   8
ENDBRANCH   4   6
ENDBRANCH   1   5
BRANCH   2  22
ATOM     22  C   UNL     1      -8.484   2.879 133.100  0.00  0.00    +0.000 C 
ATOM     23  C   UNL     1      -7.513   1.940 133.022  0.00  0.00    +0.000 C 
ATOM     24  C   UNL     1      -6.463   1.778 134.104  0.00  0.00    +0.000 C 
BRANCH  23  25
ATOM     25  C   UNL     1      -7.436   1.017 131.866  0.00  0.00    +0.000 C 
ATOM     26  C   UNL     1      -8.059   1.245 130.694  0.00  0.00    +0.000 C 
BRANCH  26  27
ATOM     27  C   UNL     1      -8.044   0.433 129.487  0.00  0.00    +0.000 C 
ATOM     28  C   UNL     1      -7.787   0.910 128.243  0.00  0.00    +0.000 C 
ATOM     29  C   UNL     1      -7.513   2.367 127.945  0.00  0.00    +0.000 C 
BRANCH  28  30
ATOM     30  C   UNL     1      -7.769   0.008 127.078  0.00  0.00    +0.000 C 
ATOM     31  C   UNL     1      -8.782  -0.194 126.207  0.00  0.00    +0.000 C 
BRANCH  31  32
ATOM     32  C   UNL     1      -8.774  -1.159 125.097  0.00  0.00    +0.000 C 
ATOM     33  C   UNL     1      -8.900  -2.493 125.315  0.00  0.00    +0.000 C 
ATOM     34  C   UNL     1      -9.183  -3.134 126.653  0.00  0.00    +0.000 C 
ATOM     35  C   UNL     1      -8.791  -3.522 124.209  0.00  0.00    +0.000 C 
ATOM     36  C   UNL     1      -8.272  -2.977 122.888  0.00  0.00    +0.000 C 
ATOM     37  C   UNL     1      -8.961  -1.662 122.572  0.00  0.00    +0.000 C 
ATOM     38  C   UNL     1      -8.680  -0.579 123.657  0.00  0.00    +0.000 C 
ATOM     39  C   UNL     1      -9.707   0.549 123.396  0.00  0.00    +0.000 C 
ATOM     40  C   UNL     1      -7.265  -0.008 123.428  0.00  0.00    +0.000 C 
ENDBRANCH  31  32
ENDBRANCH  28  30
ENDBRANCH  26  27
ENDBRANCH  23  25
ENDBRANCH   2  22
TORSDOF 10
ENDMDL
MODEL 2
REMARK VINA RESULT:      -9.0      0.473      1.552
REMARK  Name = Beta carotene
REMARK  20 active torsions:
REMARK  status: ('A' for Active; 'I' for Inactive)
REMARK    1  A    between atoms: C_1  and  C_2
REMARK    2  A    between atoms: C_2  and  C_3
REMARK    3  A    between atoms: C_4  and  C_5
REMARK    4  A    between atoms: C_6  and  C_7
REMARK    5  A    between atoms: C_6  and  C_8
REMARK    6  A    between atoms: C_9  and  C_10
REMARK    7  A    between atoms: C_11  and  C_12
REMARK    8  A    between atoms: C_16  and  C_17
REMARK    9  A    between atoms: C_16  and  C_18
REMARK   10  A    between atoms: C_19  and  C_20
REMARK   11  A    between atoms: C_21  and  C_22
REMARK   12  A    between atoms: C_23  and  C_24
REMARK   13  A    between atoms: C_23  and  C_25
REMARK   14  A    between atoms: C_26  and  C_27
REMARK   15  A    between atoms: C_28  and  C_29
REMARK   16  A    between atoms: C_28  and  C_30
REMARK   17  A    between atoms: C_31  and  C_32
REMARK   18  A    between atoms: C_33  and  C_34
REMARK   19  A    between atoms: C_38  and  C_39
REMARK   20  A    between atoms: C_38  and  C_40
REMARK                            x       y       z     vdW  Elec       q    Type
REMARK                         _______ _______ _______ _____ _____    ______ ____
ROOT
ATOM      1  C   UNL     1      -7.691   4.882 134.500  0.00  0.00    +0.000 C 
ATOM      2  C   UNL     1      -8.533   3.874 134.224  0.00  0.00    +0.000 C 
ENDROOT
BRANCH   1   5
ATOM      3  C   UNL     1      -5.853   5.032 136.726  0.00  0.00    +0.000 C 
ATOM      4  C   UNL     1      -7.073   5.930 136.663  0.00  0.00    +0.000 C 
ATOM      5  C   UNL     1      -7.900   5.821 135.597  0.00  0.00    +0.000 C 
BRANCH   4   6
ATOM      6  C   UNL     1      -7.345   6.903 137.737  0.00  0.00    +0.000 C 
ATOM      7  C   UNL     1      -7.974   8.075 137.542  0.00  0.00    +0.000 C 
BRANCH   7   8
ATOM      8  C   UNL     1      -8.338   9.095 138.507  0.00  0.00    +0.000 C 
ATOM      9  C   UNL     1      -9.611   9.526 138.710  0.00  0.00    +0.000 C 
ATOM     10  C   UNL     1     -10.804   9.045 137.914  0.00  0.00    +0.000 C 
BRANCH   9  11
ATOM     11  C   UNL     1      -9.900  10.538 139.735  0.00  0.00    +0.000 C 
ATOM     12  C   UNL     1      -9.084  11.539 140.132  0.00  0.00    +0.000 C 
BRANCH  12  13
ATOM     13  C   UNL     1      -9.328  12.413 141.290  0.00  0.00    +0.000 C 
ATOM     14  C   UNL     1     -10.185  13.463 141.196  0.00  0.00    +0.000 C 
ATOM     15  C   UNL     1     -11.032  13.799 139.989  0.00  0.00    +0.000 C 
ATOM     16  C   UNL     1     -10.425  14.436 142.328  0.00  0.00    +0.000 C 
ATOM     17  C   UNL     1      -9.455  14.309 143.491  0.00  0.00    +0.000 C 
ATOM     18  C   UNL     1      -9.256  12.843 143.834  0.00  0.00    +0.000 C 
ATOM     19  C   UNL     1      -8.651  12.039 142.643  0.00  0.00    +0.000 C 
ATOM     20  C   UNL     1      -8.831  10.547 143.014  0.00  0.00    +0.000 C 
ATOM     21  C   UNL     1      -7.140  12.337 142.573  0.00  0.00    +0.000 C 
ENDBRANCH  12  13
ENDBRANCH   9  11
ENDBRANCH   7   8
ENDBRANCH   4   6
ENDBRANCH   1   5
BRANCH   2  22
ATOM     22  C   UNL     1      -8.351   2.919 133.140  0.00  0.00    +0.000 C 
ATOM     23  C   UNL     1      -7.389   1.968 133.101  0.00  0.00    +0.000 C 
ATOM     24  C   UNL     1      -6.380   1.799 134.221  0.00  0.00    +0.000 C 
BRANCH  23  25
ATOM     25  C   UNL     1      -7.283   1.039 131.953  0.00  0.00    +0.000 C 
ATOM     26  C   UNL     1      -7.842   1.280 130.752  0.00  0.00    +0.000 C 
BRANCH  26  27
ATOM     27  C   UNL     1      -7.792   0.462 129.549  0.00  0.00    +0.000 C 
ATOM     28  C   UNL     1      -7.945   0.940 128.288  0.00  0.00    +0.000 C 
ATOM     29  C   UNL     1      -8.222   2.393 127.970  0.00  0.00    +0.000 C 
BRANCH  28  30
ATOM     30  C   UNL     1      -7.855   0.041 127.124  0.00  0.00    +0.000 C 
ATOM     31  C   UNL     1      -8.843  -0.225 126.241  0.00  0.00    +0.000 C 
BRANCH  31  32
ATOM     32  C   UNL     1      -8.759  -1.188 125.132  0.00  0.00    +0.000 C 
ATOM     33  C   UNL     1      -8.876  -2.524 125.342  0.00  0.00    +0.000 C 
ATOM     34  C   UNL     1      -9.219  -3.172 126.662  0.00  0.00    +0.000 C 
ATOM     35  C   UNL     1      -8.690  -3.549 124.243  0.00  0.00    +0.000 C 
ATOM     36  C   UNL     1      -8.110  -2.994 122.952  0.00  0.00    +0.000 C 
ATOM     37  C   UNL     1      -8.803  -1.690 122.600  0.00  0.00    +0.000 C 
ATOM     38  C   UNL     1      -8.598  -0.604 123.699  0.00  0.00    +0.000 C 
ATOM     39  C   UNL     1      -9.628   0.508 123.385  0.00  0.00    +0.000 C 
ATOM     40  C   UNL     1      -7.182  -0.010 123.547  0.00  0.00    +0.000 C 
ENDBRANCH  31  32
ENDBRANCH  28  30
ENDBRANCH  26  27
ENDBRANCH  23  25
ENDBRANCH   2  22
TORSDOF 10
ENDMDL
MODEL 3
REMARK VINA RESULT:      -8.9      0.771     17.647
REMARK  Name = Beta carotene
REMARK  20 active torsions:
REMARK  status: ('A' for Active; 'I' for Inactive)
REMARK    1  A    between atoms: C_1  and  C_2
REMARK    2  A    between atoms: C_2  and  C_3
REMARK    3  A    between atoms: C_4  and  C_5
REMARK    4  A    between atoms: C_6  and  C_7
REMARK    5  A    between atoms: C_6  and  C_8
REMARK    6  A    between atoms: C_9  and  C_10
REMARK    7  A    between atoms: C_11  and  C_12
REMARK    8  A    between atoms: C_16  and  C_17
REMARK    9  A    between atoms: C_16  and  C_18
REMARK   10  A    between atoms: C_19  and  C_20
REMARK   11  A    between atoms: C_21  and  C_22
REMARK   12  A    between atoms: C_23  and  C_24
REMARK   13  A    between atoms: C_23  and  C_25
REMARK   14  A    between atoms: C_26  and  C_27
REMARK   15  A    between atoms: C_28  and  C_29
REMARK   16  A    between atoms: C_28  and  C_30
REMARK   17  A    between atoms: C_31  and  C_32
REMARK   18  A    between atoms: C_33  and  C_34
REMARK   19  A    between atoms: C_38  and  C_39
REMARK   20  A    between atoms: C_38  and  C_40
REMARK                            x       y       z     vdW  Elec       q    Type
REMARK                         _______ _______ _______ _____ _____    ______ ____
ROOT
ATOM      1  C   UNL     1      -8.554   3.829 134.221  0.00  0.00    +0.000 C 
ATOM      2  C   UNL     1      -8.034   5.062 134.331  0.00  0.00    +0.000 C 
ENDROOT
BRANCH   1   5
ATOM      3  C   UNL     1      -6.406   1.896 134.225  0.00  0.00    +0.000 C 
ATOM      4  C   UNL     1      -7.320   2.040 133.025  0.00  0.00    +0.000 C 
ATOM      5  C   UNL     1      -8.312   2.959 133.076  0.00  0.00    +0.000 C 
BRANCH   4   6
ATOM      6  C   UNL     1      -7.134   1.191 131.833  0.00  0.00    +0.000 C 
ATOM      7  C   UNL     1      -7.984   1.167 130.792  0.00  0.00    +0.000 C 
BRANCH   7   8
ATOM      8  C   UNL     1      -7.900   0.417 129.554  0.00  0.00    +0.000 C 
ATOM      9  C   UNL     1      -7.960   0.984 128.320  0.00  0.00    +0.000 C 
ATOM     10  C   UNL     1      -8.186   2.460 128.076  0.00  0.00    +0.000 C 
BRANCH   9  11
ATOM     11  C   UNL     1      -7.828   0.157 127.113  0.00  0.00    +0.000 C 
ATOM     12  C   UNL     1      -8.812  -0.162 126.243  0.00  0.00    +0.000 C 
BRANCH  12  13
ATOM     13  C   UNL     1      -8.687  -1.145 125.156  0.00  0.00    +0.000 C 
ATOM     14  C   UNL     1      -8.753  -2.476 125.416  0.00  0.00    +0.000 C 
ATOM     15  C   UNL     1      -9.045  -3.094 126.765  0.00  0.00    +0.000 C 
ATOM     16  C   UNL     1      -8.563  -3.535 124.354  0.00  0.00    +0.000 C 
ATOM     17  C   UNL     1      -8.044  -3.015 123.023  0.00  0.00    +0.000 C 
ATOM     18  C   UNL     1      -8.785  -1.744 122.647  0.00  0.00    +0.000 C 
ATOM     19  C   UNL     1      -8.575  -0.610 123.697  0.00  0.00    +0.000 C 
ATOM     20  C   UNL     1      -9.640   0.464 123.366  0.00  0.00    +0.000 C 
ATOM     21  C   UNL     1      -7.182   0.011 123.470  0.00  0.00    +0.000 C 
ENDBRANCH  12  13
ENDBRANCH   9  11
ENDBRANCH   7   8
ENDBRANCH   4   6
ENDBRANCH   1   5
BRANCH   2  22
ATOM     22  C   UNL     1      -8.254   5.952 135.462  0.00  0.00    +0.000 C 
ATOM     23  C   UNL     1      -7.423   6.072 136.524  0.00  0.00    +0.000 C 
ATOM     24  C   UNL     1      -6.144   5.267 136.639  0.00  0.00    +0.000 C 
BRANCH  23  25
ATOM     25  C   UNL     1      -7.732   7.009 137.629  0.00  0.00    +0.000 C 
ATOM     26  C   UNL     1      -8.302   8.214 137.440  0.00  0.00    +0.000 C 
BRANCH  26  27
ATOM     27  C   UNL     1      -8.671   9.207 138.438  0.00  0.00    +0.000 C 
ATOM     28  C   UNL     1      -7.848  10.190 138.885  0.00  0.00    +0.000 C 
ATOM     29  C   UNL     1      -6.417  10.357 138.425  0.00  0.00    +0.000 C 
BRANCH  28  30
ATOM     30  C   UNL     1      -8.314  11.170 139.882  0.00  0.00    +0.000 C 
ATOM     31  C   UNL     1      -9.551  11.709 139.955  0.00  0.00    +0.000 C 
BRANCH  31  32
ATOM     32  C   UNL     1      -9.973  12.748 140.907  0.00  0.00    +0.000 C 
ATOM     33  C   UNL     1     -10.305  12.444 142.188  0.00  0.00    +0.000 C 
ATOM     34  C   UNL     1     -10.170  11.081 142.823  0.00  0.00    +0.000 C 
ATOM     35  C   UNL     1     -10.844  13.469 143.164  0.00  0.00    +0.000 C 
ATOM     36  C   UNL     1     -11.232  14.798 142.535  0.00  0.00    +0.000 C 
ATOM     37  C   UNL     1     -10.152  15.238 141.563  0.00  0.00    +0.000 C 
ATOM     38  C   UNL     1      -9.961  14.218 140.400  0.00  0.00    +0.000 C 
ATOM     39  C   UNL     1      -8.626  14.606 139.720  0.00  0.00    +0.000 C 
ATOM     40  C   UNL     1     -11.100  14.415 139.379  0.00  0.00    +0.000 C 
ENDBRANCH  31  32
ENDBRANCH  28  30
ENDBRANCH  26  27
ENDBRANCH  23  25
ENDBRANCH   2  22
TORSDOF 10
ENDMDL
MODEL 4
REMARK VINA RESULT:      -8.8      1.554      2.213
REMARK  Name = Beta carotene
REMARK  20 active torsions:
REMARK  status: ('A' for Active; 'I' for Inactive)
REMARK    1  A    between atoms: C_1  and  C_2
REMARK    2  A    between atoms: C_2  and  C_3
REMARK    3  A    between atoms: C_4  and  C_5
REMARK    4  A    between atoms: C_6  and  C_7
REMARK    5  A    between atoms: C_6  and  C_8
REMARK    6  A    between atoms: C_9  and  C_10
REMARK    7  A    between atoms: C_11  and  C_12
REMARK    8  A    between atoms: C_16  and  C_17
REMARK    9  A    between atoms: C_16  and  C_18
REMARK   10  A    between atoms: C_19  and  C_20
REMARK   11  A    between atoms: C_21  and  C_22
REMARK   12  A    between atoms: C_23  and  C_24
REMARK   13  A    between atoms: C_23  and  C_25
REMARK   14  A    between atoms: C_26  and  C_27
REMARK   15  A    between atoms: C_28  and  C_29
REMARK   16  A    between atoms: C_28  and  C_30
REMARK   17  A    between atoms: C_31  and  C_32
REMARK   18  A    between atoms: C_33  and  C_34
REMARK   19  A    between atoms: C_38  and  C_39
REMARK   20  A    between atoms: C_38  and  C_40
REMARK                            x       y       z     vdW  Elec       q    Type
REMARK                         _______ _______ _______ _____ _____    ______ ____
ROOT
ATOM      1  C   UNL     1      -7.487   5.548 135.388  0.00  0.00    +0.000 C 
ATOM      2  C   UNL     1      -7.881   5.598 134.106  0.00  0.00    +0.000 C 
ENDROOT
BRANCH   1   5
ATOM      3  C   UNL     1      -6.102   5.874 137.904  0.00  0.00    +0.000 C 
ATOM      4  C   UNL     1      -7.365   6.658 137.604  0.00  0.00    +0.000 C 
ATOM      5  C   UNL     1      -7.973   6.469 136.409  0.00  0.00    +0.000 C 
BRANCH   4   6
ATOM      6  C   UNL     1      -7.911   7.608 138.591  0.00  0.00    +0.000 C 
ATOM      7  C   UNL     1      -8.004   8.933 138.381  0.00  0.00    +0.000 C 
BRANCH   7   8
ATOM      8  C   UNL     1      -8.553   9.963 139.242  0.00  0.00    +0.000 C 
ATOM      9  C   UNL     1      -7.904  11.118 139.549  0.00  0.00    +0.000 C 
ATOM     10  C   UNL     1      -6.504  11.451 139.084  0.00  0.00    +0.000 C 
BRANCH   9  11
ATOM     11  C   UNL     1      -8.546  12.129 140.400  0.00  0.00    +0.000 C 
ATOM     12  C   UNL     1      -9.748  12.711 140.193  0.00  0.00    +0.000 C 
BRANCH  12  13
ATOM     13  C   UNL     1     -10.272  13.853 140.958  0.00  0.00    +0.000 C 
ATOM     14  C   UNL     1     -10.690  13.694 142.240  0.00  0.00    +0.000 C 
ATOM     15  C   UNL     1     -10.589  12.416 143.044  0.00  0.00    +0.000 C 
ATOM     16  C   UNL     1     -11.300  14.811 143.055  0.00  0.00    +0.000 C 
ATOM     17  C   UNL     1     -11.647  16.060 142.260  0.00  0.00    +0.000 C 
ATOM     18  C   UNL     1     -10.507  16.398 141.316  0.00  0.00    +0.000 C 
ATOM     19  C   UNL     1     -10.240  15.258 140.286  0.00  0.00    +0.000 C 
ATOM     20  C   UNL     1      -8.870  15.589 139.646  0.00  0.00    +0.000 C 
ATOM     21  C   UNL     1     -11.316  15.338 139.184  0.00  0.00    +0.000 C 
ENDBRANCH  12  13
ENDBRANCH   9  11
ENDBRANCH   7   8
ENDBRANCH   4   6
ENDBRANCH   1   5
BRANCH   2  22
ATOM     22  C   UNL     1      -7.418   4.691 133.065  0.00  0.00    +0.000 C 
ATOM     23  C   UNL     1      -8.044   3.548 132.700  0.00  0.00    +0.000 C 
ATOM     24  C   UNL     1      -9.329   3.089 133.361  0.00  0.00    +0.000 C 
BRANCH  23  25
ATOM     25  C   UNL     1      -7.495   2.690 131.625  0.00  0.00    +0.000 C 
ATOM     26  C   UNL     1      -8.253   2.137 130.659  0.00  0.00    +0.000 C 
BRANCH  26  27
ATOM     27  C   UNL     1      -7.833   1.300 129.546  0.00  0.00    +0.000 C 
ATOM     28  C   UNL     1      -7.802  -0.057 129.573  0.00  0.00    +0.000 C 
ATOM     29  C   UNL     1      -8.173  -0.879 130.788  0.00  0.00    +0.000 C 
BRANCH  28  30
ATOM     30  C   UNL     1      -7.384  -0.826 128.388  0.00  0.00    +0.000 C 
ATOM     31  C   UNL     1      -7.932  -0.756 127.155  0.00  0.00    +0.000 C 
BRANCH  31  32
ATOM     32  C   UNL     1      -7.555  -1.592 126.005  0.00  0.00    +0.000 C 
ATOM     33  C   UNL     1      -8.070  -2.836 125.832  0.00  0.00    +0.000 C 
ATOM     34  C   UNL     1      -9.149  -3.459 126.685  0.00  0.00    +0.000 C 
ATOM     35  C   UNL     1      -7.626  -3.764 124.720  0.00  0.00    +0.000 C 
ATOM     36  C   UNL     1      -6.383  -3.306 123.974  0.00  0.00    +0.000 C 
ATOM     37  C   UNL     1      -6.490  -1.824 123.665  0.00  0.00    +0.000 C 
ATOM     38  C   UNL     1      -6.590  -0.962 124.960  0.00  0.00    +0.000 C 
ATOM     39  C   UNL     1      -7.045   0.441 124.493  0.00  0.00    +0.000 C 
ATOM     40  C   UNL     1      -5.182  -0.835 125.578  0.00  0.00    +0.000 C 
ENDBRANCH  31  32
ENDBRANCH  28  30
ENDBRANCH  26  27
ENDBRANCH  23  25
ENDBRANCH   2  22
TORSDOF 10
ENDMDL
MODEL 5
REMARK VINA RESULT:      -8.7      0.851      1.893
REMARK  Name = Beta carotene
REMARK  20 active torsions:
REMARK  status: ('A' for Active; 'I' for Inactive)
REMARK    1  A    between atoms: C_1  and  C_2
REMARK    2  A    between atoms: C_2  and  C_3
REMARK    3  A    between atoms: C_4  and  C_5
REMARK    4  A    between atoms: C_6  and  C_7
REMARK    5  A    between atoms: C_6  and  C_8
REMARK    6  A    between atoms: C_9  and  C_10
REMARK    7  A    between atoms: C_11  and  C_12
REMARK    8  A    between atoms: C_16  and  C_17
REMARK    9  A    between atoms: C_16  and  C_18
REMARK   10  A    between atoms: C_19  and  C_20
REMARK   11  A    between atoms: C_21  and  C_22
REMARK   12  A    between atoms: C_23  and  C_24
REMARK   13  A    between atoms: C_23  and  C_25
REMARK   14  A    between atoms: C_26  and  C_27
REMARK   15  A    between atoms: C_28  and  C_29
REMARK   16  A    between atoms: C_28  and  C_30
REMARK   17  A    between atoms: C_31  and  C_32
REMARK   18  A    between atoms: C_33  and  C_34
REMARK   19  A    between atoms: C_38  and  C_39
REMARK   20  A    between atoms: C_38  and  C_40
REMARK                            x       y       z     vdW  Elec       q    Type
REMARK                         _______ _______ _______ _____ _____    ______ ____
ROOT
ATOM      1  C   UNL     1      -8.050   5.157 134.381  0.00  0.00    +0.000 C 
ATOM      2  C   UNL     1      -8.806   4.063 134.200  0.00  0.00    +0.000 C 
ENDROOT
BRANCH   1   5
ATOM      3  C   UNL     1      -6.168   5.165 136.575  0.00  0.00    +0.000 C 
ATOM      4  C   UNL     1      -7.360   6.103 136.569  0.00  0.00    +0.000 C 
ATOM      5  C   UNL     1      -8.209   6.060 135.516  0.00  0.00    +0.000 C 
BRANCH   4   6
ATOM      6  C   UNL     1      -7.581   7.043 137.683  0.00  0.00    +0.000 C 
ATOM      7  C   UNL     1      -8.432   8.082 137.627  0.00  0.00    +0.000 C 
BRANCH   7   8
ATOM      8  C   UNL     1      -8.771   9.049 138.653  0.00  0.00    +0.000 C 
ATOM      9  C   UNL     1      -7.988  10.111 138.981  0.00  0.00    +0.000 C 
ATOM     10  C   UNL     1      -6.635  10.387 138.364  0.00  0.00    +0.000 C 
BRANCH   9  11
ATOM     11  C   UNL     1      -8.422  11.067 140.009  0.00  0.00    +0.000 C 
ATOM     12  C   UNL     1      -9.634  11.657 140.099  0.00  0.00    +0.000 C 
BRANCH  12  13
ATOM     13  C   UNL     1      -9.970  12.750 141.025  0.00  0.00    +0.000 C 
ATOM     14  C   UNL     1     -10.236  12.492 142.332  0.00  0.00    +0.000 C 
ATOM     15  C   UNL     1     -10.133  11.138 142.998  0.00  0.00    +0.000 C 
ATOM     16  C   UNL     1     -10.653  13.561 143.316  0.00  0.00    +0.000 C 
ATOM     17  C   UNL     1     -10.999  14.902 142.689  0.00  0.00    +0.000 C 
ATOM     18  C   UNL     1      -9.963  15.257 141.638  0.00  0.00    +0.000 C 
ATOM     19  C   UNL     1      -9.914  14.210 140.483  0.00  0.00    +0.000 C 
ATOM     20  C   UNL     1      -8.613  14.513 139.701  0.00  0.00    +0.000 C 
ATOM     21  C   UNL     1     -11.109  14.467 139.543  0.00  0.00    +0.000 C 
ENDBRANCH  12  13
ENDBRANCH   9  11
ENDBRANCH   7   8
ENDBRANCH   4   6
ENDBRANCH   1   5
BRANCH   2  22
ATOM     22  C   UNL     1      -8.670   3.141 133.081  0.00  0.00    +0.000 C 
ATOM     23  C   UNL     1      -7.692   2.213 132.959  0.00  0.00    +0.000 C 
ATOM     24  C   UNL     1      -6.614   2.037 134.011  0.00  0.00    +0.000 C 
BRANCH  23  25
ATOM     25  C   UNL     1      -7.637   1.317 131.781  0.00  0.00    +0.000 C 
ATOM     26  C   UNL     1      -8.036   1.687 130.549  0.00  0.00    +0.000 C 
BRANCH  26  27
ATOM     27  C   UNL     1      -8.012   0.912 129.318  0.00  0.00    +0.000 C 
ATOM     28  C   UNL     1      -7.793   1.434 128.085  0.00  0.00    +0.000 C 
ATOM     29  C   UNL     1      -7.577   2.909 127.826  0.00  0.00    +0.000 C 
BRANCH  28  30
ATOM     30  C   UNL     1      -7.762   0.569 126.893  0.00  0.00    +0.000 C 
ATOM     31  C   UNL     1      -8.796  -0.146 126.396  0.00  0.00    +0.000 C 
BRANCH  31  32
ATOM     32  C   UNL     1      -8.724  -1.068 125.253  0.00  0.00    +0.000 C 
ATOM     33  C   UNL     1      -8.987  -0.652 123.988  0.00  0.00    +0.000 C 
ATOM     34  C   UNL     1      -9.254   0.777 123.578  0.00  0.00    +0.000 C 
ATOM     35  C   UNL     1      -9.026  -1.595 122.802  0.00  0.00    +0.000 C 
ATOM     36  C   UNL     1      -9.008  -3.070 123.167  0.00  0.00    +0.000 C 
ATOM     37  C   UNL     1      -7.963  -3.318 124.241  0.00  0.00    +0.000 C 
ATOM     38  C   UNL     1      -8.269  -2.526 125.548  0.00  0.00    +0.000 C 
ATOM     39  C   UNL     1      -6.970  -2.590 126.388  0.00  0.00    +0.000 C 
ATOM     40  C   UNL     1      -9.383  -3.261 126.321  0.00  0.00    +0.000 C 
ENDBRANCH  31  32
ENDBRANCH  28  30
ENDBRANCH  26  27
ENDBRANCH  23  25
ENDBRANCH   2  22
TORSDOF 10
ENDMDL
MODEL 6
REMARK VINA RESULT:      -8.3      1.356     17.773
REMARK  Name = Beta carotene
REMARK  20 active torsions:
REMARK  status: ('A' for Active; 'I' for Inactive)
REMARK    1  A    between atoms: C_1  and  C_2
REMARK    2  A    between atoms: C_2  and  C_3
REMARK    3  A    between atoms: C_4  and  C_5
REMARK    4  A    between atoms: C_6  and  C_7
REMARK    5  A    between atoms: C_6  and  C_8
REMARK    6  A    between atoms: C_9  and  C_10
REMARK    7  A    between atoms: C_11  and  C_12
REMARK    8  A    between atoms: C_16  and  C_17
REMARK    9  A    between atoms: C_16  and  C_18
REMARK   10  A    between atoms: C_19  and  C_20
REMARK   11  A    between atoms: C_21  and  C_22
REMARK   12  A    between atoms: C_23  and  C_24
REMARK   13  A    between atoms: C_23  and  C_25
REMARK   14  A    between atoms: C_26  and  C_27
REMARK   15  A    between atoms: C_28  and  C_29
REMARK   16  A    between atoms: C_28  and  C_30
REMARK   17  A    between atoms: C_31  and  C_32
REMARK   18  A    between atoms: C_33  and  C_34
REMARK   19  A    between atoms: C_38  and  C_39
REMARK   20  A    between atoms: C_38  and  C_40
REMARK                            x       y       z     vdW  Elec       q    Type
REMARK                         _______ _______ _______ _____ _____    ______ ____
ROOT
ATOM      1  C   UNL     1      -8.029   5.228 133.649  0.00  0.00    +0.000 C 
ATOM      2  C   UNL     1      -7.708   4.979 134.928  0.00  0.00    +0.000 C 
ENDROOT
BRANCH   1   5
ATOM      3  C   UNL     1      -7.723   6.057 130.897  0.00  0.00    +0.000 C 
ATOM      4  C   UNL     1      -7.707   4.589 131.273  0.00  0.00    +0.000 C 
ATOM      5  C   UNL     1      -7.852   4.255 132.577  0.00  0.00    +0.000 C 
BRANCH   4   6
ATOM      6  C   UNL     1      -7.530   3.551 130.240  0.00  0.00    +0.000 C 
ATOM      7  C   UNL     1      -8.548   2.957 129.594  0.00  0.00    +0.000 C 
BRANCH   7   8
ATOM      8  C   UNL     1      -8.513   1.962 128.540  0.00  0.00    +0.000 C 
ATOM      9  C   UNL     1      -8.058   2.207 127.282  0.00  0.00    +0.000 C 
ATOM     10  C   UNL     1      -7.590   3.563 126.801  0.00  0.00    +0.000 C 
BRANCH   9  11
ATOM     11  C   UNL     1      -8.020   1.132 126.282  0.00  0.00    +0.000 C 
ATOM     12  C   UNL     1      -8.849   0.067 126.212  0.00  0.00    +0.000 C 
BRANCH  12  13
ATOM     13  C   UNL     1      -8.663  -1.085 125.315  0.00  0.00    +0.000 C 
ATOM     14  C   UNL     1      -8.985  -0.995 123.999  0.00  0.00    +0.000 C 
ATOM     15  C   UNL     1      -9.457   0.257 123.294  0.00  0.00    +0.000 C 
ATOM     16  C   UNL     1      -8.881  -2.162 123.042  0.00  0.00    +0.000 C 
ATOM     17  C   UNL     1      -8.634  -3.507 123.706  0.00  0.00    +0.000 C 
ATOM     18  C   UNL     1      -7.570  -3.360 124.778  0.00  0.00    +0.000 C 
ATOM     19  C   UNL     1      -8.000  -2.367 125.901  0.00  0.00    +0.000 C 
ATOM     20  C   UNL     1      -6.713  -2.066 126.706  0.00  0.00    +0.000 C 
ATOM     21  C   UNL     1      -8.991  -3.090 126.835  0.00  0.00    +0.000 C 
ENDBRANCH  12  13
ENDBRANCH   9  11
ENDBRANCH   7   8
ENDBRANCH   4   6
ENDBRANCH   1   5
BRANCH   2  22
ATOM     22  C   UNL     1      -7.876   5.927 136.021  0.00  0.00    +0.000 C 
ATOM     23  C   UNL     1      -6.965   6.150 136.997  0.00  0.00    +0.000 C 
ATOM     24  C   UNL     1      -5.641   5.412 137.046  0.00  0.00    +0.000 C 
BRANCH  23  25
ATOM     25  C   UNL     1      -7.226   7.138 138.069  0.00  0.00    +0.000 C 
ATOM     26  C   UNL     1      -7.497   8.435 137.830  0.00  0.00    +0.000 C 
BRANCH  26  27
ATOM     27  C   UNL     1      -7.789   9.491 138.788  0.00  0.00    +0.000 C 
ATOM     28  C   UNL     1      -9.020  10.027 138.990  0.00  0.00    +0.000 C 
ATOM     29  C   UNL     1     -10.251   9.615 138.213  0.00  0.00    +0.000 C 
BRANCH  28  30
ATOM     30  C   UNL     1      -9.229  11.079 140.000  0.00  0.00    +0.000 C 
ATOM     31  C   UNL     1     -10.108  12.102 139.919  0.00  0.00    +0.000 C 
BRANCH  31  32
ATOM     32  C   UNL     1     -10.245  13.188 140.902  0.00  0.00    +0.000 C 
ATOM     33  C   UNL     1     -10.491  12.934 142.212  0.00  0.00    +0.000 C 
ATOM     34  C   UNL     1     -10.530  11.561 142.841  0.00  0.00    +0.000 C 
ATOM     35  C   UNL     1     -10.742  14.027 143.230  0.00  0.00    +0.000 C 
ATOM     36  C   UNL     1     -10.957  15.409 142.634  0.00  0.00    +0.000 C 
ATOM     37  C   UNL     1      -9.922  15.665 141.553  0.00  0.00    +0.000 C 
ATOM     38  C   UNL     1     -10.031  14.639 140.385  0.00  0.00    +0.000 C 
ATOM     39  C   UNL     1      -8.725  14.798 139.568  0.00  0.00    +0.000 C 
ATOM     40  C   UNL     1     -11.217  15.041 139.484  0.00  0.00    +0.000 C 
ENDBRANCH  31  32
ENDBRANCH  28  30
ENDBRANCH  26  27
ENDBRANCH  23  25
ENDBRANCH   2  22
TORSDOF 10
ENDMDL
MODEL 7
REMARK VINA RESULT:      -8.3      1.132      2.571
REMARK  Name = Beta carotene
REMARK  20 active torsions:
REMARK  status: ('A' for Active; 'I' for Inactive)
REMARK    1  A    between atoms: C_1  and  C_2
REMARK    2  A    between atoms: C_2  and  C_3
REMARK    3  A    between atoms: C_4  and  C_5
REMARK    4  A    between atoms: C_6  and  C_7
REMARK    5  A    between atoms: C_6  and  C_8
REMARK    6  A    between atoms: C_9  and  C_10
REMARK    7  A    between atoms: C_11  and  C_12
REMARK    8  A    between atoms: C_16  and  C_17
REMARK    9  A    between atoms: C_16  and  C_18
REMARK   10  A    between atoms: C_19  and  C_20
REMARK   11  A    between atoms: C_21  and  C_22
REMARK   12  A    between atoms: C_23  and  C_24
REMARK   13  A    between atoms: C_23  and  C_25
REMARK   14  A    between atoms: C_26  and  C_27
REMARK   15  A    between atoms: C_28  and  C_29
REMARK   16  A    between atoms: C_28  and  C_30
REMARK   17  A    between atoms: C_31  and  C_32
REMARK   18  A    between atoms: C_33  and  C_34
REMARK   19  A    between atoms: C_38  and  C_39
REMARK   20  A    between atoms: C_38  and  C_40
REMARK                            x       y       z     vdW  Elec       q    Type
REMARK                         _______ _______ _______ _____ _____    ______ ____
ROOT
ATOM      1  C   UNL     1      -7.815   4.994 134.533  0.00  0.00    +0.000 C 
ATOM      2  C   UNL     1      -8.867   4.234 134.192  0.00  0.00    +0.000 C 
ENDROOT
BRANCH   1   5
ATOM      3  C   UNL     1      -5.817   4.805 136.614  0.00  0.00    +0.000 C 
ATOM      4  C   UNL     1      -6.911   5.853 136.679  0.00  0.00    +0.000 C 
ATOM      5  C   UNL     1      -7.820   5.899 135.677  0.00  0.00    +0.000 C 
BRANCH   4   6
ATOM      6  C   UNL     1      -6.976   6.801 137.806  0.00  0.00    +0.000 C 
ATOM      7  C   UNL     1      -7.296   8.100 137.673  0.00  0.00    +0.000 C 
BRANCH   7   8
ATOM      8  C   UNL     1      -7.435   9.122 138.693  0.00  0.00    +0.000 C 
ATOM      9  C   UNL     1      -8.597   9.775 138.957  0.00  0.00    +0.000 C 
ATOM     10  C   UNL     1      -9.880   9.567 138.183  0.00  0.00    +0.000 C 
BRANCH   9  11
ATOM     11  C   UNL     1      -8.663  10.772 140.035  0.00  0.00    +0.000 C 
ATOM     12  C   UNL     1      -9.706  11.582 140.319  0.00  0.00    +0.000 C 
BRANCH  12  13
ATOM     13  C   UNL     1      -9.667  12.697 141.279  0.00  0.00    +0.000 C 
ATOM     14  C   UNL     1     -10.343  13.848 141.031  0.00  0.00    +0.000 C 
ATOM     15  C   UNL     1     -11.256  14.092 139.850  0.00  0.00    +0.000 C 
ATOM     16  C   UNL     1     -10.287  15.052 141.944  0.00  0.00    +0.000 C 
ATOM     17  C   UNL     1      -9.223  14.978 143.027  0.00  0.00    +0.000 C 
ATOM     18  C   UNL     1      -9.231  13.597 143.658  0.00  0.00    +0.000 C 
ATOM     19  C   UNL     1      -8.909  12.477 142.623  0.00  0.00    +0.000 C 
ATOM     20  C   UNL     1      -9.289  11.147 143.318  0.00  0.00    +0.000 C 
ATOM     21  C   UNL     1      -7.387  12.469 142.373  0.00  0.00    +0.000 C 
ENDBRANCH  12  13
ENDBRANCH   9  11
ENDBRANCH   7   8
ENDBRANCH   4   6
ENDBRANCH   1   5
BRANCH   2  22
ATOM     22  C   UNL     1      -8.892   3.319 133.060  0.00  0.00    +0.000 C 
ATOM     23  C   UNL     1      -9.428   3.602 131.850  0.00  0.00    +0.000 C 
ATOM     24  C   UNL     1     -10.071   4.941 131.548  0.00  0.00    +0.000 C 
BRANCH  23  25
ATOM     25  C   UNL     1      -9.404   2.604 130.756  0.00  0.00    +0.000 C 
ATOM     26  C   UNL     1      -8.871   2.846 129.543  0.00  0.00    +0.000 C 
BRANCH  26  27
ATOM     27  C   UNL     1      -8.768   1.949 128.402  0.00  0.00    +0.000 C 
ATOM     28  C   UNL     1      -7.682   1.186 128.120  0.00  0.00    +0.000 C 
ATOM     29  C   UNL     1      -6.413   1.197 128.944  0.00  0.00    +0.000 C 
BRANCH  28  30
ATOM     30  C   UNL     1      -7.674   0.285 126.954  0.00  0.00    +0.000 C 
ATOM     31  C   UNL     1      -8.759  -0.229 126.333  0.00  0.00    +0.000 C 
BRANCH  31  32
ATOM     32  C   UNL     1      -8.730  -1.192 125.222  0.00  0.00    +0.000 C 
ATOM     33  C   UNL     1      -8.947  -0.803 123.940  0.00  0.00    +0.000 C 
ATOM     34  C   UNL     1      -9.116   0.625 123.479  0.00  0.00    +0.000 C 
ATOM     35  C   UNL     1      -9.029  -1.780 122.785  0.00  0.00    +0.000 C 
ATOM     36  C   UNL     1      -9.110  -3.241 123.198  0.00  0.00    +0.000 C 
ATOM     37  C   UNL     1      -8.099  -3.517 124.297  0.00  0.00    +0.000 C 
ATOM     38  C   UNL     1      -8.373  -2.665 125.572  0.00  0.00    +0.000 C 
ATOM     39  C   UNL     1      -7.093  -2.782 126.435  0.00  0.00    +0.000 C 
ATOM     40  C   UNL     1      -9.543  -3.302 126.350  0.00  0.00    +0.000 C 
ENDBRANCH  31  32
ENDBRANCH  28  30
ENDBRANCH  26  27
ENDBRANCH  23  25
ENDBRANCH   2  22
TORSDOF 10
ENDMDL
MODEL 8
REMARK VINA RESULT:      -8.2      1.318     17.877
REMARK  Name = Beta carotene
REMARK  20 active torsions:
REMARK  status: ('A' for Active; 'I' for Inactive)
REMARK    1  A    between atoms: C_1  and  C_2
REMARK    2  A    between atoms: C_2  and  C_3
REMARK    3  A    between atoms: C_4  and  C_5
REMARK    4  A    between atoms: C_6  and  C_7
REMARK    5  A    between atoms: C_6  and  C_8
REMARK    6  A    between atoms: C_9  and  C_10
REMARK    7  A    between atoms: C_11  and  C_12
REMARK    8  A    between atoms: C_16  and  C_17
REMARK    9  A    between atoms: C_16  and  C_18
REMARK   10  A    between atoms: C_19  and  C_20
REMARK   11  A    between atoms: C_21  and  C_22
REMARK   12  A    between atoms: C_23  and  C_24
REMARK   13  A    between atoms: C_23  and  C_25
REMARK   14  A    between atoms: C_26  and  C_27
REMARK   15  A    between atoms: C_28  and  C_29
REMARK   16  A    between atoms: C_28  and  C_30
REMARK   17  A    between atoms: C_31  and  C_32
REMARK   18  A    between atoms: C_33  and  C_34
REMARK   19  A    between atoms: C_38  and  C_39
REMARK   20  A    between atoms: C_38  and  C_40
REMARK                            x       y       z     vdW  Elec       q    Type
REMARK                         _______ _______ _______ _____ _____    ______ ____
ROOT
ATOM      1  C   UNL     1      -8.713   4.928 134.067  0.00  0.00    +0.000 C 
ATOM      2  C   UNL     1      -7.889   4.992 135.125  0.00  0.00    +0.000 C 
ENDROOT
BRANCH   1   5
ATOM      3  C   UNL     1      -9.668   5.296 131.364  0.00  0.00    +0.000 C 
ATOM      4  C   UNL     1      -9.118   3.959 131.820  0.00  0.00    +0.000 C 
ATOM      5  C   UNL     1      -8.682   3.841 133.096  0.00  0.00    +0.000 C 
BRANCH   4   6
ATOM      6  C   UNL     1      -9.056   2.816 130.889  0.00  0.00    +0.000 C 
ATOM      7  C   UNL     1      -8.769   2.932 129.581  0.00  0.00    +0.000 C 
BRANCH   7   8
ATOM      8  C   UNL     1      -8.636   1.897 128.574  0.00  0.00    +0.000 C 
ATOM      9  C   UNL     1      -7.487   1.646 127.892  0.00  0.00    +0.000 C 
ATOM     10  C   UNL     1      -6.217   2.453 128.048  0.00  0.00    +0.000 C 
BRANCH   9  11
ATOM     11  C   UNL     1      -7.426   0.552 126.913  0.00  0.00    +0.000 C 
ATOM     12  C   UNL     1      -8.472  -0.141 126.413  0.00  0.00    +0.000 C 
BRANCH  12  13
ATOM     13  C   UNL     1      -8.359  -1.351 125.584  0.00  0.00    +0.000 C 
ATOM     14  C   UNL     1      -8.394  -2.585 126.151  0.00  0.00    +0.000 C 
ATOM     15  C   UNL     1      -8.638  -2.870 127.617  0.00  0.00    +0.000 C 
ATOM     16  C   UNL     1      -8.215  -3.862 125.363  0.00  0.00    +0.000 C 
ATOM     17  C   UNL     1      -7.741  -3.663 123.932  0.00  0.00    +0.000 C 
ATOM     18  C   UNL     1      -8.516  -2.525 123.291  0.00  0.00    +0.000 C 
ATOM     19  C   UNL     1      -8.298  -1.173 124.037  0.00  0.00    +0.000 C 
ATOM     20  C   UNL     1      -9.389  -0.219 123.496  0.00  0.00    +0.000 C 
ATOM     21  C   UNL     1      -6.922  -0.609 123.628  0.00  0.00    +0.000 C 
ENDBRANCH  12  13
ENDBRANCH   9  11
ENDBRANCH   7   8
ENDBRANCH   4   6
ENDBRANCH   1   5
BRANCH   2  22
ATOM     22  C   UNL     1      -7.897   6.061 136.114  0.00  0.00    +0.000 C 
ATOM     23  C   UNL     1      -6.804   6.515 136.771  0.00  0.00    +0.000 C 
ATOM     24  C   UNL     1      -5.423   5.937 136.529  0.00  0.00    +0.000 C 
BRANCH  23  25
ATOM     25  C   UNL     1      -6.912   7.611 137.761  0.00  0.00    +0.000 C 
ATOM     26  C   UNL     1      -7.428   8.821 137.473  0.00  0.00    +0.000 C 
BRANCH  26  27
ATOM     27  C   UNL     1      -7.606   9.964 138.356  0.00  0.00    +0.000 C 
ATOM     28  C   UNL     1      -8.803  10.379 138.844  0.00  0.00    +0.000 C 
ATOM     29  C   UNL     1     -10.121   9.720 138.501  0.00  0.00    +0.000 C 
BRANCH  28  30
ATOM     30  C   UNL     1      -8.887  11.534 139.755  0.00  0.00    +0.000 C 
ATOM     31  C   UNL     1     -10.005  12.229 140.063  0.00  0.00    +0.000 C 
BRANCH  31  32
ATOM     32  C   UNL     1     -10.055  13.430 140.910  0.00  0.00    +0.000 C 
ATOM     33  C   UNL     1     -10.405  14.641 140.406  0.00  0.00    +0.000 C 
ATOM     34  C   UNL     1     -10.892  14.891 138.999  0.00  0.00    +0.000 C 
ATOM     35  C   UNL     1     -10.366  15.916 141.223  0.00  0.00    +0.000 C 
ATOM     36  C   UNL     1      -9.662  15.786 142.564  0.00  0.00    +0.000 C 
ATOM     37  C   UNL     1     -10.110  14.510 143.254  0.00  0.00    +0.000 C 
ATOM     38  C   UNL     1      -9.754  13.240 142.425  0.00  0.00    +0.000 C 
ATOM     39  C   UNL     1     -10.569  12.086 143.057  0.00  0.00    +0.000 C 
ATOM     40  C   UNL     1      -8.254  12.933 142.611  0.00  0.00    +0.000 C 
ENDBRANCH  31  32
ENDBRANCH  28  30
ENDBRANCH  26  27
ENDBRANCH  23  25
ENDBRANCH   2  22
TORSDOF 10
ENDMDL
MODEL 9
REMARK VINA RESULT:      -8.0      7.246     18.566
REMARK  Name = Beta carotene
REMARK  20 active torsions:
REMARK  status: ('A' for Active; 'I' for Inactive)
REMARK    1  A    between atoms: C_1  and  C_2
REMARK    2  A    between atoms: C_2  and  C_3
REMARK    3  A    between atoms: C_4  and  C_5
REMARK    4  A    between atoms: C_6  and  C_7
REMARK    5  A    between atoms: C_6  and  C_8
REMARK    6  A    between atoms: C_9  and  C_10
REMARK    7  A    between atoms: C_11  and  C_12
REMARK    8  A    between atoms: C_16  and  C_17
REMARK    9  A    between atoms: C_16  and  C_18
REMARK   10  A    between atoms: C_19  and  C_20
REMARK   11  A    between atoms: C_21  and  C_22
REMARK   12  A    between atoms: C_23  and  C_24
REMARK   13  A    between atoms: C_23  and  C_25
REMARK   14  A    between atoms: C_26  and  C_27
REMARK   15  A    between atoms: C_28  and  C_29
REMARK   16  A    between atoms: C_28  and  C_30
REMARK   17  A    between atoms: C_31  and  C_32
REMARK   18  A    between atoms: C_33  and  C_34
REMARK   19  A    between atoms: C_38  and  C_39
REMARK   20  A    between atoms: C_38  and  C_40
REMARK                            x       y       z     vdW  Elec       q    Type
REMARK                         _______ _______ _______ _____ _____    ______ ____
ROOT
ATOM      1  C   UNL     1      -3.647   7.343 130.196  0.00  0.00    +0.000 C 
ATOM      2  C   UNL     1      -3.479   7.016 131.486  0.00  0.00    +0.000 C 
ENDROOT
BRANCH   1   5
ATOM      3  C   UNL     1      -2.147   5.937 128.164  0.00  0.00    +0.000 C 
ATOM      4  C   UNL     1      -3.654   5.792 128.259  0.00  0.00    +0.000 C 
ATOM      5  C   UNL     1      -4.307   6.471 129.230  0.00  0.00    +0.000 C 
BRANCH   4   6
ATOM      6  C   UNL     1      -4.385   4.926 127.316  0.00  0.00    +0.000 C 
ATOM      7  C   UNL     1      -4.077   3.636 127.092  0.00  0.00    +0.000 C 
BRANCH   7   8
ATOM      8  C   UNL     1      -4.733   2.671 126.231  0.00  0.00    +0.000 C 
ATOM      9  C   UNL     1      -5.916   2.070 126.530  0.00  0.00    +0.000 C 
ATOM     10  C   UNL     1      -6.669   2.282 127.825  0.00  0.00    +0.000 C 
BRANCH   9  11
ATOM     11  C   UNL     1      -6.533   1.130 125.585  0.00  0.00    +0.000 C 
ATOM     12  C   UNL     1      -7.497   0.225 125.863  0.00  0.00    +0.000 C 
BRANCH  12  13
ATOM     13  C   UNL     1      -7.954  -0.826 124.941  0.00  0.00    +0.000 C 
ATOM     14  C   UNL     1      -8.666  -0.509 123.829  0.00  0.00    +0.000 C 
ATOM     15  C   UNL     1      -8.984   0.894 123.361  0.00  0.00    +0.000 C 
ATOM     16  C   UNL     1      -9.222  -1.546 122.880  0.00  0.00    +0.000 C 
ATOM     17  C   UNL     1      -9.146  -2.977 123.389  0.00  0.00    +0.000 C 
ATOM     18  C   UNL     1      -7.784  -3.227 124.010  0.00  0.00    +0.000 C 
ATOM     19  C   UNL     1      -7.514  -2.293 125.229  0.00  0.00    +0.000 C 
ATOM     20  C   UNL     1      -6.000  -2.421 125.523  0.00  0.00    +0.000 C 
ATOM     21  C   UNL     1      -8.287  -2.844 126.444  0.00  0.00    +0.000 C 
ENDBRANCH  12  13
ENDBRANCH   9  11
ENDBRANCH   7   8
ENDBRANCH   4   6
ENDBRANCH   1   5
BRANCH   2  22
ATOM     22  C   UNL     1      -2.828   7.865 132.475  0.00  0.00    +0.000 C 
ATOM     23  C   UNL     1      -1.526   7.776 132.833  0.00  0.00    +0.000 C 
ATOM     24  C   UNL     1      -0.590   6.754 132.216  0.00  0.00    +0.000 C 
BRANCH  23  25
ATOM     25  C   UNL     1      -0.953   8.687 133.849  0.00  0.00    +0.000 C 
ATOM     26  C   UNL     1       0.155   9.425 133.643  0.00  0.00    +0.000 C 
BRANCH  26  27
ATOM     27  C   UNL     1       0.798  10.366 134.548  0.00  0.00    +0.000 C 
ATOM     28  C   UNL     1       1.001  11.680 134.274  0.00  0.00    +0.000 C 
ATOM     29  C   UNL     1       0.610  12.333 132.967  0.00  0.00    +0.000 C 
BRANCH  28  30
ATOM     30  C   UNL     1       1.641  12.566 135.261  0.00  0.00    +0.000 C 
ATOM     31  C   UNL     1       1.044  13.134 136.332  0.00  0.00    +0.000 C 
BRANCH  31  32
ATOM     32  C   UNL     1       1.680  14.082 137.260  0.00  0.00    +0.000 C 
ATOM     33  C   UNL     1       1.593  15.424 137.074  0.00  0.00    +0.000 C 
ATOM     34  C   UNL     1       0.764  16.105 136.011  0.00  0.00    +0.000 C 
ATOM     35  C   UNL     1       2.321  16.425 137.947  0.00  0.00    +0.000 C 
ATOM     36  C   UNL     1       3.357  15.816 138.878  0.00  0.00    +0.000 C 
ATOM     37  C   UNL     1       2.782  14.577 139.541  0.00  0.00    +0.000 C 
ATOM     38  C   UNL     1       2.400  13.481 138.500  0.00  0.00    +0.000 C 
ATOM     39  C   UNL     1       1.522  12.464 139.269  0.00  0.00    +0.000 C 
ATOM     40  C   UNL     1       3.687  12.763 138.044  0.00  0.00    +0.000 C 
ENDBRANCH  31  32
ENDBRANCH  28  30
ENDBRANCH  26  27
ENDBRANCH  23  25
ENDBRANCH   2  22
TORSDOF 10
ENDMDL
