MODEL 1
REMARK VINA RESULT:      -4.8      0.000      0.000
REMARK  Name = Betahistine
REMARK  4 active torsions:
REMARK  status: ('A' for Active; 'I' for Inactive)
REMARK    1  A    between atoms: C_1  and  N_2
REMARK    2  A    between atoms: N_2  and  C_3
REMARK    3  A    between atoms: C_3  and  C_4
REMARK    4  A    between atoms: C_4  and  C_5
REMARK                            x       y       z     vdW  Elec       q    Type
REMARK                         _______ _______ _______ _____ _____    ______ ____
ROOT
ATOM      1  C   UNL     1     -12.842   6.509 129.390  0.00  0.00    +0.000 A 
ATOM      2  C   UNL     1     -13.031   7.315 130.513  0.00  0.00    +0.000 A 
ATOM      3  C   UNL     1     -12.188   7.153 131.605  0.00  0.00    +0.000 A 
ATOM      4  C   UNL     1     -11.211   6.171 131.566  0.00  0.00    +0.000 A 
ATOM      5  C   UNL     1     -11.117   5.382 130.430  0.00  0.00    +0.000 A 
ATOM      6  N   UNL     1     -11.902   5.539 129.339  0.00  0.00    +0.000 NA
ENDROOT
BRANCH   1   7
ATOM      7  C   UNL     1     -13.632   6.792 128.134  0.00  0.00    +0.000 C 
BRANCH   7   8
ATOM      8  C   UNL     1     -12.765   7.602 127.162  0.00  0.00    +0.000 C 
BRANCH   8  10
ATOM      9  C   UNL     1     -10.496   7.221 126.505  0.00  0.00    +0.000 C 
ATOM     10  N   UNL     1     -11.868   6.740 126.389  0.00  0.00    +0.000 NA
ATOM     11  H   UNL     1     -11.923   5.789 126.752  0.00  0.00    +0.000 HD
ENDBRANCH   8  10
ENDBRANCH   7   8
ENDBRANCH   1   7
TORSDOF 3
ENDMDL
MODEL 2
REMARK VINA RESULT:      -4.8      1.433      3.896
REMARK  Name = Betahistine
REMARK  4 active torsions:
REMARK  status: ('A' for Active; 'I' for Inactive)
REMARK    1  A    between atoms: C_1  and  N_2
REMARK    2  A    between atoms: N_2  and  C_3
REMARK    3  A    between atoms: C_3  and  C_4
REMARK    4  A    between atoms: C_4  and  C_5
REMARK                            x       y       z     vdW  Elec       q    Type
REMARK                         _______ _______ _______ _____ _____    ______ ____
ROOT
ATOM      1  C   UNL     1     -12.436   7.541 129.521  0.00  0.00    +0.000 A 
ATOM      2  C   UNL     1     -13.238   7.099 128.469  0.00  0.00    +0.000 A 
ATOM      3  C   UNL     1     -12.737   7.154 127.174  0.00  0.00    +0.000 A 
ATOM      4  C   UNL     1     -11.474   7.680 126.959  0.00  0.00    +0.000 A 
ATOM      5  C   UNL     1     -10.758   8.139 128.054  0.00  0.00    +0.000 A 
ATOM      6  N   UNL     1     -11.206   8.068 129.329  0.00  0.00    +0.000 NA
ENDROOT
BRANCH   1   7
ATOM      7  C   UNL     1     -12.896   7.325 130.943  0.00  0.00    +0.000 C 
BRANCH   7   8
ATOM      8  C   UNL     1     -11.798   6.592 131.724  0.00  0.00    +0.000 C 
BRANCH   8  10
ATOM      9  C   UNL     1      -9.974   5.125 131.227  0.00  0.00    +0.000 C 
ATOM     10  N   UNL     1     -11.407   5.342 131.067  0.00  0.00    +0.000 NA
ATOM     11  H   UNL     1     -11.915   4.567 131.492  0.00  0.00    +0.000 HD
ENDBRANCH   8  10
ENDBRANCH   7   8
ENDBRANCH   1   7
TORSDOF 3
ENDMDL
MODEL 3
REMARK VINA RESULT:      -4.6      2.457      4.684
REMARK  Name = Betahistine
REMARK  4 active torsions:
REMARK  status: ('A' for Active; 'I' for Inactive)
REMARK    1  A    between atoms: C_1  and  N_2
REMARK    2  A    between atoms: N_2  and  C_3
REMARK    3  A    between atoms: C_3  and  C_4
REMARK    4  A    between atoms: C_4  and  C_5
REMARK                            x       y       z     vdW  Elec       q    Type
REMARK                         _______ _______ _______ _____ _____    ______ ____
ROOT
ATOM      1  C   UNL     1     -10.498   7.365 129.990  0.00  0.00    +0.000 A 
ATOM      2  C   UNL     1     -11.858   7.481 130.275  0.00  0.00    +0.000 A 
ATOM      3  C   UNL     1     -12.692   8.077 129.338  0.00  0.00    +0.000 A 
ATOM      4  C   UNL     1     -12.146   8.575 128.165  0.00  0.00    +0.000 A 
ATOM      5  C   UNL     1     -10.777   8.460 127.978  0.00  0.00    +0.000 A 
ATOM      6  N   UNL     1      -9.946   7.855 128.858  0.00  0.00    +0.000 NA
ENDROOT
BRANCH   1   7
ATOM      7  C   UNL     1      -9.613   6.566 130.917  0.00  0.00    +0.000 C 
BRANCH   7   8
ATOM      8  C   UNL     1     -10.437   6.091 132.120  0.00  0.00    +0.000 C 
BRANCH   8  10
ATOM      9  C   UNL     1      -8.336   5.785 133.224  0.00  0.00    +0.000 C 
ATOM     10  N   UNL     1      -9.706   6.260 133.378  0.00  0.00    +0.000 NA
ATOM     11  H   UNL     1      -9.694   7.248 133.628  0.00  0.00    +0.000 HD
ENDBRANCH   8  10
ENDBRANCH   7   8
ENDBRANCH   1   7
TORSDOF 3
ENDMDL
MODEL 4
REMARK VINA RESULT:      -4.6      1.676      3.827
REMARK  Name = Betahistine
REMARK  4 active torsions:
REMARK  status: ('A' for Active; 'I' for Inactive)
REMARK    1  A    between atoms: C_1  and  N_2
REMARK    2  A    between atoms: N_2  and  C_3
REMARK    3  A    between atoms: C_3  and  C_4
REMARK    4  A    between atoms: C_4  and  C_5
REMARK                            x       y       z     vdW  Elec       q    Type
REMARK                         _______ _______ _______ _____ _____    ______ ____
ROOT
ATOM      1  C   UNL     1     -12.592   7.431 130.165  0.00  0.00    +0.000 A 
ATOM      2  C   UNL     1     -12.680   8.797 129.896  0.00  0.00    +0.000 A 
ATOM      3  C   UNL     1     -13.216   9.210 128.683  0.00  0.00    +0.000 A 
ATOM      4  C   UNL     1     -13.613   8.256 127.759  0.00  0.00    +0.000 A 
ATOM      5  C   UNL     1     -13.452   6.919 128.085  0.00  0.00    +0.000 A 
ATOM      6  N   UNL     1     -12.963   6.487 129.271  0.00  0.00    +0.000 NA
ENDROOT
BRANCH   1   7
ATOM      7  C   UNL     1     -12.177   6.973 131.543  0.00  0.00    +0.000 C 
BRANCH   7   8
ATOM      8  C   UNL     1     -10.893   6.140 131.434  0.00  0.00    +0.000 C 
BRANCH   8  10
ATOM      9  C   UNL     1     -10.026   4.173 130.382  0.00  0.00    +0.000 C 
ATOM     10  N   UNL     1     -11.177   4.751 131.066  0.00  0.00    +0.000 NA
ATOM     11  H   UNL     1     -11.372   4.215 131.912  0.00  0.00    +0.000 HD
ENDBRANCH   8  10
ENDBRANCH   7   8
ENDBRANCH   1   7
TORSDOF 3
ENDMDL
MODEL 5
REMARK VINA RESULT:      -4.3      2.091      3.803
REMARK  Name = Betahistine
REMARK  4 active torsions:
REMARK  status: ('A' for Active; 'I' for Inactive)
REMARK    1  A    between atoms: C_1  and  N_2
REMARK    2  A    between atoms: N_2  and  C_3
REMARK    3  A    between atoms: C_3  and  C_4
REMARK    4  A    between atoms: C_4  and  C_5
REMARK                            x       y       z     vdW  Elec       q    Type
REMARK                         _______ _______ _______ _____ _____    ______ ____
ROOT
ATOM      1  C   UNL     1     -10.575   7.326 130.163  0.00  0.00    +0.000 A 
ATOM      2  C   UNL     1     -11.953   7.455 130.337  0.00  0.00    +0.000 A 
ATOM      3  C   UNL     1     -12.700   8.081 129.347  0.00  0.00    +0.000 A 
ATOM      4  C   UNL     1     -12.053   8.592 128.233  0.00  0.00    +0.000 A 
ATOM      5  C   UNL     1     -10.675   8.462 128.156  0.00  0.00    +0.000 A 
ATOM      6  N   UNL     1      -9.926   7.830 129.089  0.00  0.00    +0.000 NA
ENDROOT
BRANCH   1   7
ATOM      7  C   UNL     1      -9.779   6.498 131.143  0.00  0.00    +0.000 C 
BRANCH   7   8
ATOM      8  C   UNL     1      -9.897   5.016 130.766  0.00  0.00    +0.000 C 
BRANCH   8  10
ATOM      9  C   UNL     1      -8.230   4.464 129.141  0.00  0.00    +0.000 C 
ATOM     10  N   UNL     1      -9.636   4.796 129.342  0.00  0.00    +0.000 NA
ATOM     11  H   UNL     1     -10.215   4.024 129.011  0.00  0.00    +0.000 HD
ENDBRANCH   8  10
ENDBRANCH   7   8
ENDBRANCH   1   7
TORSDOF 3
ENDMDL
MODEL 6
REMARK VINA RESULT:      -4.1      2.573      3.352
REMARK  Name = Betahistine
REMARK  4 active torsions:
REMARK  status: ('A' for Active; 'I' for Inactive)
REMARK    1  A    between atoms: C_1  and  N_2
REMARK    2  A    between atoms: N_2  and  C_3
REMARK    3  A    between atoms: C_3  and  C_4
REMARK    4  A    between atoms: C_4  and  C_5
REMARK                            x       y       z     vdW  Elec       q    Type
REMARK                         _______ _______ _______ _____ _____    ______ ____
ROOT
ATOM      1  C   UNL     1     -10.249   6.817 130.861  0.00  0.00    +0.000 A 
ATOM      2  C   UNL     1      -8.939   7.113 130.486  0.00  0.00    +0.000 A 
ATOM      3  C   UNL     1      -7.894   6.673 131.290  0.00  0.00    +0.000 A 
ATOM      4  C   UNL     1      -8.183   5.988 132.460  0.00  0.00    +0.000 A 
ATOM      5  C   UNL     1      -9.513   5.773 132.784  0.00  0.00    +0.000 A 
ATOM      6  N   UNL     1     -10.549   6.161 132.005  0.00  0.00    +0.000 NA
ENDROOT
BRANCH   1   7
ATOM      7  C   UNL     1     -11.380   7.133 129.912  0.00  0.00    +0.000 C 
BRANCH   7   8
ATOM      8  C   UNL     1     -10.830   7.909 128.709  0.00  0.00    +0.000 C 
BRANCH   8  10
ATOM      9  C   UNL     1     -12.780   9.163 129.304  0.00  0.00    +0.000 C 
ATOM     10  N   UNL     1     -11.726   8.997 128.310  0.00  0.00    +0.000 NA
ATOM     11  H   UNL     1     -11.190   9.862 128.239  0.00  0.00    +0.000 HD
ENDBRANCH   8  10
ENDBRANCH   7   8
ENDBRANCH   1   7
TORSDOF 3
ENDMDL
MODEL 7
REMARK VINA RESULT:      -4.1     10.744     12.143
REMARK  Name = Betahistine
REMARK  4 active torsions:
REMARK  status: ('A' for Active; 'I' for Inactive)
REMARK    1  A    between atoms: C_1  and  N_2
REMARK    2  A    between atoms: N_2  and  C_3
REMARK    3  A    between atoms: C_3  and  C_4
REMARK    4  A    between atoms: C_4  and  C_5
REMARK                            x       y       z     vdW  Elec       q    Type
REMARK                         _______ _______ _______ _____ _____    ______ ____
ROOT
ATOM      1  C   UNL     1      -7.807  -3.028 123.942  0.00  0.00    +0.000 A 
ATOM      2  C   UNL     1      -7.570  -2.037 122.990  0.00  0.00    +0.000 A 
ATOM      3  C   UNL     1      -6.278  -1.857 122.514  0.00  0.00    +0.000 A 
ATOM      4  C   UNL     1      -5.254  -2.638 123.025  0.00  0.00    +0.000 A 
ATOM      5  C   UNL     1      -5.564  -3.572 124.001  0.00  0.00    +0.000 A 
ATOM      6  N   UNL     1      -6.818  -3.792 124.460  0.00  0.00    +0.000 NA
ENDROOT
BRANCH   1   7
ATOM      7  C   UNL     1      -9.228  -3.352 124.336  0.00  0.00    +0.000 C 
BRANCH   7   8
ATOM      8  C   UNL     1      -9.575  -2.612 125.633  0.00  0.00    +0.000 C 
BRANCH   8  10
ATOM      9  C   UNL     1      -8.827  -3.834 127.549  0.00  0.00    +0.000 C 
ATOM     10  N   UNL     1      -8.513  -2.743 126.634  0.00  0.00    +0.000 NA
ATOM     11  H   UNL     1      -7.632  -2.943 126.161  0.00  0.00    +0.000 HD
ENDBRANCH   8  10
ENDBRANCH   7   8
ENDBRANCH   1   7
TORSDOF 3
ENDMDL
MODEL 8
REMARK VINA RESULT:      -4.0      9.125     10.741
REMARK  Name = Betahistine
REMARK  4 active torsions:
REMARK  status: ('A' for Active; 'I' for Inactive)
REMARK    1  A    between atoms: C_1  and  N_2
REMARK    2  A    between atoms: N_2  and  C_3
REMARK    3  A    between atoms: C_3  and  C_4
REMARK    4  A    between atoms: C_4  and  C_5
REMARK                            x       y       z     vdW  Elec       q    Type
REMARK                         _______ _______ _______ _____ _____    ______ ____
ROOT
ATOM      1  C   UNL     1      -8.808  -1.384 123.033  0.00  0.00    +0.000 A 
ATOM      2  C   UNL     1      -7.463  -1.038 123.167  0.00  0.00    +0.000 A 
ATOM      3  C   UNL     1      -7.134   0.284 123.441  0.00  0.00    +0.000 A 
ATOM      4  C   UNL     1      -8.144   1.228 123.534  0.00  0.00    +0.000 A 
ATOM      5  C   UNL     1      -9.453   0.811 123.344  0.00  0.00    +0.000 A 
ATOM      6  N   UNL     1      -9.806  -0.474 123.109  0.00  0.00    +0.000 NA
ENDROOT
BRANCH   1   7
ATOM      7  C   UNL     1      -9.189  -2.840 122.912  0.00  0.00    +0.000 C 
BRANCH   7   8
ATOM      8  C   UNL     1      -9.011  -3.525 124.272  0.00  0.00    +0.000 C 
BRANCH   8  10
ATOM      9  C   UNL     1      -9.075  -2.942 126.592  0.00  0.00    +0.000 C 
ATOM     10  N   UNL     1      -9.786  -2.858 125.321  0.00  0.00    +0.000 NA
ATOM     11  H   UNL     1      -9.914  -1.878 125.070  0.00  0.00    +0.000 HD
ENDBRANCH   8  10
ENDBRANCH   7   8
ENDBRANCH   1   7
TORSDOF 3
ENDMDL
MODEL 9
REMARK VINA RESULT:      -3.9      2.637      5.025
REMARK  Name = Betahistine
REMARK  4 active torsions:
REMARK  status: ('A' for Active; 'I' for Inactive)
REMARK    1  A    between atoms: C_1  and  N_2
REMARK    2  A    between atoms: N_2  and  C_3
REMARK    3  A    between atoms: C_3  and  C_4
REMARK    4  A    between atoms: C_4  and  C_5
REMARK                            x       y       z     vdW  Elec       q    Type
REMARK                         _______ _______ _______ _____ _____    ______ ____
ROOT
ATOM      1  C   UNL     1     -11.004   6.245 131.146  0.00  0.00    +0.000 A 
ATOM      2  C   UNL     1     -10.562   6.942 130.021  0.00  0.00    +0.000 A 
ATOM      3  C   UNL     1     -11.340   7.981 129.527  0.00  0.00    +0.000 A 
ATOM      4  C   UNL     1     -12.549   8.272 130.139  0.00  0.00    +0.000 A 
ATOM      5  C   UNL     1     -12.937   7.504 131.225  0.00  0.00    +0.000 A 
ATOM      6  N   UNL     1     -12.186   6.507 131.748  0.00  0.00    +0.000 NA
ENDROOT
BRANCH   1   7
ATOM      7  C   UNL     1     -10.090   5.234 131.797  0.00  0.00    +0.000 C 
BRANCH   7   8
ATOM      8  C   UNL     1      -9.049   5.968 132.650  0.00  0.00    +0.000 C 
BRANCH   8  10
ATOM      9  C   UNL     1      -9.099   3.903 133.858  0.00  0.00    +0.000 C 
ATOM     10  N   UNL     1      -8.886   5.342 133.964  0.00  0.00    +0.000 NA
ATOM     11  H   UNL     1      -7.941   5.518 134.304  0.00  0.00    +0.000 HD
ENDBRANCH   8  10
ENDBRANCH   7   8
ENDBRANCH   1   7
TORSDOF 3
ENDMDL
