MODEL 1
REMARK VINA RESULT:      -5.6      0.000      0.000
REMARK  Name = Betaxolol
REMARK  14 active torsions:
REMARK  status: ('A' for Active; 'I' for Inactive)
REMARK    1  A    between atoms: C_1  and  C_2
REMARK    2  A    between atoms: C_2  and  C_3
REMARK    3  A    between atoms: C_2  and  N_4
REMARK    4  A    between atoms: N_4  and  C_5
REMARK    5  A    between atoms: C_5  and  C_6
REMARK    6  A    between atoms: C_6  and  O_7
REMARK    7  A    between atoms: C_6  and  C_8
REMARK    8  A    between atoms: C_8  and  O_9
REMARK    9  A    between atoms: O_9  and  C_10
REMARK   10  A    between atoms: C_13  and  C_14
REMARK   11  A    between atoms: C_14  and  C_15
REMARK   12  A    between atoms: C_15  and  O_16
REMARK   13  A    between atoms: O_16  and  C_17
REMARK   14  A    between atoms: C_17  and  C_18
REMARK                            x       y       z     vdW  Elec       q    Type
REMARK                         _______ _______ _______ _____ _____    ______ ____
ROOT
ATOM      1  C   UNL     1      -8.250  -1.934 127.360  0.00  0.00    +0.000 A 
ATOM      2  C   UNL     1      -8.504  -3.182 127.935  0.00  0.00    +0.000 A 
ATOM      3  C   UNL     1      -8.205  -3.415 129.280  0.00  0.00    +0.000 A 
ATOM      4  C   UNL     1      -7.608  -2.416 130.053  0.00  0.00    +0.000 A 
ATOM      5  C   UNL     1      -7.382  -1.161 129.461  0.00  0.00    +0.000 A 
ATOM      6  C   UNL     1      -7.702  -0.921 128.129  0.00  0.00    +0.000 A 
ENDROOT
BRANCH   1   7
ATOM      7  O   UNL     1      -8.663  -1.776 126.070  0.00  0.00    +0.000 OA
BRANCH   7   8
ATOM      8  C   UNL     1      -9.119  -2.963 125.425  0.00  0.00    +0.000 C 
BRANCH   8   9
ATOM      9  C   UNL     1      -9.347  -2.650 123.940  0.00  0.00    +0.000 C 
BRANCH   9  10
ATOM     10  O   UNL     1     -10.256  -3.582 123.340  0.00  0.00    +0.000 OA
ATOM     11  H   UNL     1      -9.773  -4.061 122.649  0.00  0.00    +0.000 HD
ENDBRANCH   9  10
BRANCH   9  12
ATOM     12  C   UNL     1      -7.999  -2.713 123.212  0.00  0.00    +0.000 C 
BRANCH  12  13
ATOM     13  N   UNL     1      -6.966  -3.303 124.063  0.00  0.00    +0.000 NA
ATOM     14  H   UNL     1      -7.235  -3.170 125.043  0.00  0.00    +0.000 HD
BRANCH  13  16
ATOM     15  C   UNL     1      -5.314  -1.708 124.877  0.00  0.00    +0.000 C 
ATOM     16  C   UNL     1      -5.635  -2.749 123.804  0.00  0.00    +0.000 C 
ATOM     17  C   UNL     1      -4.568  -3.846 123.827  0.00  0.00    +0.000 C 
ENDBRANCH  13  16
ENDBRANCH  12  13
ENDBRANCH   9  12
ENDBRANCH   8   9
ENDBRANCH   7   8
ENDBRANCH   1   7
BRANCH   4  18
ATOM     18  C   UNL     1      -7.188  -2.721 131.476  0.00  0.00    +0.000 C 
BRANCH  18  19
ATOM     19  C   UNL     1      -6.137  -1.747 131.993  0.00  0.00    +0.000 C 
BRANCH  19  20
ATOM     20  O   UNL     1      -4.826  -2.293 131.964  0.00  0.00    +0.000 OA
BRANCH  20  21
ATOM     21  C   UNL     1      -4.068  -1.581 130.985  0.00  0.00    +0.000 C 
BRANCH  21  22
ATOM     22  C   UNL     1      -3.484  -2.546 130.019  0.00  0.00    +0.000 C 
ATOM     23  C   UNL     1      -4.159  -3.881 129.854  0.00  0.00    +0.000 C 
ATOM     24  C   UNL     1      -4.192  -2.880 128.732  0.00  0.00    +0.000 C 
ENDBRANCH  21  22
ENDBRANCH  20  21
ENDBRANCH  19  20
ENDBRANCH  18  19
ENDBRANCH   4  18
TORSDOF 12
ENDMDL
MODEL 2
REMARK VINA RESULT:      -5.5      4.590      7.267
REMARK  Name = Betaxolol
REMARK  14 active torsions:
REMARK  status: ('A' for Active; 'I' for Inactive)
REMARK    1  A    between atoms: C_1  and  C_2
REMARK    2  A    between atoms: C_2  and  C_3
REMARK    3  A    between atoms: C_2  and  N_4
REMARK    4  A    between atoms: N_4  and  C_5
REMARK    5  A    between atoms: C_5  and  C_6
REMARK    6  A    between atoms: C_6  and  O_7
REMARK    7  A    between atoms: C_6  and  C_8
REMARK    8  A    between atoms: C_8  and  O_9
REMARK    9  A    between atoms: O_9  and  C_10
REMARK   10  A    between atoms: C_13  and  C_14
REMARK   11  A    between atoms: C_14  and  C_15
REMARK   12  A    between atoms: C_15  and  O_16
REMARK   13  A    between atoms: O_16  and  C_17
REMARK   14  A    between atoms: C_17  and  C_18
REMARK                            x       y       z     vdW  Elec       q    Type
REMARK                         _______ _______ _______ _____ _____    ______ ____
ROOT
ATOM      1  C   UNL     1      -8.805   0.329 124.341  0.00  0.00    +0.000 A 
ATOM      2  C   UNL     1      -7.852   0.763 123.417  0.00  0.00    +0.000 A 
ATOM      3  C   UNL     1      -7.135   1.942 123.642  0.00  0.00    +0.000 A 
ATOM      4  C   UNL     1      -7.396   2.721 124.771  0.00  0.00    +0.000 A 
ATOM      5  C   UNL     1      -8.343   2.254 125.700  0.00  0.00    +0.000 A 
ATOM      6  C   UNL     1      -9.039   1.068 125.488  0.00  0.00    +0.000 A 
ENDROOT
BRANCH   1   7
ATOM      7  O   UNL     1      -9.382  -0.879 124.080  0.00  0.00    +0.000 OA
BRANCH   7   8
ATOM      8  C   UNL     1      -8.836  -1.589 122.970  0.00  0.00    +0.000 C 
BRANCH   8   9
ATOM      9  C   UNL     1      -8.926  -3.092 123.265  0.00  0.00    +0.000 C 
BRANCH   9  10
ATOM     10  O   UNL     1     -10.287  -3.517 123.417  0.00  0.00    +0.000 OA
ATOM     11  H   UNL     1     -10.842  -2.722 123.444  0.00  0.00    +0.000 HD
ENDBRANCH   9  10
BRANCH   9  12
ATOM     12  C   UNL     1      -8.154  -3.386 124.557  0.00  0.00    +0.000 C 
BRANCH  12  13
ATOM     13  N   UNL     1      -8.971  -3.099 125.737  0.00  0.00    +0.000 NA
ATOM     14  H   UNL     1      -9.384  -2.168 125.628  0.00  0.00    +0.000 HD
BRANCH  13  16
ATOM     15  C   UNL     1      -7.905  -1.786 127.490  0.00  0.00    +0.000 C 
ATOM     16  C   UNL     1      -8.213  -3.196 126.986  0.00  0.00    +0.000 C 
ATOM     17  C   UNL     1      -9.007  -3.953 128.054  0.00  0.00    +0.000 C 
ENDBRANCH  13  16
ENDBRANCH  12  13
ENDBRANCH   9  12
ENDBRANCH   8   9
ENDBRANCH   7   8
ENDBRANCH   1   7
BRANCH   4  18
ATOM     18  C   UNL     1      -6.692   4.051 124.942  0.00  0.00    +0.000 C 
BRANCH  18  19
ATOM     19  C   UNL     1      -5.411   4.141 124.121  0.00  0.00    +0.000 C 
BRANCH  19  20
ATOM     20  O   UNL     1      -5.580   4.893 122.928  0.00  0.00    +0.000 OA
BRANCH  20  21
ATOM     21  C   UNL     1      -4.545   4.521 122.016  0.00  0.00    +0.000 C 
BRANCH  21  22
ATOM     22  C   UNL     1      -5.154   3.944 120.792  0.00  0.00    +0.000 C 
ATOM     23  C   UNL     1      -6.649   4.019 120.639  0.00  0.00    +0.000 C 
ATOM     24  C   UNL     1      -5.761   4.829 119.736  0.00  0.00    +0.000 C 
ENDBRANCH  21  22
ENDBRANCH  20  21
ENDBRANCH  19  20
ENDBRANCH  18  19
ENDBRANCH   4  18
TORSDOF 12
ENDMDL
MODEL 3
REMARK VINA RESULT:      -5.4      4.221      6.355
REMARK  Name = Betaxolol
REMARK  14 active torsions:
REMARK  status: ('A' for Active; 'I' for Inactive)
REMARK    1  A    between atoms: C_1  and  C_2
REMARK    2  A    between atoms: C_2  and  C_3
REMARK    3  A    between atoms: C_2  and  N_4
REMARK    4  A    between atoms: N_4  and  C_5
REMARK    5  A    between atoms: C_5  and  C_6
REMARK    6  A    between atoms: C_6  and  O_7
REMARK    7  A    between atoms: C_6  and  C_8
REMARK    8  A    between atoms: C_8  and  O_9
REMARK    9  A    between atoms: O_9  and  C_10
REMARK   10  A    between atoms: C_13  and  C_14
REMARK   11  A    between atoms: C_14  and  C_15
REMARK   12  A    between atoms: C_15  and  O_16
REMARK   13  A    between atoms: O_16  and  C_17
REMARK   14  A    between atoms: C_17  and  C_18
REMARK                            x       y       z     vdW  Elec       q    Type
REMARK                         _______ _______ _______ _____ _____    ______ ____
ROOT
ATOM      1  C   UNL     1      -8.969   0.575 124.148  0.00  0.00    +0.000 A 
ATOM      2  C   UNL     1      -7.611   0.645 124.470  0.00  0.00    +0.000 A 
ATOM      3  C   UNL     1      -6.817   1.679 123.966  0.00  0.00    +0.000 A 
ATOM      4  C   UNL     1      -7.363   2.629 123.100  0.00  0.00    +0.000 A 
ATOM      5  C   UNL     1      -8.736   2.554 122.807  0.00  0.00    +0.000 A 
ATOM      6  C   UNL     1      -9.532   1.539 123.328  0.00  0.00    +0.000 A 
ENDROOT
BRANCH   1   7
ATOM      7  O   UNL     1      -9.679  -0.413 124.763  0.00  0.00    +0.000 OA
BRANCH   7   8
ATOM      8  C   UNL     1      -8.928  -1.242 125.649  0.00  0.00    +0.000 C 
BRANCH   8   9
ATOM      9  C   UNL     1      -9.172  -2.707 125.263  0.00  0.00    +0.000 C 
BRANCH   9  10
ATOM     10  O   UNL     1      -8.752  -3.601 126.302  0.00  0.00    +0.000 OA
ATOM     11  H   UNL     1      -9.549  -3.925 126.752  0.00  0.00    +0.000 HD
ENDBRANCH   9  10
BRANCH   9  12
ATOM     12  C   UNL     1      -8.390  -3.014 123.981  0.00  0.00    +0.000 C 
BRANCH  12  13
ATOM     13  N   UNL     1      -7.080  -3.593 124.287  0.00  0.00    +0.000 NA
ATOM     14  H   UNL     1      -7.030  -3.769 125.295  0.00  0.00    +0.000 HD
BRANCH  13  16
ATOM     15  C   UNL     1      -4.731  -3.615 123.642  0.00  0.00    +0.000 C 
ATOM     16  C   UNL     1      -5.971  -2.744 123.846  0.00  0.00    +0.000 C 
ATOM     17  C   UNL     1      -6.311  -2.033 122.533  0.00  0.00    +0.000 C 
ENDBRANCH  13  16
ENDBRANCH  12  13
ENDBRANCH   9  12
ENDBRANCH   8   9
ENDBRANCH   7   8
ENDBRANCH   1   7
BRANCH   4  18
ATOM     18  C   UNL     1      -6.464   3.676 122.475  0.00  0.00    +0.000 C 
BRANCH  18  19
ATOM     19  C   UNL     1      -5.483   4.273 123.477  0.00  0.00    +0.000 C 
BRANCH  19  20
ATOM     20  O   UNL     1      -6.117   5.132 124.414  0.00  0.00    +0.000 OA
BRANCH  20  21
ATOM     21  C   UNL     1      -5.628   4.809 125.716  0.00  0.00    +0.000 C 
BRANCH  21  22
ATOM     22  C   UNL     1      -4.473   3.885 125.592  0.00  0.00    +0.000 C 
ATOM     23  C   UNL     1      -3.405   3.936 126.651  0.00  0.00    +0.000 C 
ATOM     24  C   UNL     1      -4.297   2.730 126.543  0.00  0.00    +0.000 C 
ENDBRANCH  21  22
ENDBRANCH  20  21
ENDBRANCH  19  20
ENDBRANCH  18  19
ENDBRANCH   4  18
TORSDOF 12
ENDMDL
MODEL 4
REMARK VINA RESULT:      -5.4      2.134      6.402
REMARK  Name = Betaxolol
REMARK  14 active torsions:
REMARK  status: ('A' for Active; 'I' for Inactive)
REMARK    1  A    between atoms: C_1  and  C_2
REMARK    2  A    between atoms: C_2  and  C_3
REMARK    3  A    between atoms: C_2  and  N_4
REMARK    4  A    between atoms: N_4  and  C_5
REMARK    5  A    between atoms: C_5  and  C_6
REMARK    6  A    between atoms: C_6  and  O_7
REMARK    7  A    between atoms: C_6  and  C_8
REMARK    8  A    between atoms: C_8  and  O_9
REMARK    9  A    between atoms: O_9  and  C_10
REMARK   10  A    between atoms: C_13  and  C_14
REMARK   11  A    between atoms: C_14  and  C_15
REMARK   12  A    between atoms: C_15  and  O_16
REMARK   13  A    between atoms: O_16  and  C_17
REMARK   14  A    between atoms: C_17  and  C_18
REMARK                            x       y       z     vdW  Elec       q    Type
REMARK                         _______ _______ _______ _____ _____    ______ ____
ROOT
ATOM      1  C   UNL     1      -7.826  -2.071 129.361  0.00  0.00    +0.000 A 
ATOM      2  C   UNL     1      -8.440  -3.308 129.154  0.00  0.00    +0.000 A 
ATOM      3  C   UNL     1      -8.799  -3.713 127.865  0.00  0.00    +0.000 A 
ATOM      4  C   UNL     1      -8.588  -2.866 126.776  0.00  0.00    +0.000 A 
ATOM      5  C   UNL     1      -7.947  -1.634 127.003  0.00  0.00    +0.000 A 
ATOM      6  C   UNL     1      -7.568  -1.242 128.282  0.00  0.00    +0.000 A 
ENDROOT
BRANCH   1   7
ATOM      7  O   UNL     1      -7.428  -1.807 130.638  0.00  0.00    +0.000 OA
BRANCH   7   8
ATOM      8  C   UNL     1      -6.718  -0.583 130.816  0.00  0.00    +0.000 C 
BRANCH   8   9
ATOM      9  C   UNL     1      -5.565  -0.832 131.797  0.00  0.00    +0.000 C 
BRANCH   9  10
ATOM     10  O   UNL     1      -4.356  -0.198 131.358  0.00  0.00    +0.000 OA
ATOM     11  H   UNL     1      -4.517   0.758 131.332  0.00  0.00    +0.000 HD
ENDBRANCH   9  10
BRANCH   9  12
ATOM     12  C   UNL     1      -5.334  -2.343 131.912  0.00  0.00    +0.000 C 
BRANCH  12  13
ATOM     13  N   UNL     1      -4.034  -2.722 131.357  0.00  0.00    +0.000 NA
ATOM     14  H   UNL     1      -3.571  -1.879 131.005  0.00  0.00    +0.000 HD
BRANCH  13  16
ATOM     15  C   UNL     1      -5.332  -4.647 130.619  0.00  0.00    +0.000 C 
ATOM     16  C   UNL     1      -4.142  -3.740 130.309  0.00  0.00    +0.000 C 
ATOM     17  C   UNL     1      -4.342  -3.094 128.935  0.00  0.00    +0.000 C 
ENDBRANCH  13  16
ENDBRANCH  12  13
ENDBRANCH   9  12
ENDBRANCH   8   9
ENDBRANCH   7   8
ENDBRANCH   1   7
BRANCH   4  18
ATOM     18  C   UNL     1      -9.084  -3.273 125.404  0.00  0.00    +0.000 C 
BRANCH  18  19
ATOM     19  C   UNL     1      -8.747  -2.241 124.334  0.00  0.00    +0.000 C 
BRANCH  19  20
ATOM     20  O   UNL     1      -7.909  -2.766 123.315  0.00  0.00    +0.000 OA
BRANCH  20  21
ATOM     21  C   UNL     1      -6.753  -1.933 123.214  0.00  0.00    +0.000 C 
BRANCH  21  22
ATOM     22  C   UNL     1      -5.662  -2.507 124.042  0.00  0.00    +0.000 C 
ATOM     23  C   UNL     1      -5.501  -4.003 124.065  0.00  0.00    +0.000 C 
ATOM     24  C   UNL     1      -4.458  -3.147 123.401  0.00  0.00    +0.000 C 
ENDBRANCH  21  22
ENDBRANCH  20  21
ENDBRANCH  19  20
ENDBRANCH  18  19
ENDBRANCH   4  18
TORSDOF 12
ENDMDL
MODEL 5
REMARK VINA RESULT:      -5.4      8.118      9.838
REMARK  Name = Betaxolol
REMARK  14 active torsions:
REMARK  status: ('A' for Active; 'I' for Inactive)
REMARK    1  A    between atoms: C_1  and  C_2
REMARK    2  A    between atoms: C_2  and  C_3
REMARK    3  A    between atoms: C_2  and  N_4
REMARK    4  A    between atoms: N_4  and  C_5
REMARK    5  A    between atoms: C_5  and  C_6
REMARK    6  A    between atoms: C_6  and  O_7
REMARK    7  A    between atoms: C_6  and  C_8
REMARK    8  A    between atoms: C_8  and  O_9
REMARK    9  A    between atoms: O_9  and  C_10
REMARK   10  A    between atoms: C_13  and  C_14
REMARK   11  A    between atoms: C_14  and  C_15
REMARK   12  A    between atoms: C_15  and  O_16
REMARK   13  A    between atoms: O_16  and  C_17
REMARK   14  A    between atoms: C_17  and  C_18
REMARK                            x       y       z     vdW  Elec       q    Type
REMARK                         _______ _______ _______ _____ _____    ______ ____
ROOT
ATOM      1  C   UNL     1      -7.923   5.466 130.676  0.00  0.00    +0.000 A 
ATOM      2  C   UNL     1      -6.984   4.487 130.341  0.00  0.00    +0.000 A 
ATOM      3  C   UNL     1      -5.616   4.768 130.407  0.00  0.00    +0.000 A 
ATOM      4  C   UNL     1      -5.175   6.044 130.764  0.00  0.00    +0.000 A 
ATOM      5  C   UNL     1      -6.137   7.007 131.120  0.00  0.00    +0.000 A 
ATOM      6  C   UNL     1      -7.496   6.720 131.078  0.00  0.00    +0.000 A 
ENDROOT
BRANCH   1   7
ATOM      7  O   UNL     1      -9.227   5.067 130.673  0.00  0.00    +0.000 OA
BRANCH   7   8
ATOM      8  C   UNL     1     -10.014   5.544 131.763  0.00  0.00    +0.000 C 
BRANCH   8   9
ATOM      9  C   UNL     1     -11.196   6.339 131.195  0.00  0.00    +0.000 C 
BRANCH   9  10
ATOM     10  O   UNL     1     -12.312   6.338 132.095  0.00  0.00    +0.000 OA
ATOM     11  H   UNL     1     -12.007   5.973 132.941  0.00  0.00    +0.000 HD
ENDBRANCH   9  10
BRANCH   9  12
ATOM     12  C   UNL     1     -11.618   5.709 129.862  0.00  0.00    +0.000 C 
BRANCH  12  13
ATOM     13  N   UNL     1     -11.025   6.423 128.730  0.00  0.00    +0.000 NA
ATOM     14  H   UNL     1     -10.209   6.944 129.065  0.00  0.00    +0.000 HD
BRANCH  13  16
ATOM     15  C   UNL     1     -11.747   7.239 126.551  0.00  0.00    +0.000 C 
ATOM     16  C   UNL     1     -11.978   7.311 128.060  0.00  0.00    +0.000 C 
ATOM     17  C   UNL     1     -13.421   6.904 128.372  0.00  0.00    +0.000 C 
ENDBRANCH  13  16
ENDBRANCH  12  13
ENDBRANCH   9  12
ENDBRANCH   8   9
ENDBRANCH   7   8
ENDBRANCH   1   7
BRANCH   4  18
ATOM     18  C   UNL     1      -3.695   6.364 130.721  0.00  0.00    +0.000 C 
BRANCH  18  19
ATOM     19  C   UNL     1      -2.891   5.295 129.991  0.00  0.00    +0.000 C 
BRANCH  19  20
ATOM     20  O   UNL     1      -2.240   5.799 128.833  0.00  0.00    +0.000 OA
BRANCH  20  21
ATOM     21  C   UNL     1      -2.836   5.191 127.687  0.00  0.00    +0.000 C 
BRANCH  21  22
ATOM     22  C   UNL     1      -2.570   3.730 127.712  0.00  0.00    +0.000 C 
ATOM     23  C   UNL     1      -3.175   2.880 126.627  0.00  0.00    +0.000 C 
ATOM     24  C   UNL     1      -1.686   3.085 126.677  0.00  0.00    +0.000 C 
ENDBRANCH  21  22
ENDBRANCH  20  21
ENDBRANCH  19  20
ENDBRANCH  18  19
ENDBRANCH   4  18
TORSDOF 12
ENDMDL
MODEL 6
REMARK VINA RESULT:      -5.3      7.911      9.703
REMARK  Name = Betaxolol
REMARK  14 active torsions:
REMARK  status: ('A' for Active; 'I' for Inactive)
REMARK    1  A    between atoms: C_1  and  C_2
REMARK    2  A    between atoms: C_2  and  C_3
REMARK    3  A    between atoms: C_2  and  N_4
REMARK    4  A    between atoms: N_4  and  C_5
REMARK    5  A    between atoms: C_5  and  C_6
REMARK    6  A    between atoms: C_6  and  O_7
REMARK    7  A    between atoms: C_6  and  C_8
REMARK    8  A    between atoms: C_8  and  O_9
REMARK    9  A    between atoms: O_9  and  C_10
REMARK   10  A    between atoms: C_13  and  C_14
REMARK   11  A    between atoms: C_14  and  C_15
REMARK   12  A    between atoms: C_15  and  O_16
REMARK   13  A    between atoms: O_16  and  C_17
REMARK   14  A    between atoms: C_17  and  C_18
REMARK                            x       y       z     vdW  Elec       q    Type
REMARK                         _______ _______ _______ _____ _____    ______ ____
ROOT
ATOM      1  C   UNL     1      -8.054   6.344 132.142  0.00  0.00    +0.000 A 
ATOM      2  C   UNL     1      -7.401   6.962 131.073  0.00  0.00    +0.000 A 
ATOM      3  C   UNL     1      -6.010   6.893 130.959  0.00  0.00    +0.000 A 
ATOM      4  C   UNL     1      -5.254   6.243 131.937  0.00  0.00    +0.000 A 
ATOM      5  C   UNL     1      -5.932   5.608 132.992  0.00  0.00    +0.000 A 
ATOM      6  C   UNL     1      -7.318   5.655 133.092  0.00  0.00    +0.000 A 
ENDROOT
BRANCH   1   7
ATOM      7  O   UNL     1      -9.417   6.385 132.115  0.00  0.00    +0.000 OA
BRANCH   7   8
ATOM      8  C   UNL     1      -9.992   6.712 130.851  0.00  0.00    +0.000 C 
BRANCH   8   9
ATOM      9  C   UNL     1     -11.338   5.987 130.731  0.00  0.00    +0.000 C 
BRANCH   9  10
ATOM     10  O   UNL     1     -12.103   6.094 131.939  0.00  0.00    +0.000 OA
ATOM     11  H   UNL     1     -12.714   6.841 131.835  0.00  0.00    +0.000 HD
ENDBRANCH   9  10
BRANCH   9  12
ATOM     12  C   UNL     1     -11.075   4.508 130.426  0.00  0.00    +0.000 C 
BRANCH  12  13
ATOM     13  N   UNL     1      -9.814   4.335 129.702  0.00  0.00    +0.000 NA
ATOM     14  H   UNL     1     -10.017   4.303 128.698  0.00  0.00    +0.000 HD
BRANCH  13  16
ATOM     15  C   UNL     1      -7.579   3.411 129.991  0.00  0.00    +0.000 C 
ATOM     16  C   UNL     1      -9.077   3.143 130.128  0.00  0.00    +0.000 C 
ATOM     17  C   UNL     1      -9.397   2.790 131.584  0.00  0.00    +0.000 C 
ENDBRANCH  13  16
ENDBRANCH  12  13
ENDBRANCH   9  12
ENDBRANCH   8   9
ENDBRANCH   7   8
ENDBRANCH   1   7
BRANCH   4  18
ATOM     18  C   UNL     1      -3.741   6.275 131.857  0.00  0.00    +0.000 C 
BRANCH  18  19
ATOM     19  C   UNL     1      -3.234   7.266 130.816  0.00  0.00    +0.000 C 
BRANCH  19  20
ATOM     20  O   UNL     1      -2.238   6.708 129.972  0.00  0.00    +0.000 OA
BRANCH  20  21
ATOM     21  C   UNL     1      -2.795   6.555 128.665  0.00  0.00    +0.000 C 
BRANCH  21  22
ATOM     22  C   UNL     1      -2.570   5.164 128.196  0.00  0.00    +0.000 C 
ATOM     23  C   UNL     1      -3.360   4.060 128.846  0.00  0.00    +0.000 C 
ATOM     24  C   UNL     1      -3.627   4.430 127.413  0.00  0.00    +0.000 C 
ENDBRANCH  21  22
ENDBRANCH  20  21
ENDBRANCH  19  20
ENDBRANCH  18  19
ENDBRANCH   4  18
TORSDOF 12
ENDMDL
MODEL 7
REMARK VINA RESULT:      -5.3      6.418      8.321
REMARK  Name = Betaxolol
REMARK  14 active torsions:
REMARK  status: ('A' for Active; 'I' for Inactive)
REMARK    1  A    between atoms: C_1  and  C_2
REMARK    2  A    between atoms: C_2  and  C_3
REMARK    3  A    between atoms: C_2  and  N_4
REMARK    4  A    between atoms: N_4  and  C_5
REMARK    5  A    between atoms: C_5  and  C_6
REMARK    6  A    between atoms: C_6  and  O_7
REMARK    7  A    between atoms: C_6  and  C_8
REMARK    8  A    between atoms: C_8  and  O_9
REMARK    9  A    between atoms: O_9  and  C_10
REMARK   10  A    between atoms: C_13  and  C_14
REMARK   11  A    between atoms: C_14  and  C_15
REMARK   12  A    between atoms: C_15  and  O_16
REMARK   13  A    between atoms: O_16  and  C_17
REMARK   14  A    between atoms: C_17  and  C_18
REMARK                            x       y       z     vdW  Elec       q    Type
REMARK                         _______ _______ _______ _____ _____    ______ ____
ROOT
ATOM      1  C   UNL     1     -10.077   2.963 130.520  0.00  0.00    +0.000 A 
ATOM      2  C   UNL     1      -9.119   2.612 129.566  0.00  0.00    +0.000 A 
ATOM      3  C   UNL     1      -8.321   1.479 129.749  0.00  0.00    +0.000 A 
ATOM      4  C   UNL     1      -8.442   0.712 130.909  0.00  0.00    +0.000 A 
ATOM      5  C   UNL     1      -9.429   1.069 131.846  0.00  0.00    +0.000 A 
ATOM      6  C   UNL     1     -10.239   2.182 131.652  0.00  0.00    +0.000 A 
ENDROOT
BRANCH   1   7
ATOM      7  O   UNL     1     -10.870   4.028 130.206  0.00  0.00    +0.000 OA
BRANCH   7   8
ATOM      8  C   UNL     1     -10.207   5.291 130.163  0.00  0.00    +0.000 C 
BRANCH   8   9
ATOM      9  C   UNL     1     -11.070   6.315 130.910  0.00  0.00    +0.000 C 
BRANCH   9  10
ATOM     10  O   UNL     1     -11.568   5.783 132.145  0.00  0.00    +0.000 OA
ATOM     11  H   UNL     1     -11.407   4.827 132.139  0.00  0.00    +0.000 HD
ENDBRANCH   9  10
BRANCH   9  12
ATOM     12  C   UNL     1     -12.250   6.710 130.014  0.00  0.00    +0.000 C 
BRANCH  12  13
ATOM     13  N   UNL     1     -12.025   6.292 128.629  0.00  0.00    +0.000 NA
ATOM     14  H   UNL     1     -11.033   6.062 128.516  0.00  0.00    +0.000 HD
BRANCH  13  16
ATOM     15  C   UNL     1     -12.616   8.642 128.377  0.00  0.00    +0.000 C 
ATOM     16  C   UNL     1     -12.445   7.304 127.657  0.00  0.00    +0.000 C 
ATOM     17  C   UNL     1     -11.408   7.459 126.542  0.00  0.00    +0.000 C 
ENDBRANCH  13  16
ENDBRANCH  12  13
ENDBRANCH   9  12
ENDBRANCH   8   9
ENDBRANCH   7   8
ENDBRANCH   1   7
BRANCH   4  18
ATOM     18  C   UNL     1      -7.494  -0.446 131.144  0.00  0.00    +0.000 C 
BRANCH  18  19
ATOM     19  C   UNL     1      -6.751  -0.855 129.877  0.00  0.00    +0.000 C 
BRANCH  19  20
ATOM     20  O   UNL     1      -6.636  -2.264 129.743  0.00  0.00    +0.000 OA
BRANCH  20  21
ATOM     21  C   UNL     1      -6.804  -2.596 128.364  0.00  0.00    +0.000 C 
BRANCH  21  22
ATOM     22  C   UNL     1      -8.253  -2.706 128.059  0.00  0.00    +0.000 C 
ATOM     23  C   UNL     1      -8.657  -3.320 126.745  0.00  0.00    +0.000 C 
ATOM     24  C   UNL     1      -8.941  -4.046 128.031  0.00  0.00    +0.000 C 
ENDBRANCH  21  22
ENDBRANCH  20  21
ENDBRANCH  19  20
ENDBRANCH  18  19
ENDBRANCH   4  18
TORSDOF 12
ENDMDL
MODEL 8
REMARK VINA RESULT:      -5.3      8.619     10.221
REMARK  Name = Betaxolol
REMARK  14 active torsions:
REMARK  status: ('A' for Active; 'I' for Inactive)
REMARK    1  A    between atoms: C_1  and  C_2
REMARK    2  A    between atoms: C_2  and  C_3
REMARK    3  A    between atoms: C_2  and  N_4
REMARK    4  A    between atoms: N_4  and  C_5
REMARK    5  A    between atoms: C_5  and  C_6
REMARK    6  A    between atoms: C_6  and  O_7
REMARK    7  A    between atoms: C_6  and  C_8
REMARK    8  A    between atoms: C_8  and  O_9
REMARK    9  A    between atoms: O_9  and  C_10
REMARK   10  A    between atoms: C_13  and  C_14
REMARK   11  A    between atoms: C_14  and  C_15
REMARK   12  A    between atoms: C_15  and  O_16
REMARK   13  A    between atoms: O_16  and  C_17
REMARK   14  A    between atoms: C_17  and  C_18
REMARK                            x       y       z     vdW  Elec       q    Type
REMARK                         _______ _______ _______ _____ _____    ______ ____
ROOT
ATOM      1  C   UNL     1      -8.820   5.445 130.142  0.00  0.00    +0.000 A 
ATOM      2  C   UNL     1      -8.010   4.385 130.555  0.00  0.00    +0.000 A 
ATOM      3  C   UNL     1      -6.851   4.628 131.297  0.00  0.00    +0.000 A 
ATOM      4  C   UNL     1      -6.466   5.937 131.594  0.00  0.00    +0.000 A 
ATOM      5  C   UNL     1      -7.308   6.988 131.189  0.00  0.00    +0.000 A 
ATOM      6  C   UNL     1      -8.474   6.745 130.473  0.00  0.00    +0.000 A 
ENDROOT
BRANCH   1   7
ATOM      7  O   UNL     1      -9.977   5.101 129.507  0.00  0.00    +0.000 OA
BRANCH   7   8
ATOM      8  C   UNL     1     -11.097   4.871 130.361  0.00  0.00    +0.000 C 
BRANCH   8   9
ATOM      9  C   UNL     1     -11.634   6.229 130.831  0.00  0.00    +0.000 C 
BRANCH   9  10
ATOM     10  O   UNL     1     -12.193   6.146 132.148  0.00  0.00    +0.000 OA
ATOM     11  H   UNL     1     -12.262   5.206 132.380  0.00  0.00    +0.000 HD
ENDBRANCH   9  10
BRANCH   9  12
ATOM     12  C   UNL     1     -12.714   6.696 129.848  0.00  0.00    +0.000 C 
BRANCH  12  13
ATOM     13  N   UNL     1     -12.249   6.594 128.464  0.00  0.00    +0.000 NA
ATOM     14  H   UNL     1     -11.377   6.056 128.452  0.00  0.00    +0.000 HD
BRANCH  13  16
ATOM     15  C   UNL     1     -12.926   8.932 128.566  0.00  0.00    +0.000 C 
ATOM     16  C   UNL     1     -12.069   7.902 127.830  0.00  0.00    +0.000 C 
ATOM     17  C   UNL     1     -10.603   8.338 127.876  0.00  0.00    +0.000 C 
ENDBRANCH  13  16
ENDBRANCH  12  13
ENDBRANCH   9  12
ENDBRANCH   8   9
ENDBRANCH   7   8
ENDBRANCH   1   7
BRANCH   4  18
ATOM     18  C   UNL     1      -5.149   6.188 132.301  0.00  0.00    +0.000 C 
BRANCH  18  19
ATOM     19  C   UNL     1      -4.162   6.959 131.433  0.00  0.00    +0.000 C 
BRANCH  19  20
ATOM     20  O   UNL     1      -2.810   6.681 131.767  0.00  0.00    +0.000 OA
BRANCH  20  21
ATOM     21  C   UNL     1      -2.221   5.964 130.682  0.00  0.00    +0.000 C 
BRANCH  21  22
ATOM     22  C   UNL     1      -2.994   6.227 129.442  0.00  0.00    +0.000 C 
ATOM     23  C   UNL     1      -2.264   6.809 128.261  0.00  0.00    +0.000 C 
ATOM     24  C   UNL     1      -2.780   5.398 128.203  0.00  0.00    +0.000 C 
ENDBRANCH  21  22
ENDBRANCH  20  21
ENDBRANCH  19  20
ENDBRANCH  18  19
ENDBRANCH   4  18
TORSDOF 12
ENDMDL
MODEL 9
REMARK VINA RESULT:      -5.3      6.011      9.220
REMARK  Name = Betaxolol
REMARK  14 active torsions:
REMARK  status: ('A' for Active; 'I' for Inactive)
REMARK    1  A    between atoms: C_1  and  C_2
REMARK    2  A    between atoms: C_2  and  C_3
REMARK    3  A    between atoms: C_2  and  N_4
REMARK    4  A    between atoms: N_4  and  C_5
REMARK    5  A    between atoms: C_5  and  C_6
REMARK    6  A    between atoms: C_6  and  O_7
REMARK    7  A    between atoms: C_6  and  C_8
REMARK    8  A    between atoms: C_8  and  O_9
REMARK    9  A    between atoms: O_9  and  C_10
REMARK   10  A    between atoms: C_13  and  C_14
REMARK   11  A    between atoms: C_14  and  C_15
REMARK   12  A    between atoms: C_15  and  O_16
REMARK   13  A    between atoms: O_16  and  C_17
REMARK   14  A    between atoms: C_17  and  C_18
REMARK                            x       y       z     vdW  Elec       q    Type
REMARK                         _______ _______ _______ _____ _____    ______ ____
ROOT
ATOM      1  C   UNL     1      -7.531   2.672 124.148  0.00  0.00    +0.000 A 
ATOM      2  C   UNL     1      -6.686   3.565 124.810  0.00  0.00    +0.000 A 
ATOM      3  C   UNL     1      -5.744   4.310 124.094  0.00  0.00    +0.000 A 
ATOM      4  C   UNL     1      -5.607   4.135 122.716  0.00  0.00    +0.000 A 
ATOM      5  C   UNL     1      -6.484   3.248 122.065  0.00  0.00    +0.000 A 
ATOM      6  C   UNL     1      -7.438   2.526 122.774  0.00  0.00    +0.000 A 
ENDROOT
BRANCH   1   7
ATOM      7  O   UNL     1      -8.479   2.064 124.918  0.00  0.00    +0.000 OA
BRANCH   7   8
ATOM      8  C   UNL     1      -8.591   0.652 124.746  0.00  0.00    +0.000 C 
BRANCH   8   9
ATOM      9  C   UNL     1      -8.771   0.011 126.128  0.00  0.00    +0.000 C 
BRANCH   9  10
ATOM     10  O   UNL     1      -7.881   0.584 127.094  0.00  0.00    +0.000 OA
ATOM     11  H   UNL     1      -7.214   1.097 126.612  0.00  0.00    +0.000 HD
ENDBRANCH   9  10
BRANCH   9  12
ATOM     12  C   UNL     1      -8.495  -1.493 126.012  0.00  0.00    +0.000 C 
BRANCH  12  13
ATOM     13  N   UNL     1      -9.655  -2.202 125.470  0.00  0.00    +0.000 NA
ATOM     14  H   UNL     1     -10.188  -2.600 126.250  0.00  0.00    +0.000 HD
BRANCH  13  16
ATOM     15  C   UNL     1      -9.331  -2.647 123.097  0.00  0.00    +0.000 C 
ATOM     16  C   UNL     1      -9.283  -3.240 124.505  0.00  0.00    +0.000 C 
ATOM     17  C   UNL     1      -7.874  -3.770 124.784  0.00  0.00    +0.000 C 
ENDBRANCH  13  16
ENDBRANCH  12  13
ENDBRANCH   9  12
ENDBRANCH   8   9
ENDBRANCH   7   8
ENDBRANCH   1   7
BRANCH   4  18
ATOM     18  C   UNL     1      -4.507   4.866 121.974  0.00  0.00    +0.000 C 
BRANCH  18  19
ATOM     19  C   UNL     1      -4.724   4.866 120.466  0.00  0.00    +0.000 C 
BRANCH  19  20
ATOM     20  O   UNL     1      -5.075   6.148 119.965  0.00  0.00    +0.000 OA
BRANCH  20  21
ATOM     21  C   UNL     1      -5.893   5.967 118.808  0.00  0.00    +0.000 C 
BRANCH  21  22
ATOM     22  C   UNL     1      -6.540   4.632 118.869  0.00  0.00    +0.000 C 
ATOM     23  C   UNL     1      -8.027   4.575 119.094  0.00  0.00    +0.000 C 
ATOM     24  C   UNL     1      -7.452   4.162 117.767  0.00  0.00    +0.000 C 
ENDBRANCH  21  22
ENDBRANCH  20  21
ENDBRANCH  19  20
ENDBRANCH  18  19
ENDBRANCH   4  18
TORSDOF 12
ENDMDL
