MODEL 1
REMARK VINA RESULT:      -4.7      0.000      0.000
REMARK  Name = Betazole
REMARK  3 active torsions:
REMARK  status: ('A' for Active; 'I' for Inactive)
REMARK    1  A    between atoms: N_1  and  C_2
REMARK    2  A    between atoms: C_2  and  C_3
REMARK    3  A    between atoms: C_3  and  C_4
REMARK                            x       y       z     vdW  Elec       q    Type
REMARK                         _______ _______ _______ _____ _____    ______ ____
ROOT
ATOM      1  C   UNL     1      -6.876   3.905 120.702  0.00  0.00    +0.000 A 
ATOM      2  C   UNL     1      -7.831   4.160 119.744  0.00  0.00    +0.000 A 
ATOM      3  C   UNL     1      -9.052   3.845 120.363  0.00  0.00    +0.000 A 
ATOM      4  N   UNL     1      -8.891   3.421 121.618  0.00  0.00    +0.000 NA
ATOM      5  N   UNL     1      -7.560   3.461 121.802  0.00  0.00    +0.000 N 
ATOM      6  H   UNL     1      -7.192   3.176 122.704  0.00  0.00    +0.000 HD
ENDROOT
BRANCH   1   7
ATOM      7  C   UNL     1      -5.396   4.060 120.670  0.00  0.00    +0.000 C 
BRANCH   7   8
ATOM      8  C   UNL     1      -4.997   5.417 120.079  0.00  0.00    +0.000 C 
BRANCH   8   9
ATOM      9  N   UNL     1      -4.205   6.192 121.031  0.00  0.00    +0.000 NA
ATOM     10  H   UNL     1      -3.435   6.641 120.535  0.00  0.00    +0.000 HD
ATOM     11  H   UNL     1      -3.771   5.559 121.704  0.00  0.00    +0.000 HD
ENDBRANCH   8   9
ENDBRANCH   7   8
ENDBRANCH   1   7
TORSDOF 3
ENDMDL
MODEL 2
REMARK VINA RESULT:      -4.5      1.364      1.611
REMARK  Name = Betazole
REMARK  3 active torsions:
REMARK  status: ('A' for Active; 'I' for Inactive)
REMARK    1  A    between atoms: N_1  and  C_2
REMARK    2  A    between atoms: C_2  and  C_3
REMARK    3  A    between atoms: C_3  and  C_4
REMARK                            x       y       z     vdW  Elec       q    Type
REMARK                         _______ _______ _______ _____ _____    ______ ____
ROOT
ATOM      1  C   UNL     1      -6.489   3.512 121.566  0.00  0.00    +0.000 A 
ATOM      2  C   UNL     1      -6.872   2.847 122.709  0.00  0.00    +0.000 A 
ATOM      3  C   UNL     1      -8.276   2.850 122.672  0.00  0.00    +0.000 A 
ATOM      4  N   UNL     1      -8.754   3.468 121.591  0.00  0.00    +0.000 NA
ATOM      5  N   UNL     1      -7.651   3.868 120.935  0.00  0.00    +0.000 N 
ATOM      6  H   UNL     1      -7.769   4.371 120.061  0.00  0.00    +0.000 HD
ENDROOT
BRANCH   1   7
ATOM      7  C   UNL     1      -5.138   3.820 121.022  0.00  0.00    +0.000 C 
BRANCH   7   8
ATOM      8  C   UNL     1      -5.151   5.130 120.227  0.00  0.00    +0.000 C 
BRANCH   8   9
ATOM      9  N   UNL     1      -4.329   6.148 120.878  0.00  0.00    +0.000 NA
ATOM     10  H   UNL     1      -4.730   7.067 120.695  0.00  0.00    +0.000 HD
ATOM     11  H   UNL     1      -3.402   6.158 120.450  0.00  0.00    +0.000 HD
ENDBRANCH   8   9
ENDBRANCH   7   8
ENDBRANCH   1   7
TORSDOF 3
ENDMDL
MODEL 3
REMARK VINA RESULT:      -4.4     10.762     11.611
REMARK  Name = Betazole
REMARK  3 active torsions:
REMARK  status: ('A' for Active; 'I' for Inactive)
REMARK    1  A    between atoms: N_1  and  C_2
REMARK    2  A    between atoms: C_2  and  C_3
REMARK    3  A    between atoms: C_3  and  C_4
REMARK                            x       y       z     vdW  Elec       q    Type
REMARK                         _______ _______ _______ _____ _____    ______ ____
ROOT
ATOM      1  C   UNL     1     -12.757   9.014 128.959  0.00  0.00    +0.000 A 
ATOM      2  C   UNL     1     -13.467   8.040 128.296  0.00  0.00    +0.000 A 
ATOM      3  C   UNL     1     -12.568   7.523 127.348  0.00  0.00    +0.000 A 
ATOM      4  N   UNL     1     -11.377   8.121 127.399  0.00  0.00    +0.000 NA
ATOM      5  N   UNL     1     -11.514   9.028 128.382  0.00  0.00    +0.000 N 
ATOM      6  H   UNL     1     -10.718   9.615 128.607  0.00  0.00    +0.000 HD
ENDROOT
BRANCH   1   7
ATOM      7  C   UNL     1     -13.143   9.909 130.085  0.00  0.00    +0.000 C 
BRANCH   7   8
ATOM      8  C   UNL     1     -13.732  11.225 129.564  0.00  0.00    +0.000 C 
BRANCH   8   9
ATOM      9  N   UNL     1     -13.804  12.225 130.626  0.00  0.00    +0.000 NA
ATOM     10  H   UNL     1     -12.980  12.140 131.220  0.00  0.00    +0.000 HD
ATOM     11  H   UNL     1     -14.603  12.022 131.228  0.00  0.00    +0.000 HD
ENDBRANCH   8   9
ENDBRANCH   7   8
ENDBRANCH   1   7
TORSDOF 3
ENDMDL
MODEL 4
REMARK VINA RESULT:      -4.4      9.552     10.483
REMARK  Name = Betazole
REMARK  3 active torsions:
REMARK  status: ('A' for Active; 'I' for Inactive)
REMARK    1  A    between atoms: N_1  and  C_2
REMARK    2  A    between atoms: C_2  and  C_3
REMARK    3  A    between atoms: C_3  and  C_4
REMARK                            x       y       z     vdW  Elec       q    Type
REMARK                         _______ _______ _______ _____ _____    ______ ____
ROOT
ATOM      1  C   UNL     1     -12.054   8.115 128.515  0.00  0.00    +0.000 A 
ATOM      2  C   UNL     1     -10.862   8.366 127.875  0.00  0.00    +0.000 A 
ATOM      3  C   UNL     1     -10.938   7.637 126.676  0.00  0.00    +0.000 A 
ATOM      4  N   UNL     1     -12.088   6.971 126.560  0.00  0.00    +0.000 NA
ATOM      5  N   UNL     1     -12.750   7.271 127.690  0.00  0.00    +0.000 N 
ATOM      6  H   UNL     1     -13.672   6.869 127.828  0.00  0.00    +0.000 HD
ENDROOT
BRANCH   1   7
ATOM      7  C   UNL     1     -12.588   8.610 129.813  0.00  0.00    +0.000 C 
BRANCH   7   8
ATOM      8  C   UNL     1     -13.054  10.066 129.697  0.00  0.00    +0.000 C 
BRANCH   8   9
ATOM      9  N   UNL     1     -13.815  10.277 128.467  0.00  0.00    +0.000 NA
ATOM     10  H   UNL     1     -14.105  11.253 128.419  0.00  0.00    +0.000 HD
ATOM     11  H   UNL     1     -14.677   9.731 128.505  0.00  0.00    +0.000 HD
ENDBRANCH   8   9
ENDBRANCH   7   8
ENDBRANCH   1   7
TORSDOF 3
ENDMDL
MODEL 5
REMARK VINA RESULT:      -4.3      9.452     10.133
REMARK  Name = Betazole
REMARK  3 active torsions:
REMARK  status: ('A' for Active; 'I' for Inactive)
REMARK    1  A    between atoms: N_1  and  C_2
REMARK    2  A    between atoms: C_2  and  C_3
REMARK    3  A    between atoms: C_3  and  C_4
REMARK                            x       y       z     vdW  Elec       q    Type
REMARK                         _______ _______ _______ _____ _____    ______ ____
ROOT
ATOM      1  C   UNL     1     -11.442   7.841 129.155  0.00  0.00    +0.000 A 
ATOM      2  C   UNL     1     -12.492   8.323 129.903  0.00  0.00    +0.000 A 
ATOM      3  C   UNL     1     -12.754   7.314 130.845  0.00  0.00    +0.000 A 
ATOM      4  N   UNL     1     -11.937   6.268 130.709  0.00  0.00    +0.000 NA
ATOM      5  N   UNL     1     -11.150   6.607 129.673  0.00  0.00    +0.000 N 
ATOM      6  H   UNL     1     -10.434   5.950 129.380  0.00  0.00    +0.000 HD
ENDROOT
BRANCH   1   7
ATOM      7  C   UNL     1     -10.693   8.446 128.019  0.00  0.00    +0.000 C 
BRANCH   7   8
ATOM      8  C   UNL     1     -10.926   7.658 126.725  0.00  0.00    +0.000 C 
BRANCH   8   9
ATOM      9  N   UNL     1     -10.018   6.518 126.632  0.00  0.00    +0.000 NA
ATOM     10  H   UNL     1      -9.057   6.857 126.627  0.00  0.00    +0.000 HD
ATOM     11  H   UNL     1     -10.154   6.050 125.735  0.00  0.00    +0.000 HD
ENDBRANCH   8   9
ENDBRANCH   7   8
ENDBRANCH   1   7
TORSDOF 3
ENDMDL
MODEL 6
REMARK VINA RESULT:      -4.2      9.384     10.415
REMARK  Name = Betazole
REMARK  3 active torsions:
REMARK  status: ('A' for Active; 'I' for Inactive)
REMARK    1  A    between atoms: N_1  and  C_2
REMARK    2  A    between atoms: C_2  and  C_3
REMARK    3  A    between atoms: C_3  and  C_4
REMARK                            x       y       z     vdW  Elec       q    Type
REMARK                         _______ _______ _______ _____ _____    ______ ____
ROOT
ATOM      1  C   UNL     1     -12.033   8.028 128.567  0.00  0.00    +0.000 A 
ATOM      2  C   UNL     1     -10.906   8.375 127.858  0.00  0.00    +0.000 A 
ATOM      3  C   UNL     1     -10.972   7.608 126.682  0.00  0.00    +0.000 A 
ATOM      4  N   UNL     1     -12.056   6.830 126.644  0.00  0.00    +0.000 NA
ATOM      5  N   UNL     1     -12.685   7.097 127.801  0.00  0.00    +0.000 N 
ATOM      6  H   UNL     1     -13.554   6.612 127.998  0.00  0.00    +0.000 HD
ENDROOT
BRANCH   1   7
ATOM      7  C   UNL     1     -12.546   8.505 129.881  0.00  0.00    +0.000 C 
BRANCH   7   8
ATOM      8  C   UNL     1     -12.888   7.327 130.799  0.00  0.00    +0.000 C 
BRANCH   8   9
ATOM      9  N   UNL     1     -11.878   6.276 130.706  0.00  0.00    +0.000 NA
ATOM     10  H   UNL     1     -12.337   5.390 130.500  0.00  0.00    +0.000 HD
ATOM     11  H   UNL     1     -11.431   6.155 131.616  0.00  0.00    +0.000 HD
ENDBRANCH   8   9
ENDBRANCH   7   8
ENDBRANCH   1   7
TORSDOF 3
ENDMDL
MODEL 7
REMARK VINA RESULT:      -4.2     10.155     11.071
REMARK  Name = Betazole
REMARK  3 active torsions:
REMARK  status: ('A' for Active; 'I' for Inactive)
REMARK    1  A    between atoms: N_1  and  C_2
REMARK    2  A    between atoms: C_2  and  C_3
REMARK    3  A    between atoms: C_3  and  C_4
REMARK                            x       y       z     vdW  Elec       q    Type
REMARK                         _______ _______ _______ _____ _____    ______ ____
ROOT
ATOM      1  C   UNL     1     -11.877   7.806 129.696  0.00  0.00    +0.000 A 
ATOM      2  C   UNL     1     -12.322   8.241 128.468  0.00  0.00    +0.000 A 
ATOM      3  C   UNL     1     -11.156   8.415 127.705  0.00  0.00    +0.000 A 
ATOM      4  N   UNL     1     -10.051   8.116 128.391  0.00  0.00    +0.000 NA
ATOM      5  N   UNL     1     -10.512   7.753 129.600  0.00  0.00    +0.000 N 
ATOM      6  H   UNL     1      -9.838   7.476 130.307  0.00  0.00    +0.000 HD
ENDROOT
BRANCH   1   7
ATOM      7  C   UNL     1     -12.624   7.427 130.927  0.00  0.00    +0.000 C 
BRANCH   7   8
ATOM      8  C   UNL     1     -11.766   6.544 131.840  0.00  0.00    +0.000 C 
BRANCH   8   9
ATOM      9  N   UNL     1     -11.417   5.288 131.180  0.00  0.00    +0.000 NA
ATOM     10  H   UNL     1     -11.554   5.391 130.175  0.00  0.00    +0.000 HD
ATOM     11  H   UNL     1     -12.066   4.558 131.477  0.00  0.00    +0.000 HD
ENDBRANCH   8   9
ENDBRANCH   7   8
ENDBRANCH   1   7
TORSDOF 3
ENDMDL
MODEL 8
REMARK VINA RESULT:      -4.2      9.891     10.683
REMARK  Name = Betazole
REMARK  3 active torsions:
REMARK  status: ('A' for Active; 'I' for Inactive)
REMARK    1  A    between atoms: N_1  and  C_2
REMARK    2  A    between atoms: C_2  and  C_3
REMARK    3  A    between atoms: C_3  and  C_4
REMARK                            x       y       z     vdW  Elec       q    Type
REMARK                         _______ _______ _______ _____ _____    ______ ____
ROOT
ATOM      1  C   UNL     1     -11.841   7.731 129.524  0.00  0.00    +0.000 A 
ATOM      2  C   UNL     1     -10.843   7.061 130.194  0.00  0.00    +0.000 A 
ATOM      3  C   UNL     1     -11.450   6.598 131.373  0.00  0.00    +0.000 A 
ATOM      4  N   UNL     1     -12.736   6.945 131.452  0.00  0.00    +0.000 NA
ATOM      5  N   UNL     1     -12.952   7.638 130.321  0.00  0.00    +0.000 N 
ATOM      6  H   UNL     1     -13.881   8.011 130.157  0.00  0.00    +0.000 HD
ENDROOT
BRANCH   1   7
ATOM      7  C   UNL     1     -11.837   8.427 128.208  0.00  0.00    +0.000 C 
BRANCH   7   8
ATOM      8  C   UNL     1     -10.873   7.749 127.230  0.00  0.00    +0.000 C 
BRANCH   8   9
ATOM      9  N   UNL     1     -11.576   6.793 126.376  0.00  0.00    +0.000 NA
ATOM     10  H   UNL     1     -11.351   5.847 126.681  0.00  0.00    +0.000 HD
ATOM     11  H   UNL     1     -11.223   6.870 125.421  0.00  0.00    +0.000 HD
ENDBRANCH   8   9
ENDBRANCH   7   8
ENDBRANCH   1   7
TORSDOF 3
ENDMDL
MODEL 9
REMARK VINA RESULT:      -3.9     11.366     11.689
REMARK  Name = Betazole
REMARK  3 active torsions:
REMARK  status: ('A' for Active; 'I' for Inactive)
REMARK    1  A    between atoms: N_1  and  C_2
REMARK    2  A    between atoms: C_2  and  C_3
REMARK    3  A    between atoms: C_3  and  C_4
REMARK                            x       y       z     vdW  Elec       q    Type
REMARK                         _______ _______ _______ _____ _____    ______ ____
ROOT
ATOM      1  C   UNL     1     -11.176   6.061 130.855  0.00  0.00    +0.000 A 
ATOM      2  C   UNL     1     -11.780   6.490 129.695  0.00  0.00    +0.000 A 
ATOM      3  C   UNL     1     -12.949   7.142 130.120  0.00  0.00    +0.000 A 
ATOM      4  N   UNL     1     -13.083   7.130 131.447  0.00  0.00    +0.000 NA
ATOM      5  N   UNL     1     -11.998   6.464 131.875  0.00  0.00    +0.000 N 
ATOM      6  H   UNL     1     -11.881   6.327 132.874  0.00  0.00    +0.000 HD
ENDROOT
BRANCH   1   7
ATOM      7  C   UNL     1      -9.900   5.327 131.078  0.00  0.00    +0.000 C 
BRANCH   7   8
ATOM      8  C   UNL     1      -8.956   6.127 131.982  0.00  0.00    +0.000 C 
BRANCH   8   9
ATOM      9  N   UNL     1      -9.454   6.172 133.355  0.00  0.00    +0.000 NA
ATOM     10  H   UNL     1     -10.355   5.696 133.397  0.00  0.00    +0.000 HD
ATOM     11  H   UNL     1      -9.638   7.141 133.616  0.00  0.00    +0.000 HD
ENDBRANCH   8   9
ENDBRANCH   7   8
ENDBRANCH   1   7
TORSDOF 3
ENDMDL
