MODEL 1
REMARK VINA RESULT:      -9.4      0.000      0.000
REMARK  Name = Betamethasone phosphate
REMARK  11 active torsions:
REMARK  status: ('A' for Active; 'I' for Inactive)
REMARK    1  A    between atoms: C_4  and  C_5
REMARK    2  A    between atoms: C_6  and  O_7
REMARK    3  A    between atoms: C_6  and  C_8
REMARK    4  A    between atoms: C_8  and  C_10
REMARK    5  A    between atoms: C_10  and  O_11
REMARK    6  A    between atoms: O_11  and  P_12
REMARK    7  A    between atoms: P_12  and  O_13
REMARK    8  A    between atoms: P_12  and  O_14
REMARK    9  A    between atoms: C_16  and  C_17
REMARK   10  A    between atoms: C_19  and  O_20
REMARK   11  A    between atoms: C_33  and  C_34
REMARK                            x       y       z     vdW  Elec       q    Type
REMARK                         _______ _______ _______ _____ _____    ______ ____
ROOT
ATOM      1  C   UNL     1      -5.641  -1.826 125.132  0.00  0.00    +0.000 C 
ATOM      2  C   UNL     1      -5.954  -3.181 124.874  0.00  0.00    +0.000 C 
ATOM      3  C   UNL     1      -7.227  -2.439 125.100  0.00  0.00    +0.000 C 
ATOM      4  C   UNL     1      -8.046  -4.102 124.960  0.00  0.00    +0.000 C 
ATOM      5  C   UNL     1      -6.988  -0.368 125.049  0.00  0.00    +0.000 C 
ATOM      6  C   UNL     1      -7.107  -1.272 124.066  0.00  0.00    +0.000 C 
ATOM      7  C   UNL     1      -6.761  -1.114 122.640  0.00  0.00    +0.000 C 
ATOM      8  C   UNL     1      -8.794  -1.075 124.837  0.00  0.00    +0.000 C 
ATOM      9  C   UNL     1      -8.616  -0.859 126.661  0.00  0.00    +0.000 C 
ATOM     10  C   UNL     1      -7.257  -1.573 127.547  0.00  0.00    +0.000 C 
ATOM     11  F   UNL     1      -7.108  -2.894 127.063  0.00  0.00    +0.000 F 
ATOM     12  C   UNL     1      -5.766  -1.379 126.910  0.00  0.00    +0.000 C 
ATOM     13  C   UNL     1      -4.859  -2.436 127.583  0.00  0.00    +0.000 C 
ATOM     14  C   UNL     1      -5.070  -2.463 129.062  0.00  0.00    +0.000 C 
ATOM     15  C   UNL     1      -6.408  -3.113 129.294  0.00  0.00    +0.000 C 
ATOM     16  C   UNL     1      -6.649  -4.114 130.173  0.00  0.00    +0.000 C 
ATOM     17  C   UNL     1      -6.215  -3.379 131.344  0.00  0.00    +0.000 C 
ATOM     18  O   UNL     1      -5.103  -3.440 131.826  0.00  0.00    +0.000 OA
ATOM     19  C   UNL     1      -7.359  -2.432 131.616  0.00  0.00    +0.000 C 
ATOM     20  C   UNL     1      -7.980  -1.816 130.516  0.00  0.00    +0.000 C 
ATOM     21  C   UNL     1      -7.641  -2.290 128.971  0.00  0.00    +0.000 C 
ATOM     22  C   UNL     1      -8.610  -3.519 128.382  0.00  0.00    +0.000 C 
ENDROOT
BRANCH   5  23
ATOM     23  O   UNL     1      -5.601   0.272 124.812  0.00  0.00    +0.000 OA
ATOM     24  H   UNL     1      -5.467   0.805 124.019  0.00  0.00    +0.000 HD
ENDBRANCH   5  23
BRANCH   5  25
ATOM     25  C   UNL     1      -7.736   1.124 124.158  0.00  0.00    +0.000 C 
ATOM     26  O   UNL     1      -7.230   1.622 123.141  0.00  0.00    +0.000 OA
BRANCH  25  27
ATOM     27  C   UNL     1      -9.076   1.972 124.587  0.00  0.00    +0.000 C 
BRANCH  27  28
ATOM     28  O   UNL     1      -8.891   3.013 125.745  0.00  0.00    +0.000 OA
BRANCH  28  29
ATOM     29  P   UNL     1      -7.735   4.296 125.645  0.00  0.00    +0.000 P 
ATOM     30  O   UNL     1      -6.699   5.443 125.556  0.00  0.00    +0.000 OA
BRANCH  29  31
ATOM     31  O   UNL     1      -7.967   4.288 124.011  0.00  0.00    +0.000 OA
ATOM     32  H   UNL     1      -8.761   4.698 123.646  0.00  0.00    +0.000 HD
ENDBRANCH  29  31
BRANCH  29  33
ATOM     33  O   UNL     1      -9.030   5.271 125.900  0.00  0.00    +0.000 OA
ATOM     34  H   UNL     1      -8.794   6.211 125.847  0.00  0.00    +0.000 HD
ENDBRANCH  29  33
ENDBRANCH  28  29
ENDBRANCH  27  28
ENDBRANCH  25  27
ENDBRANCH   5  25
BRANCH   9  35
ATOM     35  O   UNL     1      -8.647   0.557 126.918  0.00  0.00    +0.000 OA
ATOM     36  H   UNL     1      -7.741   0.879 127.048  0.00  0.00    +0.000 HD
ENDBRANCH   9  35
TORSDOF 8
ENDMDL
MODEL 2
REMARK VINA RESULT:      -9.1      3.128      6.181
REMARK  Name = Betamethasone phosphate
REMARK  11 active torsions:
REMARK  status: ('A' for Active; 'I' for Inactive)
REMARK    1  A    between atoms: C_4  and  C_5
REMARK    2  A    between atoms: C_6  and  O_7
REMARK    3  A    between atoms: C_6  and  C_8
REMARK    4  A    between atoms: C_8  and  C_10
REMARK    5  A    between atoms: C_10  and  O_11
REMARK    6  A    between atoms: O_11  and  P_12
REMARK    7  A    between atoms: P_12  and  O_13
REMARK    8  A    between atoms: P_12  and  O_14
REMARK    9  A    between atoms: C_16  and  C_17
REMARK   10  A    between atoms: C_19  and  O_20
REMARK   11  A    between atoms: C_33  and  C_34
REMARK                            x       y       z     vdW  Elec       q    Type
REMARK                         _______ _______ _______ _____ _____    ______ ____
ROOT
ATOM      1  C   UNL     1      -7.096  -2.692 130.127  0.00  0.00    +0.000 C 
ATOM      2  C   UNL     1      -6.158  -3.706 129.816  0.00  0.00    +0.000 C 
ATOM      3  C   UNL     1      -5.571  -2.388 129.438  0.00  0.00    +0.000 C 
ATOM      4  C   UNL     1      -4.156  -3.384 128.757  0.00  0.00    +0.000 C 
ATOM      5  C   UNL     1      -6.616  -0.767 130.231  0.00  0.00    +0.000 C 
ATOM      6  C   UNL     1      -5.701  -1.583 130.773  0.00  0.00    +0.000 C 
ATOM      7  C   UNL     1      -5.405  -1.795 132.203  0.00  0.00    +0.000 C 
ATOM      8  C   UNL     1      -4.799  -0.448 129.600  0.00  0.00    +0.000 C 
ATOM      9  C   UNL     1      -5.843  -0.148 128.108  0.00  0.00    +0.000 C 
ATOM     10  C   UNL     1      -7.005  -1.357 127.536  0.00  0.00    +0.000 C 
ATOM     11  F   UNL     1      -6.345  -2.607 127.587  0.00  0.00    +0.000 F 
ATOM     12  C   UNL     1      -7.978  -2.044 128.652  0.00  0.00    +0.000 C 
ATOM     13  C   UNL     1      -8.545  -3.333 128.010  0.00  0.00    +0.000 C 
ATOM     14  C   UNL     1      -9.026  -3.075 126.619  0.00  0.00    +0.000 C 
ATOM     15  C   UNL     1      -7.798  -2.900 125.765  0.00  0.00    +0.000 C 
ATOM     16  C   UNL     1      -7.574  -3.518 124.582  0.00  0.00    +0.000 C 
ATOM     17  C   UNL     1      -8.750  -2.988 123.922  0.00  0.00    +0.000 C 
ATOM     18  O   UNL     1      -9.815  -3.563 123.839  0.00  0.00    +0.000 OA
ATOM     19  C   UNL     1      -8.372  -1.560 123.613  0.00  0.00    +0.000 C 
ATOM     20  C   UNL     1      -7.654  -0.842 124.585  0.00  0.00    +0.000 C 
ATOM     21  C   UNL     1      -7.032  -1.599 125.914  0.00  0.00    +0.000 C 
ATOM     22  C   UNL     1      -5.484  -2.201 125.722  0.00  0.00    +0.000 C 
ENDROOT
BRANCH   5  23
ATOM     23  O   UNL     1      -7.876  -0.977 131.102  0.00  0.00    +0.000 OA
ATOM     24  H   UNL     1      -7.970  -0.460 131.913  0.00  0.00    +0.000 HD
ENDBRANCH   5  23
BRANCH   5  25
ATOM     25  C   UNL     1      -6.264   0.781 131.260  0.00  0.00    +0.000 C 
ATOM     26  O   UNL     1      -5.638   1.755 130.816  0.00  0.00    +0.000 OA
BRANCH  25  27
ATOM     27  C   UNL     1      -6.676   1.050 132.827  0.00  0.00    +0.000 C 
BRANCH  27  28
ATOM     28  O   UNL     1      -8.184   1.388 133.096  0.00  0.00    +0.000 OA
BRANCH  28  29
ATOM     29  P   UNL     1      -9.155   2.223 131.933  0.00  0.00    +0.000 P 
ATOM     30  O   UNL     1     -10.024   2.969 130.892  0.00  0.00    +0.000 OA
BRANCH  29  31
ATOM     31  O   UNL     1     -10.147   0.904 131.917  0.00  0.00    +0.000 OA
ATOM     32  H   UNL     1     -10.941   0.918 131.367  0.00  0.00    +0.000 HD
ENDBRANCH  29  31
BRANCH  29  33
ATOM     33  O   UNL     1      -9.901   2.860 133.249  0.00  0.00    +0.000 OA
ATOM     34  H   UNL     1     -10.389   3.671 133.033  0.00  0.00    +0.000 HD
ENDBRANCH  29  33
ENDBRANCH  28  29
ENDBRANCH  27  28
ENDBRANCH  25  27
ENDBRANCH   5  25
BRANCH   9  35
ATOM     35  O   UNL     1      -6.534   1.096 128.328  0.00  0.00    +0.000 OA
ATOM     36  H   UNL     1      -7.072   1.025 129.133  0.00  0.00    +0.000 HD
ENDBRANCH   9  35
TORSDOF 8
ENDMDL
MODEL 3
REMARK VINA RESULT:      -9.0      1.473      1.825
REMARK  Name = Betamethasone phosphate
REMARK  11 active torsions:
REMARK  status: ('A' for Active; 'I' for Inactive)
REMARK    1  A    between atoms: C_4  and  C_5
REMARK    2  A    between atoms: C_6  and  O_7
REMARK    3  A    between atoms: C_6  and  C_8
REMARK    4  A    between atoms: C_8  and  C_10
REMARK    5  A    between atoms: C_10  and  O_11
REMARK    6  A    between atoms: O_11  and  P_12
REMARK    7  A    between atoms: P_12  and  O_13
REMARK    8  A    between atoms: P_12  and  O_14
REMARK    9  A    between atoms: C_16  and  C_17
REMARK   10  A    between atoms: C_19  and  O_20
REMARK   11  A    between atoms: C_33  and  C_34
REMARK                            x       y       z     vdW  Elec       q    Type
REMARK                         _______ _______ _______ _____ _____    ______ ____
ROOT
ATOM      1  C   UNL     1      -5.736  -1.686 124.992  0.00  0.00    +0.000 C 
ATOM      2  C   UNL     1      -5.901  -3.068 124.737  0.00  0.00    +0.000 C 
ATOM      3  C   UNL     1      -7.249  -2.461 124.933  0.00  0.00    +0.000 C 
ATOM      4  C   UNL     1      -7.888  -4.201 124.789  0.00  0.00    +0.000 C 
ATOM      5  C   UNL     1      -7.226  -0.376 124.871  0.00  0.00    +0.000 C 
ATOM      6  C   UNL     1      -7.230  -1.293 123.893  0.00  0.00    +0.000 C 
ATOM      7  C   UNL     1      -6.874  -1.108 122.473  0.00  0.00    +0.000 C 
ATOM      8  C   UNL     1      -8.943  -1.268 124.629  0.00  0.00    +0.000 C 
ATOM      9  C   UNL     1      -8.825  -1.026 126.455  0.00  0.00    +0.000 C 
ATOM     10  C   UNL     1      -7.418  -1.589 127.372  0.00  0.00    +0.000 C 
ATOM     11  F   UNL     1      -7.124  -2.890 126.901  0.00  0.00    +0.000 F 
ATOM     12  C   UNL     1      -5.943  -1.245 126.763  0.00  0.00    +0.000 C 
ATOM     13  C   UNL     1      -4.944  -2.198 127.462  0.00  0.00    +0.000 C 
ATOM     14  C   UNL     1      -5.181  -2.239 128.937  0.00  0.00    +0.000 C 
ATOM     15  C   UNL     1      -6.449  -3.024 129.147  0.00  0.00    +0.000 C 
ATOM     16  C   UNL     1      -6.604  -4.039 130.029  0.00  0.00    +0.000 C 
ATOM     17  C   UNL     1      -6.272  -3.257 131.202  0.00  0.00    +0.000 C 
ATOM     18  O   UNL     1      -5.170  -3.199 131.706  0.00  0.00    +0.000 OA
ATOM     19  C   UNL     1      -7.513  -2.432 131.444  0.00  0.00    +0.000 C 
ATOM     20  C   UNL     1      -8.172  -1.890 130.328  0.00  0.00    +0.000 C 
ATOM     21  C   UNL     1      -7.754  -2.335 128.794  0.00  0.00    +0.000 C 
ATOM     22  C   UNL     1      -8.578  -3.661 128.195  0.00  0.00    +0.000 C 
ENDROOT
BRANCH   5  23
ATOM     23  O   UNL     1      -5.908   0.403 124.657  0.00  0.00    +0.000 OA
ATOM     24  H   UNL     1      -5.209   0.321 125.318  0.00  0.00    +0.000 HD
ENDBRANCH   5  23
BRANCH   5  25
ATOM     25  C   UNL     1      -8.106   1.025 123.954  0.00  0.00    +0.000 C 
ATOM     26  O   UNL     1      -9.296   0.961 123.612  0.00  0.00    +0.000 OA
BRANCH  25  27
ATOM     27  C   UNL     1      -7.460   2.453 123.461  0.00  0.00    +0.000 C 
BRANCH  27  28
ATOM     28  O   UNL     1      -6.387   2.367 122.320  0.00  0.00    +0.000 OA
BRANCH  28  29
ATOM     29  P   UNL     1      -5.974   3.737 121.349  0.00  0.00    +0.000 P 
ATOM     30  O   UNL     1      -5.604   4.962 120.479  0.00  0.00    +0.000 OA
BRANCH  29  31
ATOM     31  O   UNL     1      -7.588   3.948 121.080  0.00  0.00    +0.000 OA
ATOM     32  H   UNL     1      -7.875   4.537 120.370  0.00  0.00    +0.000 HD
ENDBRANCH  29  31
BRANCH  29  33
ATOM     33  O   UNL     1      -6.026   4.560 122.768  0.00  0.00    +0.000 OA
ATOM     34  H   UNL     1      -6.522   4.079 123.449  0.00  0.00    +0.000 HD
ENDBRANCH  29  33
ENDBRANCH  28  29
ENDBRANCH  27  28
ENDBRANCH  25  27
ENDBRANCH   5  25
BRANCH   9  35
ATOM     35  O   UNL     1      -9.009   0.381 126.700  0.00  0.00    +0.000 OA
ATOM     36  H   UNL     1      -9.524   0.501 127.513  0.00  0.00    +0.000 HD
ENDBRANCH   9  35
TORSDOF 8
ENDMDL
MODEL 4
REMARK VINA RESULT:      -8.8      5.955      7.124
REMARK  Name = Betamethasone phosphate
REMARK  11 active torsions:
REMARK  status: ('A' for Active; 'I' for Inactive)
REMARK    1  A    between atoms: C_4  and  C_5
REMARK    2  A    between atoms: C_6  and  O_7
REMARK    3  A    between atoms: C_6  and  C_8
REMARK    4  A    between atoms: C_8  and  C_10
REMARK    5  A    between atoms: C_10  and  O_11
REMARK    6  A    between atoms: O_11  and  P_12
REMARK    7  A    between atoms: P_12  and  O_13
REMARK    8  A    between atoms: P_12  and  O_14
REMARK    9  A    between atoms: C_16  and  C_17
REMARK   10  A    between atoms: C_19  and  O_20
REMARK   11  A    between atoms: C_33  and  C_34
REMARK                            x       y       z     vdW  Elec       q    Type
REMARK                         _______ _______ _______ _____ _____    ______ ____
ROOT
ATOM      1  C   UNL     1      -4.086   4.164 126.679  0.00  0.00    +0.000 C 
ATOM      2  C   UNL     1      -3.398   2.989 127.063  0.00  0.00    +0.000 C 
ATOM      3  C   UNL     1      -4.749   2.972 127.695  0.00  0.00    +0.000 C 
ATOM      4  C   UNL     1      -4.169   1.420 128.539  0.00  0.00    +0.000 C 
ATOM      5  C   UNL     1      -6.050   4.387 126.885  0.00  0.00    +0.000 C 
ATOM      6  C   UNL     1      -5.685   3.170 126.458  0.00  0.00    +0.000 C 
ATOM      7  C   UNL     1      -5.832   2.601 125.104  0.00  0.00    +0.000 C 
ATOM      8  C   UNL     1      -6.832   2.922 127.907  0.00  0.00    +0.000 C 
ATOM      9  C   UNL     1      -6.510   4.222 129.176  0.00  0.00    +0.000 C 
ATOM     10  C   UNL     1      -4.908   4.954 129.362  0.00  0.00    +0.000 C 
ATOM     11  F   UNL     1      -3.971   3.895 129.312  0.00  0.00    +0.000 F 
ATOM     12  C   UNL     1      -4.144   5.436 128.003  0.00  0.00    +0.000 C 
ATOM     13  C   UNL     1      -2.650   5.602 128.371  0.00  0.00    +0.000 C 
ATOM     14  C   UNL     1      -2.492   6.352 129.653  0.00  0.00    +0.000 C 
ATOM     15  C   UNL     1      -2.908   5.414 130.755  0.00  0.00    +0.000 C 
ATOM     16  C   UNL     1      -2.203   5.172 131.885  0.00  0.00    +0.000 C 
ATOM     17  C   UNL     1      -2.197   6.546 132.342  0.00  0.00    +0.000 C 
ATOM     18  O   UNL     1      -1.299   7.338 132.142  0.00  0.00    +0.000 OA
ATOM     19  C   UNL     1      -3.594   6.751 132.877  0.00  0.00    +0.000 C 
ATOM     20  C   UNL     1      -4.663   6.193 132.156  0.00  0.00    +0.000 C 
ATOM     21  C   UNL     1      -4.394   5.145 130.909  0.00  0.00    +0.000 C 
ATOM     22  C   UNL     1      -4.308   3.533 131.347  0.00  0.00    +0.000 C 
ENDROOT
BRANCH   5  23
ATOM     23  O   UNL     1      -5.593   5.340 125.757  0.00  0.00    +0.000 OA
ATOM     24  H   UNL     1      -6.257   5.880 125.310  0.00  0.00    +0.000 HD
ENDBRANCH   5  23
BRANCH   5  25
ATOM     25  C   UNL     1      -7.781   4.451 126.125  0.00  0.00    +0.000 C 
ATOM     26  O   UNL     1      -8.657   5.238 126.515  0.00  0.00    +0.000 OA
BRANCH  25  27
ATOM     27  C   UNL     1      -8.376   3.504 124.923  0.00  0.00    +0.000 C 
BRANCH  27  28
ATOM     28  O   UNL     1      -9.289   2.311 125.373  0.00  0.00    +0.000 OA
BRANCH  28  29
ATOM     29  P   UNL     1      -9.476   0.888 124.407  0.00  0.00    +0.000 P 
ATOM     30  O   UNL     1      -9.644  -0.385 123.543  0.00  0.00    +0.000 OA
BRANCH  29  31
ATOM     31  O   UNL     1     -10.038   0.127 125.759  0.00  0.00    +0.000 OA
ATOM     32  H   UNL     1     -10.016  -0.838 125.801  0.00  0.00    +0.000 HD
ENDBRANCH  29  31
BRANCH  29  33
ATOM     33  O   UNL     1     -10.953   1.513 124.055  0.00  0.00    +0.000 OA
ATOM     34  H   UNL     1     -11.141   1.487 123.103  0.00  0.00    +0.000 HD
ENDBRANCH  29  33
ENDBRANCH  28  29
ENDBRANCH  27  28
ENDBRANCH  25  27
ENDBRANCH   5  25
BRANCH   9  35
ATOM     35  O   UNL     1      -7.478   5.266 128.956  0.00  0.00    +0.000 OA
ATOM     36  H   UNL     1      -7.019   6.073 128.674  0.00  0.00    +0.000 HD
ENDBRANCH   9  35
TORSDOF 8
ENDMDL
MODEL 5
REMARK VINA RESULT:      -8.8      4.972      7.163
REMARK  Name = Betamethasone phosphate
REMARK  11 active torsions:
REMARK  status: ('A' for Active; 'I' for Inactive)
REMARK    1  A    between atoms: C_4  and  C_5
REMARK    2  A    between atoms: C_6  and  O_7
REMARK    3  A    between atoms: C_6  and  C_8
REMARK    4  A    between atoms: C_8  and  C_10
REMARK    5  A    between atoms: C_10  and  O_11
REMARK    6  A    between atoms: O_11  and  P_12
REMARK    7  A    between atoms: P_12  and  O_13
REMARK    8  A    between atoms: P_12  and  O_14
REMARK    9  A    between atoms: C_16  and  C_17
REMARK   10  A    between atoms: C_19  and  O_20
REMARK   11  A    between atoms: C_33  and  C_34
REMARK                            x       y       z     vdW  Elec       q    Type
REMARK                         _______ _______ _______ _____ _____    ______ ____
ROOT
ATOM      1  C   UNL     1      -8.273   2.852 133.153  0.00  0.00    +0.000 C 
ATOM      2  C   UNL     1      -6.913   2.651 133.485  0.00  0.00    +0.000 C 
ATOM      3  C   UNL     1      -6.977   3.473 132.243  0.00  0.00    +0.000 C 
ATOM      4  C   UNL     1      -5.124   3.329 132.231  0.00  0.00    +0.000 C 
ATOM      5  C   UNL     1      -8.880   4.238 131.864  0.00  0.00    +0.000 C 
ATOM      6  C   UNL     1      -7.905   4.652 132.685  0.00  0.00    +0.000 C 
ATOM      7  C   UNL     1      -8.012   5.582 133.826  0.00  0.00    +0.000 C 
ATOM      8  C   UNL     1      -7.374   5.070 130.947  0.00  0.00    +0.000 C 
ATOM      9  C   UNL     1      -7.895   3.720 129.802  0.00  0.00    +0.000 C 
ATOM     10  C   UNL     1      -8.049   2.045 130.360  0.00  0.00    +0.000 C 
ATOM     11  F   UNL     1      -6.909   1.777 131.152  0.00  0.00    +0.000 F 
ATOM     12  C   UNL     1      -8.844   1.794 131.763  0.00  0.00    +0.000 C 
ATOM     13  C   UNL     1      -8.455   0.376 132.243  0.00  0.00    +0.000 C 
ATOM     14  C   UNL     1      -8.533  -0.612 131.125  0.00  0.00    +0.000 C 
ATOM     15  C   UNL     1      -7.360  -0.333 130.223  0.00  0.00    +0.000 C 
ATOM     16  C   UNL     1      -6.497  -1.264 129.752  0.00  0.00    +0.000 C 
ATOM     17  C   UNL     1      -7.502  -2.055 129.073  0.00  0.00    +0.000 C 
ATOM     18  O   UNL     1      -8.048  -3.031 129.543  0.00  0.00    +0.000 OA
ATOM     19  C   UNL     1      -7.813  -1.252 127.833  0.00  0.00    +0.000 C 
ATOM     20  C   UNL     1      -7.899   0.146 127.958  0.00  0.00    +0.000 C 
ATOM     21  C   UNL     1      -7.438   0.905 129.350  0.00  0.00    +0.000 C 
ATOM     22  C   UNL     1      -5.828   1.352 129.410  0.00  0.00    +0.000 C 
ENDROOT
BRANCH   5  23
ATOM     23  O   UNL     1     -10.067   3.932 132.806  0.00  0.00    +0.000 OA
ATOM     24  H   UNL     1     -10.007   3.167 133.393  0.00  0.00    +0.000 HD
ENDBRANCH   5  23
BRANCH   5  25
ATOM     25  C   UNL     1      -9.694   5.910 131.518  0.00  0.00    +0.000 C 
ATOM     26  O   UNL     1     -10.793   6.233 131.992  0.00  0.00    +0.000 OA
BRANCH  25  27
ATOM     27  C   UNL     1      -9.124   7.115 130.559  0.00  0.00    +0.000 C 
BRANCH  27  28
ATOM     28  O   UNL     1      -9.384   6.954 129.021  0.00  0.00    +0.000 OA
BRANCH  28  29
ATOM     29  P   UNL     1     -10.862   7.468 128.285  0.00  0.00    +0.000 P 
ATOM     30  O   UNL     1     -12.185   7.928 127.625  0.00  0.00    +0.000 OA
BRANCH  29  31
ATOM     31  O   UNL     1     -10.361   6.709 126.907  0.00  0.00    +0.000 OA
ATOM     32  H   UNL     1      -9.500   6.271 126.897  0.00  0.00    +0.000 HD
ENDBRANCH  29  31
BRANCH  29  33
ATOM     33  O   UNL     1     -11.474   6.081 128.915  0.00  0.00    +0.000 OA
ATOM     34  H   UNL     1     -12.327   6.227 129.354  0.00  0.00    +0.000 HD
ENDBRANCH  29  33
ENDBRANCH  28  29
ENDBRANCH  27  28
ENDBRANCH  25  27
ENDBRANCH   5  25
BRANCH   9  35
ATOM     35  O   UNL     1      -9.144   4.132 129.215  0.00  0.00    +0.000 OA
ATOM     36  H   UNL     1      -9.867   3.941 129.833  0.00  0.00    +0.000 HD
ENDBRANCH   9  35
TORSDOF 8
ENDMDL
MODEL 6
REMARK VINA RESULT:      -8.8      3.114      6.261
REMARK  Name = Betamethasone phosphate
REMARK  11 active torsions:
REMARK  status: ('A' for Active; 'I' for Inactive)
REMARK    1  A    between atoms: C_4  and  C_5
REMARK    2  A    between atoms: C_6  and  O_7
REMARK    3  A    between atoms: C_6  and  C_8
REMARK    4  A    between atoms: C_8  and  C_10
REMARK    5  A    between atoms: C_10  and  O_11
REMARK    6  A    between atoms: O_11  and  P_12
REMARK    7  A    between atoms: P_12  and  O_13
REMARK    8  A    between atoms: P_12  and  O_14
REMARK    9  A    between atoms: C_16  and  C_17
REMARK   10  A    between atoms: C_19  and  O_20
REMARK   11  A    between atoms: C_33  and  C_34
REMARK                            x       y       z     vdW  Elec       q    Type
REMARK                         _______ _______ _______ _____ _____    ______ ____
ROOT
ATOM      1  C   UNL     1      -7.116  -3.232 130.438  0.00  0.00    +0.000 C 
ATOM      2  C   UNL     1      -6.078  -4.077 129.979  0.00  0.00    +0.000 C 
ATOM      3  C   UNL     1      -5.639  -2.661 129.819  0.00  0.00    +0.000 C 
ATOM      4  C   UNL     1      -4.132  -3.379 128.999  0.00  0.00    +0.000 C 
ATOM      5  C   UNL     1      -6.845  -1.307 130.850  0.00  0.00    +0.000 C 
ATOM      6  C   UNL     1      -5.843  -2.096 131.262  0.00  0.00    +0.000 C 
ATOM      7  C   UNL     1      -5.512  -2.498 132.643  0.00  0.00    +0.000 C 
ATOM      8  C   UNL     1      -5.078  -0.699 130.291  0.00  0.00    +0.000 C 
ATOM      9  C   UNL     1      -6.162  -0.281 128.857  0.00  0.00    +0.000 C 
ATOM     10  C   UNL     1      -7.193  -1.503 128.092  0.00  0.00    +0.000 C 
ATOM     11  F   UNL     1      -6.402  -2.667 127.950  0.00  0.00    +0.000 F 
ATOM     12  C   UNL     1      -8.077  -2.457 129.077  0.00  0.00    +0.000 C 
ATOM     13  C   UNL     1      -8.507  -3.682 128.235  0.00  0.00    +0.000 C 
ATOM     14  C   UNL     1      -9.026  -3.261 126.899  0.00  0.00    +0.000 C 
ATOM     15  C   UNL     1      -7.832  -2.822 126.093  0.00  0.00    +0.000 C 
ATOM     16  C   UNL     1      -7.554  -3.218 124.829  0.00  0.00    +0.000 C 
ATOM     17  C   UNL     1      -8.786  -2.720 124.252  0.00  0.00    +0.000 C 
ATOM     18  O   UNL     1      -9.784  -3.385 124.070  0.00  0.00    +0.000 OA
ATOM     19  C   UNL     1      -8.566  -1.228 124.175  0.00  0.00    +0.000 C 
ATOM     20  C   UNL     1      -7.921  -0.600 125.254  0.00  0.00    +0.000 C 
ATOM     21  C   UNL     1      -7.209  -1.487 126.452  0.00  0.00    +0.000 C 
ATOM     22  C   UNL     1      -5.607  -1.881 126.180  0.00  0.00    +0.000 C 
ENDROOT
BRANCH   5  23
ATOM     23  O   UNL     1      -8.067  -1.786 131.666  0.00  0.00    +0.000 OA
ATOM     24  H   UNL     1      -8.622  -1.125 132.099  0.00  0.00    +0.000 HD
ENDBRANCH   5  23
BRANCH   5  25
ATOM     25  C   UNL     1      -6.652   0.087 132.112  0.00  0.00    +0.000 C 
ATOM     26  O   UNL     1      -7.491   0.314 132.997  0.00  0.00    +0.000 OA
BRANCH  25  27
ATOM     27  C   UNL     1      -5.430   1.181 132.210  0.00  0.00    +0.000 C 
BRANCH  27  28
ATOM     28  O   UNL     1      -5.563   2.446 131.293  0.00  0.00    +0.000 OA
BRANCH  28  29
ATOM     29  P   UNL     1      -6.498   3.823 131.763  0.00  0.00    +0.000 P 
ATOM     30  O   UNL     1      -7.336   5.055 132.183  0.00  0.00    +0.000 OA
BRANCH  29  31
ATOM     31  O   UNL     1      -7.845   2.965 131.346  0.00  0.00    +0.000 OA
ATOM     32  H   UNL     1      -8.215   3.070 130.461  0.00  0.00    +0.000 HD
ENDBRANCH  29  31
BRANCH  29  33
ATOM     33  O   UNL     1      -6.443   3.152 133.260  0.00  0.00    +0.000 OA
ATOM     34  H   UNL     1      -5.711   2.519 133.348  0.00  0.00    +0.000 HD
ENDBRANCH  29  33
ENDBRANCH  28  29
ENDBRANCH  27  28
ENDBRANCH  25  27
ENDBRANCH   5  25
BRANCH   9  35
ATOM     35  O   UNL     1      -6.981   0.831 129.265  0.00  0.00    +0.000 OA
ATOM     36  H   UNL     1      -6.557   1.659 128.990  0.00  0.00    +0.000 HD
ENDBRANCH   9  35
TORSDOF 8
ENDMDL
MODEL 7
REMARK VINA RESULT:      -8.8      6.556      8.710
REMARK  Name = Betamethasone phosphate
REMARK  11 active torsions:
REMARK  status: ('A' for Active; 'I' for Inactive)
REMARK    1  A    between atoms: C_4  and  C_5
REMARK    2  A    between atoms: C_6  and  O_7
REMARK    3  A    between atoms: C_6  and  C_8
REMARK    4  A    between atoms: C_8  and  C_10
REMARK    5  A    between atoms: C_10  and  O_11
REMARK    6  A    between atoms: O_11  and  P_12
REMARK    7  A    between atoms: P_12  and  O_13
REMARK    8  A    between atoms: P_12  and  O_14
REMARK    9  A    between atoms: C_16  and  C_17
REMARK   10  A    between atoms: C_19  and  O_20
REMARK   11  A    between atoms: C_33  and  C_34
REMARK                            x       y       z     vdW  Elec       q    Type
REMARK                         _______ _______ _______ _____ _____    ______ ____
ROOT
ATOM      1  C   UNL     1      -7.814   3.261 131.113  0.00  0.00    +0.000 C 
ATOM      2  C   UNL     1      -6.924   2.755 132.088  0.00  0.00    +0.000 C 
ATOM      3  C   UNL     1      -7.087   4.219 132.315  0.00  0.00    +0.000 C 
ATOM      4  C   UNL     1      -5.798   4.006 133.638  0.00  0.00    +0.000 C 
ATOM      5  C   UNL     1      -8.693   5.037 131.265  0.00  0.00    +0.000 C 
ATOM      6  C   UNL     1      -8.641   4.358 132.419  0.00  0.00    +0.000 C 
ATOM      7  C   UNL     1      -9.747   3.684 133.127  0.00  0.00    +0.000 C 
ATOM      8  C   UNL     1      -7.972   6.065 132.757  0.00  0.00    +0.000 C 
ATOM      9  C   UNL     1      -6.981   6.636 131.309  0.00  0.00    +0.000 C 
ATOM     10  C   UNL     1      -6.133   5.486 130.260  0.00  0.00    +0.000 C 
ATOM     11  F   UNL     1      -5.500   4.552 131.113  0.00  0.00    +0.000 F 
ATOM     12  C   UNL     1      -6.967   4.174 129.762  0.00  0.00    +0.000 C 
ATOM     13  C   UNL     1      -5.920   3.146 129.272  0.00  0.00    +0.000 C 
ATOM     14  C   UNL     1      -4.901   3.794 128.391  0.00  0.00    +0.000 C 
ATOM     15  C   UNL     1      -4.021   4.623 129.289  0.00  0.00    +0.000 C 
ATOM     16  C   UNL     1      -2.668   4.614 129.283  0.00  0.00    +0.000 C 
ATOM     17  C   UNL     1      -2.532   5.019 127.899  0.00  0.00    +0.000 C 
ATOM     18  O   UNL     1      -2.382   4.256 126.967  0.00  0.00    +0.000 OA
ATOM     19  C   UNL     1      -2.841   6.496 127.927  0.00  0.00    +0.000 C 
ATOM     20  C   UNL     1      -3.893   6.934 128.749  0.00  0.00    +0.000 C 
ATOM     21  C   UNL     1      -4.608   5.912 129.832  0.00  0.00    +0.000 C 
ATOM     22  C   UNL     1      -3.903   5.886 131.348  0.00  0.00    +0.000 C 
ENDROOT
BRANCH   5  23
ATOM     23  O   UNL     1      -9.577   4.162 130.347  0.00  0.00    +0.000 OA
ATOM     24  H   UNL     1      -9.195   3.363 129.962  0.00  0.00    +0.000 HD
ENDBRANCH   5  23
BRANCH   5  25
ATOM     25  C   UNL     1     -10.232   6.079 131.614  0.00  0.00    +0.000 C 
ATOM     26  O   UNL     1     -10.555   6.439 132.756  0.00  0.00    +0.000 OA
BRANCH  25  27
ATOM     27  C   UNL     1     -11.343   6.610 130.526  0.00  0.00    +0.000 C 
BRANCH  27  28
ATOM     28  O   UNL     1     -10.860   7.726 129.536  0.00  0.00    +0.000 OA
BRANCH  28  29
ATOM     29  P   UNL     1     -10.738   7.447 127.833  0.00  0.00    +0.000 P 
ATOM     30  O   UNL     1     -10.629   7.198 126.309  0.00  0.00    +0.000 OA
BRANCH  29  31
ATOM     31  O   UNL     1      -9.644   6.259 128.174  0.00  0.00    +0.000 OA
ATOM     32  H   UNL     1      -9.851   5.346 127.938  0.00  0.00    +0.000 HD
ENDBRANCH  29  31
BRANCH  29  33
ATOM     33  O   UNL     1     -12.015   6.442 128.067  0.00  0.00    +0.000 OA
ATOM     34  H   UNL     1     -12.083   5.772 127.367  0.00  0.00    +0.000 HD
ENDBRANCH  29  33
ENDBRANCH  28  29
ENDBRANCH  27  28
ENDBRANCH  25  27
ENDBRANCH   5  25
BRANCH   9  35
ATOM     35  O   UNL     1      -7.854   7.448 130.501  0.00  0.00    +0.000 OA
ATOM     36  H   UNL     1      -7.340   7.858 129.788  0.00  0.00    +0.000 HD
ENDBRANCH   9  35
TORSDOF 8
ENDMDL
MODEL 8
REMARK VINA RESULT:      -8.8      7.168      8.568
REMARK  Name = Betamethasone phosphate
REMARK  11 active torsions:
REMARK  status: ('A' for Active; 'I' for Inactive)
REMARK    1  A    between atoms: C_4  and  C_5
REMARK    2  A    between atoms: C_6  and  O_7
REMARK    3  A    between atoms: C_6  and  C_8
REMARK    4  A    between atoms: C_8  and  C_10
REMARK    5  A    between atoms: C_10  and  O_11
REMARK    6  A    between atoms: O_11  and  P_12
REMARK    7  A    between atoms: P_12  and  O_13
REMARK    8  A    between atoms: P_12  and  O_14
REMARK    9  A    between atoms: C_16  and  C_17
REMARK   10  A    between atoms: C_19  and  O_20
REMARK   11  A    between atoms: C_33  and  C_34
REMARK                            x       y       z     vdW  Elec       q    Type
REMARK                         _______ _______ _______ _____ _____    ______ ____
ROOT
ATOM      1  C   UNL     1      -6.247   3.395 129.762  0.00  0.00    +0.000 C 
ATOM      2  C   UNL     1      -6.072   2.502 130.845  0.00  0.00    +0.000 C 
ATOM      3  C   UNL     1      -6.861   3.674 131.324  0.00  0.00    +0.000 C 
ATOM      4  C   UNL     1      -6.740   2.880 133.001  0.00  0.00    +0.000 C 
ATOM      5  C   UNL     1      -7.591   4.859 129.771  0.00  0.00    +0.000 C 
ATOM      6  C   UNL     1      -8.039   3.709 130.295  0.00  0.00    +0.000 C 
ATOM      7  C   UNL     1      -8.996   2.753 129.705  0.00  0.00    +0.000 C 
ATOM      8  C   UNL     1      -8.419   5.058 131.525  0.00  0.00    +0.000 C 
ATOM      9  C   UNL     1      -7.033   6.278 131.550  0.00  0.00    +0.000 C 
ATOM     10  C   UNL     1      -5.372   5.794 131.171  0.00  0.00    +0.000 C 
ATOM     11  F   UNL     1      -5.138   4.579 131.858  0.00  0.00    +0.000 F 
ATOM     12  C   UNL     1      -5.147   4.865 129.848  0.00  0.00    +0.000 C 
ATOM     13  C   UNL     1      -3.746   4.223 129.993  0.00  0.00    +0.000 C 
ATOM     14  C   UNL     1      -2.730   5.237 130.406  0.00  0.00    +0.000 C 
ATOM     15  C   UNL     1      -3.000   5.552 131.853  0.00  0.00    +0.000 C 
ATOM     16  C   UNL     1      -2.069   5.578 132.835  0.00  0.00    +0.000 C 
ATOM     17  C   UNL     1      -1.247   6.601 132.222  0.00  0.00    +0.000 C 
ATOM     18  O   UNL     1      -0.277   6.385 131.527  0.00  0.00    +0.000 OA
ATOM     19  C   UNL     1      -2.015   7.875 132.477  0.00  0.00    +0.000 C 
ATOM     20  C   UNL     1      -3.414   7.840 132.345  0.00  0.00    +0.000 C 
ATOM     21  C   UNL     1      -4.215   6.408 132.159  0.00  0.00    +0.000 C 
ATOM     22  C   UNL     1      -4.683   5.671 133.585  0.00  0.00    +0.000 C 
ENDROOT
BRANCH   5  23
ATOM     23  O   UNL     1      -7.295   4.513 128.293  0.00  0.00    +0.000 OA
ATOM     24  H   UNL     1      -8.030   4.265 127.719  0.00  0.00    +0.000 HD
ENDBRANCH   5  23
BRANCH   5  25
ATOM     25  C   UNL     1      -9.243   5.570 129.186  0.00  0.00    +0.000 C 
ATOM     26  O   UNL     1      -9.426   5.983 128.031  0.00  0.00    +0.000 OA
BRANCH  25  27
ATOM     27  C   UNL     1     -10.610   5.776 130.074  0.00  0.00    +0.000 C 
BRANCH  27  28
ATOM     28  O   UNL     1     -11.965   5.612 129.303  0.00  0.00    +0.000 OA
BRANCH  28  29
ATOM     29  P   UNL     1     -12.869   6.976 128.741  0.00  0.00    +0.000 P 
ATOM     30  O   UNL     1     -13.677   8.196 128.240  0.00  0.00    +0.000 OA
BRANCH  29  31
ATOM     31  O   UNL     1     -11.591   7.920 129.187  0.00  0.00    +0.000 OA
ATOM     32  H   UNL     1     -11.079   8.374 128.505  0.00  0.00    +0.000 HD
ENDBRANCH  29  31
BRANCH  29  33
ATOM     33  O   UNL     1     -12.196   6.623 127.286  0.00  0.00    +0.000 OA
ATOM     34  H   UNL     1     -12.306   5.687 127.052  0.00  0.00    +0.000 HD
ENDBRANCH  29  33
ENDBRANCH  28  29
ENDBRANCH  27  28
ENDBRANCH  25  27
ENDBRANCH   5  25
BRANCH   9  35
ATOM     35  O   UNL     1      -7.415   7.358 130.678  0.00  0.00    +0.000 OA
ATOM     36  H   UNL     1      -6.810   7.387 129.920  0.00  0.00    +0.000 HD
ENDBRANCH   9  35
TORSDOF 8
ENDMDL
MODEL 9
REMARK VINA RESULT:      -8.7      3.954      7.972
REMARK  Name = Betamethasone phosphate
REMARK  11 active torsions:
REMARK  status: ('A' for Active; 'I' for Inactive)
REMARK    1  A    between atoms: C_4  and  C_5
REMARK    2  A    between atoms: C_6  and  O_7
REMARK    3  A    between atoms: C_6  and  C_8
REMARK    4  A    between atoms: C_8  and  C_10
REMARK    5  A    between atoms: C_10  and  O_11
REMARK    6  A    between atoms: O_11  and  P_12
REMARK    7  A    between atoms: P_12  and  O_13
REMARK    8  A    between atoms: P_12  and  O_14
REMARK    9  A    between atoms: C_16  and  C_17
REMARK   10  A    between atoms: C_19  and  O_20
REMARK   11  A    between atoms: C_33  and  C_34
REMARK                            x       y       z     vdW  Elec       q    Type
REMARK                         _______ _______ _______ _____ _____    ______ ____
ROOT
ATOM      1  C   UNL     1      -6.695  -3.721 130.924  0.00  0.00    +0.000 C 
ATOM      2  C   UNL     1      -5.577  -4.278 130.258  0.00  0.00    +0.000 C 
ATOM      3  C   UNL     1      -5.370  -2.806 130.378  0.00  0.00    +0.000 C 
ATOM      4  C   UNL     1      -3.835  -3.092 129.368  0.00  0.00    +0.000 C 
ATOM      5  C   UNL     1      -6.688  -1.898 131.714  0.00  0.00    +0.000 C 
ATOM      6  C   UNL     1      -5.551  -2.579 131.914  0.00  0.00    +0.000 C 
ATOM      7  C   UNL     1      -5.065  -3.188 133.167  0.00  0.00    +0.000 C 
ATOM      8  C   UNL     1      -5.079  -0.913 131.224  0.00  0.00    +0.000 C 
ATOM      9  C   UNL     1      -6.314  -0.400 129.952  0.00  0.00    +0.000 C 
ATOM     10  C   UNL     1      -7.202  -1.596 128.993  0.00  0.00    +0.000 C 
ATOM     11  F   UNL     1      -6.257  -2.565 128.581  0.00  0.00    +0.000 F 
ATOM     12  C   UNL     1      -7.858  -2.858 129.793  0.00  0.00    +0.000 C 
ATOM     13  C   UNL     1      -8.158  -3.945 128.733  0.00  0.00    +0.000 C 
ATOM     14  C   UNL     1      -8.830  -3.357 127.535  0.00  0.00    +0.000 C 
ATOM     15  C   UNL     1      -7.777  -2.579 126.790  0.00  0.00    +0.000 C 
ATOM     16  C   UNL     1      -7.535  -2.665 125.461  0.00  0.00    +0.000 C 
ATOM     17  C   UNL     1      -8.866  -2.270 125.050  0.00  0.00    +0.000 C 
ATOM     18  O   UNL     1      -9.763  -3.039 124.775  0.00  0.00    +0.000 OA
ATOM     19  C   UNL     1      -8.880  -0.777 125.276  0.00  0.00    +0.000 C 
ATOM     20  C   UNL     1      -8.261  -0.279 126.435  0.00  0.00    +0.000 C 
ATOM     21  C   UNL     1      -7.338  -1.258 127.393  0.00  0.00    +0.000 C 
ATOM     22  C   UNL     1      -5.719  -1.325 126.981  0.00  0.00    +0.000 C 
ENDROOT
BRANCH   5  23
ATOM     23  O   UNL     1      -7.762  -2.721 132.462  0.00  0.00    +0.000 OA
ATOM     24  H   UNL     1      -8.587  -2.287 132.713  0.00  0.00    +0.000 HD
ENDBRANCH   5  23
BRANCH   5  25
ATOM     25  C   UNL     1      -6.617  -0.769 133.230  0.00  0.00    +0.000 C 
ATOM     26  O   UNL     1      -7.257   0.290 133.310  0.00  0.00    +0.000 OA
BRANCH  25  27
ATOM     27  C   UNL     1      -5.718  -0.982 134.589  0.00  0.00    +0.000 C 
BRANCH  27  28
ATOM     28  O   UNL     1      -6.518  -1.110 135.932  0.00  0.00    +0.000 OA
BRANCH  28  29
ATOM     29  P   UNL     1      -6.870  -2.646 136.643  0.00  0.00    +0.000 P 
ATOM     30  O   UNL     1      -7.184  -4.021 137.281  0.00  0.00    +0.000 OA
BRANCH  29  31
ATOM     31  O   UNL     1      -7.860  -1.854 137.700  0.00  0.00    +0.000 OA
ATOM     32  H   UNL     1      -7.881  -0.888 137.692  0.00  0.00    +0.000 HD
ENDBRANCH  29  31
BRANCH  29  33
ATOM     33  O   UNL     1      -8.040  -2.733 135.496  0.00  0.00    +0.000 OA
ATOM     34  H   UNL     1      -8.015  -1.972 134.893  0.00  0.00    +0.000 HD
ENDBRANCH  29  33
ENDBRANCH  28  29
ENDBRANCH  27  28
ENDBRANCH  25  27
ENDBRANCH   5  25
BRANCH   9  35
ATOM     35  O   UNL     1      -7.260   0.461 130.615  0.00  0.00    +0.000 OA
ATOM     36  H   UNL     1      -7.624   1.091 129.973  0.00  0.00    +0.000 HD
ENDBRANCH   9  35
TORSDOF 8
ENDMDL
