MODEL 1
REMARK VINA RESULT:      -8.6      0.000      0.000
REMARK  Name = Betamethasone
REMARK  8 active torsions:
REMARK  status: ('A' for Active; 'I' for Inactive)
REMARK    1  A    between atoms: C_4  and  C_5
REMARK    2  A    between atoms: C_6  and  O_7
REMARK    3  A    between atoms: C_6  and  C_8
REMARK    4  A    between atoms: C_8  and  C_10
REMARK    5  A    between atoms: C_10  and  O_11
REMARK    6  A    between atoms: C_12  and  C_13
REMARK    7  A    between atoms: C_15  and  O_16
REMARK    8  A    between atoms: C_29  and  C_30
REMARK                            x       y       z     vdW  Elec       q    Type
REMARK                         _______ _______ _______ _____ _____    ______ ____
ROOT
ATOM      1  C   UNL     1      -5.662  -1.726 125.036  0.00  0.00    +0.000 C 
ATOM      2  C   UNL     1      -5.934  -3.088 124.766  0.00  0.00    +0.000 C 
ATOM      3  C   UNL     1      -7.226  -2.380 124.981  0.00  0.00    +0.000 C 
ATOM      4  C   UNL     1      -8.005  -4.055 124.835  0.00  0.00    +0.000 C 
ATOM      5  C   UNL     1      -7.025  -0.309 124.967  0.00  0.00    +0.000 C 
ATOM      6  C   UNL     1      -7.134  -1.192 123.963  0.00  0.00    +0.000 C 
ATOM      7  C   UNL     1      -6.784  -1.029 122.535  0.00  0.00    +0.000 C 
ATOM      8  C   UNL     1      -8.829  -1.044 124.711  0.00  0.00    +0.000 C 
ATOM      9  C   UNL     1      -8.679  -0.846 126.541  0.00  0.00    +0.000 C 
ATOM     10  C   UNL     1      -7.315  -1.539 127.438  0.00  0.00    +0.000 C 
ATOM     11  F   UNL     1      -7.120  -2.854 126.946  0.00  0.00    +0.000 F 
ATOM     12  C   UNL     1      -5.819  -1.295 126.819  0.00  0.00    +0.000 C 
ATOM     13  C   UNL     1      -4.887  -2.324 127.495  0.00  0.00    +0.000 C 
ATOM     14  C   UNL     1      -5.117  -2.361 128.972  0.00  0.00    +0.000 C 
ATOM     15  C   UNL     1      -6.441  -3.052 129.198  0.00  0.00    +0.000 C 
ATOM     16  C   UNL     1      -6.652  -4.028 130.108  0.00  0.00    +0.000 C 
ATOM     17  C   UNL     1      -6.246  -3.218 131.244  0.00  0.00    +0.000 C 
ATOM     18  O   UNL     1      -5.157  -3.263 131.773  0.00  0.00    +0.000 OA
ATOM     19  C   UNL     1      -7.399  -2.294 131.515  0.00  0.00    +0.000 C 
ATOM     20  C   UNL     1      -8.074  -1.800 130.382  0.00  0.00    +0.000 C 
ATOM     21  C   UNL     1      -7.704  -2.283 128.853  0.00  0.00    +0.000 C 
ATOM     22  C   UNL     1      -8.619  -3.530 128.254  0.00  0.00    +0.000 C 
ENDROOT
BRANCH   5  23
ATOM     23  O   UNL     1      -5.651   0.370 124.717  0.00  0.00    +0.000 OA
ATOM     24  H   UNL     1      -5.625   1.335 124.723  0.00  0.00    +0.000 HD
ENDBRANCH   5  23
BRANCH   5  25
ATOM     25  C   UNL     1      -7.765   1.187 124.126  0.00  0.00    +0.000 C 
ATOM     26  O   UNL     1      -7.136   2.246 123.958  0.00  0.00    +0.000 OA
BRANCH  25  27
ATOM     27  C   UNL     1      -9.309   1.352 123.622  0.00  0.00    +0.000 C 
BRANCH  27  28
ATOM     28  O   UNL     1     -10.076   2.195 124.533  0.00  0.00    +0.000 OA
ATOM     29  H   UNL     1     -10.086   1.766 125.414  0.00  0.00    +0.000 HD
ENDBRANCH  27  28
ENDBRANCH  25  27
ENDBRANCH   5  25
BRANCH   9  30
ATOM     30  O   UNL     1      -8.751   0.562 126.822  0.00  0.00    +0.000 OA
ATOM     31  H   UNL     1      -9.649   0.893 126.662  0.00  0.00    +0.000 HD
ENDBRANCH   9  30
TORSDOF 5
ENDMDL
MODEL 2
REMARK VINA RESULT:      -8.4      2.305      6.260
REMARK  Name = Betamethasone
REMARK  8 active torsions:
REMARK  status: ('A' for Active; 'I' for Inactive)
REMARK    1  A    between atoms: C_4  and  C_5
REMARK    2  A    between atoms: C_6  and  O_7
REMARK    3  A    between atoms: C_6  and  C_8
REMARK    4  A    between atoms: C_8  and  C_10
REMARK    5  A    between atoms: C_10  and  O_11
REMARK    6  A    between atoms: C_12  and  C_13
REMARK    7  A    between atoms: C_15  and  O_16
REMARK    8  A    between atoms: C_29  and  C_30
REMARK                            x       y       z     vdW  Elec       q    Type
REMARK                         _______ _______ _______ _____ _____    ______ ____
ROOT
ATOM      1  C   UNL     1      -7.077  -3.300 130.504  0.00  0.00    +0.000 C 
ATOM      2  C   UNL     1      -6.050  -4.152 130.034  0.00  0.00    +0.000 C 
ATOM      3  C   UNL     1      -5.595  -2.740 129.896  0.00  0.00    +0.000 C 
ATOM      4  C   UNL     1      -4.102  -3.451 129.061  0.00  0.00    +0.000 C 
ATOM      5  C   UNL     1      -6.806  -1.398 130.926  0.00  0.00    +0.000 C 
ATOM      6  C   UNL     1      -5.798  -2.177 131.345  0.00  0.00    +0.000 C 
ATOM      7  C   UNL     1      -5.460  -2.608 132.719  0.00  0.00    +0.000 C 
ATOM      8  C   UNL     1      -5.016  -0.780 130.399  0.00  0.00    +0.000 C 
ATOM      9  C   UNL     1      -6.088  -0.335 128.962  0.00  0.00    +0.000 C 
ATOM     10  C   UNL     1      -7.125  -1.539 128.173  0.00  0.00    +0.000 C 
ATOM     11  F   UNL     1      -6.350  -2.716 128.018  0.00  0.00    +0.000 F 
ATOM     12  C   UNL     1      -8.027  -2.495 129.148  0.00  0.00    +0.000 C 
ATOM     13  C   UNL     1      -8.477  -3.700 128.294  0.00  0.00    +0.000 C 
ATOM     14  C   UNL     1      -8.989  -3.248 126.964  0.00  0.00    +0.000 C 
ATOM     15  C   UNL     1      -7.793  -2.812 126.152  0.00  0.00    +0.000 C 
ATOM     16  C   UNL     1      -7.564  -3.168 124.869  0.00  0.00    +0.000 C 
ATOM     17  C   UNL     1      -8.809  -2.608 124.369  0.00  0.00    +0.000 C 
ATOM     18  O   UNL     1      -9.812  -3.248 124.138  0.00  0.00    +0.000 OA
ATOM     19  C   UNL     1      -8.592  -1.124 124.316  0.00  0.00    +0.000 C 
ATOM     20  C   UNL     1      -7.833  -0.572 125.367  0.00  0.00    +0.000 C 
ATOM     21  C   UNL     1      -7.127  -1.500 126.528  0.00  0.00    +0.000 C 
ATOM     22  C   UNL     1      -5.546  -1.915 126.251  0.00  0.00    +0.000 C 
ENDROOT
BRANCH   5  23
ATOM     23  O   UNL     1      -8.021  -1.880 131.765  0.00  0.00    +0.000 OA
ATOM     24  H   UNL     1      -8.821  -1.340 131.738  0.00  0.00    +0.000 HD
ENDBRANCH   5  23
BRANCH   5  25
ATOM     25  C   UNL     1      -6.657  -0.023 132.183  0.00  0.00    +0.000 C 
ATOM     26  O   UNL     1      -7.555   0.242 133.002  0.00  0.00    +0.000 OA
BRANCH  25  27
ATOM     27  C   UNL     1      -5.436   1.054 132.305  0.00  0.00    +0.000 C 
BRANCH  27  28
ATOM     28  O   UNL     1      -5.804   2.339 131.719  0.00  0.00    +0.000 OA
ATOM     29  H   UNL     1      -4.980   2.819 131.489  0.00  0.00    +0.000 HD
ENDBRANCH  27  28
ENDBRANCH  25  27
ENDBRANCH   5  25
BRANCH   9  30
ATOM     30  O   UNL     1      -6.899   0.780 129.368  0.00  0.00    +0.000 OA
ATOM     31  H   UNL     1      -6.976   1.423 128.645  0.00  0.00    +0.000 HD
ENDBRANCH   9  30
TORSDOF 5
ENDMDL
MODEL 3
REMARK VINA RESULT:      -8.2      3.169      5.651
REMARK  Name = Betamethasone
REMARK  8 active torsions:
REMARK  status: ('A' for Active; 'I' for Inactive)
REMARK    1  A    between atoms: C_4  and  C_5
REMARK    2  A    between atoms: C_6  and  O_7
REMARK    3  A    between atoms: C_6  and  C_8
REMARK    4  A    between atoms: C_8  and  C_10
REMARK    5  A    between atoms: C_10  and  O_11
REMARK    6  A    between atoms: C_12  and  C_13
REMARK    7  A    between atoms: C_15  and  O_16
REMARK    8  A    between atoms: C_29  and  C_30
REMARK                            x       y       z     vdW  Elec       q    Type
REMARK                         _______ _______ _______ _____ _____    ______ ____
ROOT
ATOM      1  C   UNL     1      -8.114   2.415 127.432  0.00  0.00    +0.000 C 
ATOM      2  C   UNL     1      -8.759   1.847 128.556  0.00  0.00    +0.000 C 
ATOM      3  C   UNL     1      -7.330   1.427 128.566  0.00  0.00    +0.000 C 
ATOM      4  C   UNL     1      -7.794   0.384 130.025  0.00  0.00    +0.000 C 
ATOM      5  C   UNL     1      -6.160   2.512 127.231  0.00  0.00    +0.000 C 
ATOM      6  C   UNL     1      -6.574   2.797 128.474  0.00  0.00    +0.000 C 
ATOM      7  C   UNL     1      -6.645   4.107 129.157  0.00  0.00    +0.000 C 
ATOM      8  C   UNL     1      -5.230   1.526 128.654  0.00  0.00    +0.000 C 
ATOM      9  C   UNL     1      -5.339   0.315 127.263  0.00  0.00    +0.000 C 
ATOM     10  C   UNL     1      -6.886  -0.060 126.482  0.00  0.00    +0.000 C 
ATOM     11  F   UNL     1      -7.843  -0.225 127.514  0.00  0.00    +0.000 F 
ATOM     12  C   UNL     1      -7.836   1.208 126.069  0.00  0.00    +0.000 C 
ATOM     13  C   UNL     1      -9.252   0.641 125.830  0.00  0.00    +0.000 C 
ATOM     14  C   UNL     1      -9.196  -0.591 124.985  0.00  0.00    +0.000 C 
ATOM     15  C   UNL     1      -8.638  -1.697 125.849  0.00  0.00    +0.000 C 
ATOM     16  C   UNL     1      -9.159  -2.941 125.937  0.00  0.00    +0.000 C 
ATOM     17  C   UNL     1      -9.027  -3.223 124.517  0.00  0.00    +0.000 C 
ATOM     18  O   UNL     1      -9.925  -3.141 123.708  0.00  0.00    +0.000 OA
ATOM     19  C   UNL     1      -7.571  -3.519 124.298  0.00  0.00    +0.000 C 
ATOM     20  C   UNL     1      -6.664  -2.743 125.046  0.00  0.00    +0.000 C 
ATOM     21  C   UNL     1      -7.155  -1.654 126.177  0.00  0.00    +0.000 C 
ATOM     22  C   UNL     1      -7.212  -2.216 127.736  0.00  0.00    +0.000 C 
ENDROOT
BRANCH   5  23
ATOM     23  O   UNL     1      -6.762   3.654 126.367  0.00  0.00    +0.000 OA
ATOM     24  H   UNL     1      -7.582   4.059 126.675  0.00  0.00    +0.000 HD
ENDBRANCH   5  23
BRANCH   5  25
ATOM     25  C   UNL     1      -4.581   3.512 127.210  0.00  0.00    +0.000 C 
ATOM     26  O   UNL     1      -4.402   4.473 126.440  0.00  0.00    +0.000 OA
BRANCH  25  27
ATOM     27  C   UNL     1      -3.229   3.211 128.073  0.00  0.00    +0.000 C 
BRANCH  27  28
ATOM     28  O   UNL     1      -2.212   2.562 127.253  0.00  0.00    +0.000 OA
ATOM     29  H   UNL     1      -2.639   1.840 126.746  0.00  0.00    +0.000 HD
ENDBRANCH  27  28
ENDBRANCH  25  27
ENDBRANCH   5  25
BRANCH   9  30
ATOM     30  O   UNL     1      -4.402   0.739 126.258  0.00  0.00    +0.000 OA
ATOM     31  H   UNL     1      -3.493   0.664 126.591  0.00  0.00    +0.000 HD
ENDBRANCH   9  30
TORSDOF 5
ENDMDL
MODEL 4
REMARK VINA RESULT:      -8.0      7.342      8.735
REMARK  Name = Betamethasone
REMARK  8 active torsions:
REMARK  status: ('A' for Active; 'I' for Inactive)
REMARK    1  A    between atoms: C_4  and  C_5
REMARK    2  A    between atoms: C_6  and  O_7
REMARK    3  A    between atoms: C_6  and  C_8
REMARK    4  A    between atoms: C_8  and  C_10
REMARK    5  A    between atoms: C_10  and  O_11
REMARK    6  A    between atoms: C_12  and  C_13
REMARK    7  A    between atoms: C_15  and  O_16
REMARK    8  A    between atoms: C_29  and  C_30
REMARK                            x       y       z     vdW  Elec       q    Type
REMARK                         _______ _______ _______ _____ _____    ______ ____
ROOT
ATOM      1  C   UNL     1      -8.144   3.121 130.848  0.00  0.00    +0.000 C 
ATOM      2  C   UNL     1      -8.388   2.603 132.142  0.00  0.00    +0.000 C 
ATOM      3  C   UNL     1      -8.668   4.066 132.156  0.00  0.00    +0.000 C 
ATOM      4  C   UNL     1      -8.941   3.852 133.976  0.00  0.00    +0.000 C 
ATOM      5  C   UNL     1      -8.768   4.887 130.247  0.00  0.00    +0.000 C 
ATOM      6  C   UNL     1      -9.683   4.226 130.971  0.00  0.00    +0.000 C 
ATOM      7  C   UNL     1     -10.920   3.553 130.522  0.00  0.00    +0.000 C 
ATOM      8  C   UNL     1      -9.555   5.924 131.719  0.00  0.00    +0.000 C 
ATOM      9  C   UNL     1      -7.799   6.493 131.655  0.00  0.00    +0.000 C 
ATOM     10  C   UNL     1      -6.450   5.342 131.705  0.00  0.00    +0.000 C 
ATOM     11  F   UNL     1      -6.751   4.394 132.715  0.00  0.00    +0.000 F 
ATOM     12  C   UNL     1      -6.552   4.037 130.722  0.00  0.00    +0.000 C 
ATOM     13  C   UNL     1      -5.530   3.005 131.248  0.00  0.00    +0.000 C 
ATOM     14  C   UNL     1      -4.216   3.657 131.535  0.00  0.00    +0.000 C 
ATOM     15  C   UNL     1      -4.393   4.480 132.789  0.00  0.00    +0.000 C 
ATOM     16  C   UNL     1      -3.536   4.483 133.834  0.00  0.00    +0.000 C 
ATOM     17  C   UNL     1      -2.392   4.910 133.045  0.00  0.00    +0.000 C 
ATOM     18  O   UNL     1      -1.529   4.173 132.621  0.00  0.00    +0.000 OA
ATOM     19  C   UNL     1      -2.590   6.380 132.810  0.00  0.00    +0.000 C 
ATOM     20  C   UNL     1      -3.916   6.797 132.584  0.00  0.00    +0.000 C 
ATOM     21  C   UNL     1      -5.195   5.765 132.680  0.00  0.00    +0.000 C 
ATOM     22  C   UNL     1      -5.971   5.719 134.145  0.00  0.00    +0.000 C 
ENDROOT
BRANCH   5  23
ATOM     23  O   UNL     1      -8.595   4.010 128.976  0.00  0.00    +0.000 OA
ATOM     24  H   UNL     1      -8.253   4.440 128.183  0.00  0.00    +0.000 HD
ENDBRANCH   5  23
BRANCH   5  25
ATOM     25  C   UNL     1      -9.915   5.932 129.205  0.00  0.00    +0.000 C 
ATOM     26  O   UNL     1      -9.612   6.339 128.069  0.00  0.00    +0.000 OA
BRANCH  25  27
ATOM     27  C   UNL     1     -11.364   6.531 129.660  0.00  0.00    +0.000 C 
BRANCH  27  28
ATOM     28  O   UNL     1     -12.406   6.178 128.702  0.00  0.00    +0.000 OA
ATOM     29  H   UNL     1     -12.290   5.237 128.454  0.00  0.00    +0.000 HD
ENDBRANCH  27  28
ENDBRANCH  25  27
ENDBRANCH   5  25
BRANCH   9  30
ATOM     30  O   UNL     1      -7.663   7.317 130.485  0.00  0.00    +0.000 OA
ATOM     31  H   UNL     1      -7.474   8.234 130.738  0.00  0.00    +0.000 HD
ENDBRANCH   9  30
TORSDOF 5
ENDMDL
MODEL 5
REMARK VINA RESULT:      -7.9      6.740      7.527
REMARK  Name = Betamethasone
REMARK  8 active torsions:
REMARK  status: ('A' for Active; 'I' for Inactive)
REMARK    1  A    between atoms: C_4  and  C_5
REMARK    2  A    between atoms: C_6  and  O_7
REMARK    3  A    between atoms: C_6  and  C_8
REMARK    4  A    between atoms: C_8  and  C_10
REMARK    5  A    between atoms: C_10  and  O_11
REMARK    6  A    between atoms: C_12  and  C_13
REMARK    7  A    between atoms: C_15  and  O_16
REMARK    8  A    between atoms: C_29  and  C_30
REMARK                            x       y       z     vdW  Elec       q    Type
REMARK                         _______ _______ _______ _____ _____    ______ ____
ROOT
ATOM      1  C   UNL     1      -3.929   4.152 126.894  0.00  0.00    +0.000 C 
ATOM      2  C   UNL     1      -3.202   3.006 127.292  0.00  0.00    +0.000 C 
ATOM      3  C   UNL     1      -4.537   2.973 127.950  0.00  0.00    +0.000 C 
ATOM      4  C   UNL     1      -3.908   1.469 128.831  0.00  0.00    +0.000 C 
ATOM      5  C   UNL     1      -5.870   4.351 127.144  0.00  0.00    +0.000 C 
ATOM      6  C   UNL     1      -5.517   3.124 126.736  0.00  0.00    +0.000 C 
ATOM      7  C   UNL     1      -5.676   2.500 125.404  0.00  0.00    +0.000 C 
ATOM      8  C   UNL     1      -6.624   2.883 128.210  0.00  0.00    +0.000 C 
ATOM      9  C   UNL     1      -6.301   4.218 129.445  0.00  0.00    +0.000 C 
ATOM     10  C   UNL     1      -4.709   4.987 129.583  0.00  0.00    +0.000 C 
ATOM     11  F   UNL     1      -3.743   3.951 129.534  0.00  0.00    +0.000 F 
ATOM     12  C   UNL     1      -3.989   5.458 128.190  0.00  0.00    +0.000 C 
ATOM     13  C   UNL     1      -2.496   5.676 128.516  0.00  0.00    +0.000 C 
ATOM     14  C   UNL     1      -2.335   6.465 129.775  0.00  0.00    +0.000 C 
ATOM     15  C   UNL     1      -2.698   5.551 130.921  0.00  0.00    +0.000 C 
ATOM     16  C   UNL     1      -1.971   5.409 132.051  0.00  0.00    +0.000 C 
ATOM     17  C   UNL     1      -2.047   6.814 132.415  0.00  0.00    +0.000 C 
ATOM     18  O   UNL     1      -1.172   7.628 132.215  0.00  0.00    +0.000 OA
ATOM     19  C   UNL     1      -3.429   7.015 132.966  0.00  0.00    +0.000 C 
ATOM     20  C   UNL     1      -4.459   6.300 132.326  0.00  0.00    +0.000 C 
ATOM     21  C   UNL     1      -4.168   5.220 131.119  0.00  0.00    +0.000 C 
ATOM     22  C   UNL     1      -4.023   3.638 131.592  0.00  0.00    +0.000 C 
ENDROOT
BRANCH   5  23
ATOM     23  O   UNL     1      -5.469   5.267 125.955  0.00  0.00    +0.000 OA
ATOM     24  H   UNL     1      -5.586   6.219 126.068  0.00  0.00    +0.000 HD
ENDBRANCH   5  23
BRANCH   5  25
ATOM     25  C   UNL     1      -7.597   4.413 126.432  0.00  0.00    +0.000 C 
ATOM     26  O   UNL     1      -8.453   5.234 126.807  0.00  0.00    +0.000 OA
BRANCH  25  27
ATOM     27  C   UNL     1      -8.239   3.371 125.351  0.00  0.00    +0.000 C 
BRANCH  27  28
ATOM     28  O   UNL     1      -8.329   3.974 124.025  0.00  0.00    +0.000 OA
ATOM     29  H   UNL     1      -8.615   3.283 123.391  0.00  0.00    +0.000 HD
ENDBRANCH  27  28
ENDBRANCH  25  27
ENDBRANCH   5  25
BRANCH   9  30
ATOM     30  O   UNL     1      -7.292   5.238 129.234  0.00  0.00    +0.000 OA
ATOM     31  H   UNL     1      -7.128   5.701 128.398  0.00  0.00    +0.000 HD
ENDBRANCH   9  30
TORSDOF 5
ENDMDL
MODEL 6
REMARK VINA RESULT:      -7.8      5.862      6.677
REMARK  Name = Betamethasone
REMARK  8 active torsions:
REMARK  status: ('A' for Active; 'I' for Inactive)
REMARK    1  A    between atoms: C_4  and  C_5
REMARK    2  A    between atoms: C_6  and  O_7
REMARK    3  A    between atoms: C_6  and  C_8
REMARK    4  A    between atoms: C_8  and  C_10
REMARK    5  A    between atoms: C_10  and  O_11
REMARK    6  A    between atoms: C_12  and  C_13
REMARK    7  A    between atoms: C_15  and  O_16
REMARK    8  A    between atoms: C_29  and  C_30
REMARK                            x       y       z     vdW  Elec       q    Type
REMARK                         _______ _______ _______ _____ _____    ______ ____
ROOT
ATOM      1  C   UNL     1      -4.460   3.418 126.092  0.00  0.00    +0.000 C 
ATOM      2  C   UNL     1      -3.899   2.232 126.623  0.00  0.00    +0.000 C 
ATOM      3  C   UNL     1      -5.271   2.397 127.177  0.00  0.00    +0.000 C 
ATOM      4  C   UNL     1      -4.882   0.905 128.205  0.00  0.00    +0.000 C 
ATOM      5  C   UNL     1      -6.378   3.848 126.177  0.00  0.00    +0.000 C 
ATOM      6  C   UNL     1      -6.141   2.561 125.883  0.00  0.00    +0.000 C 
ATOM      7  C   UNL     1      -6.278   1.859 124.589  0.00  0.00    +0.000 C 
ATOM      8  C   UNL     1      -7.367   2.557 127.280  0.00  0.00    +0.000 C 
ATOM      9  C   UNL     1      -6.979   3.939 128.443  0.00  0.00    +0.000 C 
ATOM     10  C   UNL     1      -5.322   4.537 128.650  0.00  0.00    +0.000 C 
ATOM     11  F   UNL     1      -4.481   3.400 128.747  0.00  0.00    +0.000 F 
ATOM     12  C   UNL     1      -4.459   4.818 127.288  0.00  0.00    +0.000 C 
ATOM     13  C   UNL     1      -2.976   4.895 127.712  0.00  0.00    +0.000 C 
ATOM     14  C   UNL     1      -2.813   5.755 128.924  0.00  0.00    +0.000 C 
ATOM     15  C   UNL     1      -3.357   4.977 130.098  0.00  0.00    +0.000 C 
ATOM     16  C   UNL     1      -2.731   4.843 131.288  0.00  0.00    +0.000 C 
ATOM     17  C   UNL     1      -2.669   6.271 131.548  0.00  0.00    +0.000 C 
ATOM     18  O   UNL     1      -1.694   6.967 131.361  0.00  0.00    +0.000 OA
ATOM     19  C   UNL     1      -4.053   6.665 131.975  0.00  0.00    +0.000 C 
ATOM     20  C   UNL     1      -5.113   6.021 131.308  0.00  0.00    +0.000 C 
ATOM     21  C   UNL     1      -4.865   4.826 130.204  0.00  0.00    +0.000 C 
ATOM     22  C   UNL     1      -4.936   3.278 130.794  0.00  0.00    +0.000 C 
ENDROOT
BRANCH   5  23
ATOM     23  O   UNL     1      -5.793   4.620 124.963  0.00  0.00    +0.000 OA
ATOM     24  H   UNL     1      -5.809   4.178 124.105  0.00  0.00    +0.000 HD
ENDBRANCH   5  23
BRANCH   5  25
ATOM     25  C   UNL     1      -8.033   4.044 125.332  0.00  0.00    +0.000 C 
ATOM     26  O   UNL     1      -8.828   4.958 125.610  0.00  0.00    +0.000 OA
BRANCH  25  27
ATOM     27  C   UNL     1      -8.692   3.023 124.241  0.00  0.00    +0.000 C 
BRANCH  27  28
ATOM     28  O   UNL     1      -9.849   2.329 124.799  0.00  0.00    +0.000 OA
ATOM     29  H   UNL     1     -10.652   2.848 124.583  0.00  0.00    +0.000 HD
ENDBRANCH  27  28
ENDBRANCH  25  27
ENDBRANCH   5  25
BRANCH   9  30
ATOM     30  O   UNL     1      -7.829   5.043 128.087  0.00  0.00    +0.000 OA
ATOM     31  H   UNL     1      -7.351   5.668 127.518  0.00  0.00    +0.000 HD
ENDBRANCH   9  30
TORSDOF 5
ENDMDL
MODEL 7
REMARK VINA RESULT:      -7.7      2.263      6.410
REMARK  Name = Betamethasone
REMARK  8 active torsions:
REMARK  status: ('A' for Active; 'I' for Inactive)
REMARK    1  A    between atoms: C_4  and  C_5
REMARK    2  A    between atoms: C_6  and  O_7
REMARK    3  A    between atoms: C_6  and  C_8
REMARK    4  A    between atoms: C_8  and  C_10
REMARK    5  A    between atoms: C_10  and  O_11
REMARK    6  A    between atoms: C_12  and  C_13
REMARK    7  A    between atoms: C_15  and  O_16
REMARK    8  A    between atoms: C_29  and  C_30
REMARK                            x       y       z     vdW  Elec       q    Type
REMARK                         _______ _______ _______ _____ _____    ______ ____
ROOT
ATOM      1  C   UNL     1      -5.127  -1.169 128.177  0.00  0.00    +0.000 C 
ATOM      2  C   UNL     1      -5.525   0.186 128.093  0.00  0.00    +0.000 C 
ATOM      3  C   UNL     1      -6.647  -0.603 128.675  0.00  0.00    +0.000 C 
ATOM      4  C   UNL     1      -7.610   0.978 128.601  0.00  0.00    +0.000 C 
ATOM      5  C   UNL     1      -6.072  -2.518 129.252  0.00  0.00    +0.000 C 
ATOM      6  C   UNL     1      -5.956  -1.336 129.876  0.00  0.00    +0.000 C 
ATOM      7  C   UNL     1      -5.068  -0.955 130.996  0.00  0.00    +0.000 C 
ATOM      8  C   UNL     1      -7.749  -1.814 129.997  0.00  0.00    +0.000 C 
ATOM      9  C   UNL     1      -8.267  -2.656 128.437  0.00  0.00    +0.000 C 
ATOM     10  C   UNL     1      -7.499  -2.281 126.883  0.00  0.00    +0.000 C 
ATOM     11  F   UNL     1      -7.382  -0.871 126.808  0.00  0.00    +0.000 F 
ATOM     12  C   UNL     1      -5.863  -2.223 126.859  0.00  0.00    +0.000 C 
ATOM     13  C   UNL     1      -5.466  -1.473 125.569  0.00  0.00    +0.000 C 
ATOM     14  C   UNL     1      -6.240  -1.984 124.397  0.00  0.00    +0.000 C 
ATOM     15  C   UNL     1      -7.655  -1.476 124.543  0.00  0.00    +0.000 C 
ATOM     16  C   UNL     1      -8.373  -0.906 123.550  0.00  0.00    +0.000 C 
ATOM     17  C   UNL     1      -8.283  -2.056 122.667  0.00  0.00    +0.000 C 
ATOM     18  O   UNL     1      -7.504  -2.162 121.745  0.00  0.00    +0.000 OA
ATOM     19  C   UNL     1      -9.259  -3.060 123.210  0.00  0.00    +0.000 C 
ATOM     20  C   UNL     1      -9.350  -3.137 124.613  0.00  0.00    +0.000 C 
ATOM     21  C   UNL     1      -8.526  -2.118 125.609  0.00  0.00    +0.000 C 
ATOM     22  C   UNL     1      -9.362  -0.777 126.112  0.00  0.00    +0.000 C 
ENDROOT
BRANCH   5  23
ATOM     23  O   UNL     1      -4.605  -3.004 129.102  0.00  0.00    +0.000 OA
ATOM     24  H   UNL     1      -4.257  -3.586 129.789  0.00  0.00    +0.000 HD
ENDBRANCH   5  23
BRANCH   5  25
ATOM     25  C   UNL     1      -6.146  -3.635 130.748  0.00  0.00    +0.000 C 
ATOM     26  O   UNL     1      -5.783  -4.825 130.720  0.00  0.00    +0.000 OA
BRANCH  25  27
ATOM     27  C   UNL     1      -6.778  -3.264 132.207  0.00  0.00    +0.000 C 
BRANCH  27  28
ATOM     28  O   UNL     1      -5.960  -3.801 133.290  0.00  0.00    +0.000 OA
ATOM     29  H   UNL     1      -5.681  -4.708 133.043  0.00  0.00    +0.000 HD
ENDBRANCH  27  28
ENDBRANCH  25  27
ENDBRANCH   5  25
BRANCH   9  30
ATOM     30  O   UNL     1      -8.176  -4.072 128.670  0.00  0.00    +0.000 OA
ATOM     31  H   UNL     1      -8.229  -4.557 127.831  0.00  0.00    +0.000 HD
ENDBRANCH   9  30
TORSDOF 5
ENDMDL
MODEL 8
REMARK VINA RESULT:      -7.6      2.524      3.859
REMARK  Name = Betamethasone
REMARK  8 active torsions:
REMARK  status: ('A' for Active; 'I' for Inactive)
REMARK    1  A    between atoms: C_4  and  C_5
REMARK    2  A    between atoms: C_6  and  O_7
REMARK    3  A    between atoms: C_6  and  C_8
REMARK    4  A    between atoms: C_8  and  C_10
REMARK    5  A    between atoms: C_10  and  O_11
REMARK    6  A    between atoms: C_12  and  C_13
REMARK    7  A    between atoms: C_15  and  O_16
REMARK    8  A    between atoms: C_29  and  C_30
REMARK                            x       y       z     vdW  Elec       q    Type
REMARK                         _______ _______ _______ _____ _____    ______ ____
ROOT
ATOM      1  C   UNL     1      -7.959   2.443 125.973  0.00  0.00    +0.000 C 
ATOM      2  C   UNL     1      -6.596   2.788 126.134  0.00  0.00    +0.000 C 
ATOM      3  C   UNL     1      -6.681   1.348 125.762  0.00  0.00    +0.000 C 
ATOM      4  C   UNL     1      -4.846   1.321 126.017  0.00  0.00    +0.000 C 
ATOM      5  C   UNL     1      -8.569   0.799 125.081  0.00  0.00    +0.000 C 
ATOM      6  C   UNL     1      -7.541   1.388 124.452  0.00  0.00    +0.000 C 
ATOM      7  C   UNL     1      -7.537   2.161 123.191  0.00  0.00    +0.000 C 
ATOM      8  C   UNL     1      -7.071  -0.399 124.656  0.00  0.00    +0.000 C 
ATOM      9  C   UNL     1      -7.696  -1.018 126.280  0.00  0.00    +0.000 C 
ATOM     10  C   UNL     1      -7.891   0.066 127.671  0.00  0.00    +0.000 C 
ATOM     11  F   UNL     1      -6.731   0.877 127.730  0.00  0.00    +0.000 F 
ATOM     12  C   UNL     1      -8.640   1.496 127.398  0.00  0.00    +0.000 C 
ATOM     13  C   UNL     1      -8.303   2.408 128.598  0.00  0.00    +0.000 C 
ATOM     14  C   UNL     1      -8.480   1.675 129.889  0.00  0.00    +0.000 C 
ATOM     15  C   UNL     1      -7.336   0.696 130.004  0.00  0.00    +0.000 C 
ATOM     16  C   UNL     1      -6.585   0.519 131.113  0.00  0.00    +0.000 C 
ATOM     17  C   UNL     1      -7.710   0.163 131.961  0.00  0.00    +0.000 C 
ATOM     18  O   UNL     1      -8.269   0.919 132.725  0.00  0.00    +0.000 OA
ATOM     19  C   UNL     1      -8.056  -1.253 131.599  0.00  0.00    +0.000 C 
ATOM     20  C   UNL     1      -7.946  -1.587 130.235  0.00  0.00    +0.000 C 
ATOM     21  C   UNL     1      -7.369  -0.532 129.111  0.00  0.00    +0.000 C 
ATOM     22  C   UNL     1      -5.750  -0.659 128.775  0.00  0.00    +0.000 C 
ENDROOT
BRANCH   5  23
ATOM     23  O   UNL     1      -9.720   1.835 124.960  0.00  0.00    +0.000 OA
ATOM     24  H   UNL     1      -9.683   2.457 124.223  0.00  0.00    +0.000 HD
ENDBRANCH   5  23
BRANCH   5  25
ATOM     25  C   UNL     1      -9.363  -0.051 123.618  0.00  0.00    +0.000 C 
ATOM     26  O   UNL     1     -10.421   0.347 123.099  0.00  0.00    +0.000 OA
BRANCH  25  27
ATOM     27  C   UNL     1      -8.869  -1.440 122.918  0.00  0.00    +0.000 C 
BRANCH  27  28
ATOM     28  O   UNL     1      -9.684  -2.570 123.354  0.00  0.00    +0.000 OA
ATOM     29  H   UNL     1     -10.624  -2.358 123.177  0.00  0.00    +0.000 HD
ENDBRANCH  27  28
ENDBRANCH  25  27
ENDBRANCH   5  25
BRANCH   9  30
ATOM     30  O   UNL     1      -8.948  -1.678 126.028  0.00  0.00    +0.000 OA
ATOM     31  H   UNL     1      -8.931  -2.582 126.381  0.00  0.00    +0.000 HD
ENDBRANCH   9  30
TORSDOF 5
ENDMDL
MODEL 9
REMARK VINA RESULT:      -7.5      8.125     10.107
REMARK  Name = Betamethasone
REMARK  8 active torsions:
REMARK  status: ('A' for Active; 'I' for Inactive)
REMARK    1  A    between atoms: C_4  and  C_5
REMARK    2  A    between atoms: C_6  and  O_7
REMARK    3  A    between atoms: C_6  and  C_8
REMARK    4  A    between atoms: C_8  and  C_10
REMARK    5  A    between atoms: C_10  and  O_11
REMARK    6  A    between atoms: C_12  and  C_13
REMARK    7  A    between atoms: C_15  and  O_16
REMARK    8  A    between atoms: C_29  and  C_30
REMARK                            x       y       z     vdW  Elec       q    Type
REMARK                         _______ _______ _______ _____ _____    ______ ____
ROOT
ATOM      1  C   UNL     1      -6.287   4.484 133.441  0.00  0.00    +0.000 C 
ATOM      2  C   UNL     1      -6.651   3.193 132.993  0.00  0.00    +0.000 C 
ATOM      3  C   UNL     1      -6.034   3.932 131.857  0.00  0.00    +0.000 C 
ATOM      4  C   UNL     1      -6.479   2.451 130.836  0.00  0.00    +0.000 C 
ATOM      5  C   UNL     1      -5.068   5.675 132.457  0.00  0.00    +0.000 C 
ATOM      6  C   UNL     1      -4.663   4.396 132.461  0.00  0.00    +0.000 C 
ATOM      7  C   UNL     1      -3.560   3.769 133.219  0.00  0.00    +0.000 C 
ATOM      8  C   UNL     1      -4.613   4.952 130.688  0.00  0.00    +0.000 C 
ATOM      9  C   UNL     1      -6.031   6.089 130.359  0.00  0.00    +0.000 C 
ATOM     10  C   UNL     1      -7.555   5.951 131.255  0.00  0.00    +0.000 C 
ATOM     11  F   UNL     1      -7.876   4.572 131.317  0.00  0.00    +0.000 F 
ATOM     12  C   UNL     1      -7.448   5.799 132.882  0.00  0.00    +0.000 C 
ATOM     13  C   UNL     1      -8.814   5.268 133.367  0.00  0.00    +0.000 C 
ATOM     14  C   UNL     1      -9.935   6.026 132.733  0.00  0.00    +0.000 C 
ATOM     15  C   UNL     1     -10.008   5.587 131.290  0.00  0.00    +0.000 C 
ATOM     16  C   UNL     1     -11.146   5.248 130.646  0.00  0.00    +0.000 C 
ATOM     17  C   UNL     1     -11.793   6.530 130.870  0.00  0.00    +0.000 C 
ATOM     18  O   UNL     1     -12.609   6.750 131.739  0.00  0.00    +0.000 OA
ATOM     19  C   UNL     1     -11.162   7.478 129.893  0.00  0.00    +0.000 C 
ATOM     20  C   UNL     1      -9.781   7.309 129.671  0.00  0.00    +0.000 C 
ATOM     21  C   UNL     1      -8.921   6.080 130.349  0.00  0.00    +0.000 C 
ATOM     22  C   UNL     1      -8.747   4.724 129.411  0.00  0.00    +0.000 C 
ENDROOT
BRANCH   5  23
ATOM     23  O   UNL     1      -5.000   6.091 133.952  0.00  0.00    +0.000 OA
ATOM     24  H   UNL     1      -5.790   5.952 134.489  0.00  0.00    +0.000 HD
ENDBRANCH   5  23
BRANCH   5  25
ATOM     25  C   UNL     1      -3.405   6.510 132.289  0.00  0.00    +0.000 C 
ATOM     26  O   UNL     1      -3.232   7.720 132.519  0.00  0.00    +0.000 OA
BRANCH  25  27
ATOM     27  C   UNL     1      -2.030   5.831 131.730  0.00  0.00    +0.000 C 
BRANCH  27  28
ATOM     28  O   UNL     1      -1.516   6.555 130.572  0.00  0.00    +0.000 OA
ATOM     29  H   UNL     1      -0.555   6.700 130.701  0.00  0.00    +0.000 HD
ENDBRANCH  27  28
ENDBRANCH  25  27
ENDBRANCH   5  25
BRANCH   9  30
ATOM     30  O   UNL     1      -5.536   7.433 130.489  0.00  0.00    +0.000 OA
ATOM     31  H   UNL     1      -6.270   8.066 130.479  0.00  0.00    +0.000 HD
ENDBRANCH   9  30
TORSDOF 5
ENDMDL
