MODEL 1
REMARK VINA RESULT:      -4.0      0.000      0.000
REMARK  Name = Betaine
REMARK  5 active torsions:
REMARK  status: ('A' for Active; 'I' for Inactive)
REMARK    1  A    between atoms: C_1  and  N_2
REMARK    2  A    between atoms: N_2  and  C_3
REMARK    3  A    between atoms: N_2  and  C_4
REMARK    4  A    between atoms: N_2  and  C_5
REMARK    5  A    between atoms: C_5  and  C_6
REMARK                            x       y       z     vdW  Elec       q    Type
REMARK                         _______ _______ _______ _____ _____    ______ ____
ROOT
ATOM      1  C   UNL     1     -13.221   7.273 127.921  0.00  0.00    +0.000 C 
ATOM      2  N   UNL     1     -12.229   8.053 128.741  0.00  0.00    +0.000 N 
ATOM      3  C   UNL     1     -12.858   9.352 129.214  0.00  0.00    +0.000 C 
ATOM      4  C   UNL     1     -11.762   7.214 129.919  0.00  0.00    +0.000 C 
ENDROOT
BRANCH   2   5
ATOM      5  C   UNL     1     -10.951   8.423 127.878  0.00  0.00    +0.000 C 
BRANCH   5   6
ATOM      6  C   UNL     1     -10.555   7.532 126.649  0.00  0.00    +0.000 C 
ATOM      7  O   UNL     1     -10.897   7.982 125.516  0.00  0.00    +0.000 OA
ATOM      8  O   UNL     1      -9.944   6.476 126.946  0.00  0.00    +0.000 OA
ENDBRANCH   5   6
ENDBRANCH   2   5
TORSDOF 2
ENDMDL
MODEL 2
REMARK VINA RESULT:      -3.9      0.368      1.565
REMARK  Name = Betaine
REMARK  5 active torsions:
REMARK  status: ('A' for Active; 'I' for Inactive)
REMARK    1  A    between atoms: C_1  and  N_2
REMARK    2  A    between atoms: N_2  and  C_3
REMARK    3  A    between atoms: N_2  and  C_4
REMARK    4  A    between atoms: N_2  and  C_5
REMARK    5  A    between atoms: C_5  and  C_6
REMARK                            x       y       z     vdW  Elec       q    Type
REMARK                         _______ _______ _______ _____ _____    ______ ____
ROOT
ATOM      1  C   UNL     1     -12.205   7.412 130.058  0.00  0.00    +0.000 C 
ATOM      2  N   UNL     1     -12.457   8.223 128.815  0.00  0.00    +0.000 N 
ATOM      3  C   UNL     1     -13.405   7.475 127.894  0.00  0.00    +0.000 C 
ATOM      4  C   UNL     1     -13.025   9.581 129.193  0.00  0.00    +0.000 C 
ENDROOT
BRANCH   2   5
ATOM      5  C   UNL     1     -11.108   8.471 128.020  0.00  0.00    +0.000 C 
BRANCH   5   6
ATOM      6  C   UNL     1     -10.619   7.416 126.966  0.00  0.00    +0.000 C 
ATOM      7  O   UNL     1     -10.921   7.667 125.763  0.00  0.00    +0.000 OA
ATOM      8  O   UNL     1      -9.984   6.449 127.454  0.00  0.00    +0.000 OA
ENDBRANCH   5   6
ENDBRANCH   2   5
TORSDOF 2
ENDMDL
MODEL 3
REMARK VINA RESULT:      -3.6      2.655      3.634
REMARK  Name = Betaine
REMARK  5 active torsions:
REMARK  status: ('A' for Active; 'I' for Inactive)
REMARK    1  A    between atoms: C_1  and  N_2
REMARK    2  A    between atoms: N_2  and  C_3
REMARK    3  A    between atoms: N_2  and  C_4
REMARK    4  A    between atoms: N_2  and  C_5
REMARK    5  A    between atoms: C_5  and  C_6
REMARK                            x       y       z     vdW  Elec       q    Type
REMARK                         _______ _______ _______ _____ _____    ______ ____
ROOT
ATOM      1  C   UNL     1     -12.924   6.922 128.158  0.00  0.00    +0.000 C 
ATOM      2  N   UNL     1     -11.974   7.975 128.661  0.00  0.00    +0.000 N 
ATOM      3  C   UNL     1     -10.930   8.277 127.600  0.00  0.00    +0.000 C 
ATOM      4  C   UNL     1     -12.746   9.229 129.036  0.00  0.00    +0.000 C 
ENDROOT
BRANCH   2   5
ATOM      5  C   UNL     1     -11.211   7.474 129.958  0.00  0.00    +0.000 C 
BRANCH   5   6
ATOM      6  C   UNL     1     -11.878   6.403 130.890  0.00  0.00    +0.000 C 
ATOM      7  O   UNL     1     -11.435   5.223 130.769  0.00  0.00    +0.000 OA
ATOM      8  O   UNL     1     -12.774   6.854 131.645  0.00  0.00    +0.000 OA
ENDBRANCH   5   6
ENDBRANCH   2   5
TORSDOF 2
ENDMDL
MODEL 4
REMARK VINA RESULT:      -3.6      1.581      1.870
REMARK  Name = Betaine
REMARK  5 active torsions:
REMARK  status: ('A' for Active; 'I' for Inactive)
REMARK    1  A    between atoms: C_1  and  N_2
REMARK    2  A    between atoms: N_2  and  C_3
REMARK    3  A    between atoms: N_2  and  C_4
REMARK    4  A    between atoms: N_2  and  C_5
REMARK    5  A    between atoms: C_5  and  C_6
REMARK                            x       y       z     vdW  Elec       q    Type
REMARK                         _______ _______ _______ _____ _____    ______ ____
ROOT
ATOM      1  C   UNL     1     -13.615   7.303 128.120  0.00  0.00    +0.000 C 
ATOM      2  N   UNL     1     -12.791   8.309 128.877  0.00  0.00    +0.000 N 
ATOM      3  C   UNL     1     -13.422   9.686 128.762  0.00  0.00    +0.000 C 
ATOM      4  C   UNL     1     -12.670   7.886 130.332  0.00  0.00    +0.000 C 
ENDROOT
BRANCH   2   5
ATOM      5  C   UNL     1     -11.324   8.401 128.280  0.00  0.00    +0.000 C 
BRANCH   5   6
ATOM      6  C   UNL     1     -10.228   7.378 128.742  0.00  0.00    +0.000 C 
ATOM      7  O   UNL     1      -9.346   7.840 129.523  0.00  0.00    +0.000 OA
ATOM      8  O   UNL     1     -10.366   6.221 128.275  0.00  0.00    +0.000 OA
ENDBRANCH   5   6
ENDBRANCH   2   5
TORSDOF 2
ENDMDL
MODEL 5
REMARK VINA RESULT:      -3.5      2.079      3.030
REMARK  Name = Betaine
REMARK  5 active torsions:
REMARK  status: ('A' for Active; 'I' for Inactive)
REMARK    1  A    between atoms: C_1  and  N_2
REMARK    2  A    between atoms: N_2  and  C_3
REMARK    3  A    between atoms: N_2  and  C_4
REMARK    4  A    between atoms: N_2  and  C_5
REMARK    5  A    between atoms: C_5  and  C_6
REMARK                            x       y       z     vdW  Elec       q    Type
REMARK                         _______ _______ _______ _____ _____    ______ ____
ROOT
ATOM      1  C   UNL     1     -11.631   6.548 131.740  0.00  0.00    +0.000 C 
ATOM      2  N   UNL     1     -10.771   6.237 130.544  0.00  0.00    +0.000 N 
ATOM      3  C   UNL     1      -9.412   6.897 130.700  0.00  0.00    +0.000 C 
ATOM      4  C   UNL     1     -10.631   4.732 130.387  0.00  0.00    +0.000 C 
ENDROOT
BRANCH   2   5
ATOM      5  C   UNL     1     -11.429   6.800 129.215  0.00  0.00    +0.000 C 
BRANCH   5   6
ATOM      6  C   UNL     1     -10.516   7.356 128.067  0.00  0.00    +0.000 C 
ATOM      7  O   UNL     1      -9.899   6.482 127.389  0.00  0.00    +0.000 OA
ATOM      8  O   UNL     1     -10.512   8.607 127.965  0.00  0.00    +0.000 OA
ENDBRANCH   5   6
ENDBRANCH   2   5
TORSDOF 2
ENDMDL
MODEL 6
REMARK VINA RESULT:      -3.4      2.048      3.014
REMARK  Name = Betaine
REMARK  5 active torsions:
REMARK  status: ('A' for Active; 'I' for Inactive)
REMARK    1  A    between atoms: C_1  and  N_2
REMARK    2  A    between atoms: N_2  and  C_3
REMARK    3  A    between atoms: N_2  and  C_4
REMARK    4  A    between atoms: N_2  and  C_5
REMARK    5  A    between atoms: C_5  and  C_6
REMARK                            x       y       z     vdW  Elec       q    Type
REMARK                         _______ _______ _______ _____ _____    ______ ____
ROOT
ATOM      1  C   UNL     1     -10.368   7.197 129.855  0.00  0.00    +0.000 C 
ATOM      2  N   UNL     1     -11.550   6.344 130.231  0.00  0.00    +0.000 N 
ATOM      3  C   UNL     1     -11.110   4.901 130.407  0.00  0.00    +0.000 C 
ATOM      4  C   UNL     1     -12.186   6.878 131.504  0.00  0.00    +0.000 C 
ENDROOT
BRANCH   2   5
ATOM      5  C   UNL     1     -12.654   6.376 129.092  0.00  0.00    +0.000 C 
BRANCH   5   6
ATOM      6  C   UNL     1     -12.461   7.307 127.845  0.00  0.00    +0.000 C 
ATOM      7  O   UNL     1     -12.787   8.518 128.013  0.00  0.00    +0.000 OA
ATOM      8  O   UNL     1     -12.004   6.728 126.829  0.00  0.00    +0.000 OA
ENDBRANCH   5   6
ENDBRANCH   2   5
TORSDOF 2
ENDMDL
MODEL 7
REMARK VINA RESULT:      -3.3      2.372      2.872
REMARK  Name = Betaine
REMARK  5 active torsions:
REMARK  status: ('A' for Active; 'I' for Inactive)
REMARK    1  A    between atoms: C_1  and  N_2
REMARK    2  A    between atoms: N_2  and  C_3
REMARK    3  A    between atoms: N_2  and  C_4
REMARK    4  A    between atoms: N_2  and  C_5
REMARK    5  A    between atoms: C_5  and  C_6
REMARK                            x       y       z     vdW  Elec       q    Type
REMARK                         _______ _______ _______ _____ _____    ______ ____
ROOT
ATOM      1  C   UNL     1     -11.225   4.924 130.371  0.00  0.00    +0.000 C 
ATOM      2  N   UNL     1     -10.986   6.258 131.025  0.00  0.00    +0.000 N 
ATOM      3  C   UNL     1     -12.300   7.008 131.164  0.00  0.00    +0.000 C 
ATOM      4  C   UNL     1     -10.328   6.057 132.380  0.00  0.00    +0.000 C 
ENDROOT
BRANCH   2   5
ATOM      5  C   UNL     1     -10.013   7.151 130.147  0.00  0.00    +0.000 C 
BRANCH   5   6
ATOM      6  C   UNL     1     -10.373   7.458 128.651  0.00  0.00    +0.000 C 
ATOM      7  O   UNL     1     -11.007   8.536 128.453  0.00  0.00    +0.000 OA
ATOM      8  O   UNL     1      -9.985   6.589 127.833  0.00  0.00    +0.000 OA
ENDBRANCH   5   6
ENDBRANCH   2   5
TORSDOF 2
ENDMDL
MODEL 8
REMARK VINA RESULT:      -3.2     11.506     12.255
REMARK  Name = Betaine
REMARK  5 active torsions:
REMARK  status: ('A' for Active; 'I' for Inactive)
REMARK    1  A    between atoms: C_1  and  N_2
REMARK    2  A    between atoms: N_2  and  C_3
REMARK    3  A    between atoms: N_2  and  C_4
REMARK    4  A    between atoms: N_2  and  C_5
REMARK    5  A    between atoms: C_5  and  C_6
REMARK                            x       y       z     vdW  Elec       q    Type
REMARK                         _______ _______ _______ _____ _____    ______ ____
ROOT
ATOM      1  C   UNL     1      -6.317  -1.998 125.613  0.00  0.00    +0.000 C 
ATOM      2  N   UNL     1      -6.599  -2.740 124.334  0.00  0.00    +0.000 N 
ATOM      3  C   UNL     1      -6.920  -1.753 123.225  0.00  0.00    +0.000 C 
ATOM      4  C   UNL     1      -5.404  -3.604 123.965  0.00  0.00    +0.000 C 
ENDROOT
BRANCH   2   5
ATOM      5  C   UNL     1      -7.852  -3.699 124.503  0.00  0.00    +0.000 C 
BRANCH   5   6
ATOM      6  C   UNL     1      -9.302  -3.107 124.428  0.00  0.00    +0.000 C 
ATOM      7  O   UNL     1      -9.692  -2.485 125.460  0.00  0.00    +0.000 OA
ATOM      8  O   UNL     1      -9.900  -3.327 123.346  0.00  0.00    +0.000 OA
ENDBRANCH   5   6
ENDBRANCH   2   5
TORSDOF 2
ENDMDL
MODEL 9
REMARK VINA RESULT:      -3.2      3.178      4.225
REMARK  Name = Betaine
REMARK  5 active torsions:
REMARK  status: ('A' for Active; 'I' for Inactive)
REMARK    1  A    between atoms: C_1  and  N_2
REMARK    2  A    between atoms: N_2  and  C_3
REMARK    3  A    between atoms: N_2  and  C_4
REMARK    4  A    between atoms: N_2  and  C_5
REMARK    5  A    between atoms: C_5  and  C_6
REMARK                            x       y       z     vdW  Elec       q    Type
REMARK                         _______ _______ _______ _____ _____    ______ ____
ROOT
ATOM      1  C   UNL     1      -9.854   6.994 130.244  0.00  0.00    +0.000 C 
ATOM      2  N   UNL     1     -10.729   6.128 131.110  0.00  0.00    +0.000 N 
ATOM      3  C   UNL     1     -10.910   4.766 130.462  0.00  0.00    +0.000 C 
ATOM      4  C   UNL     1     -10.114   5.995 132.494  0.00  0.00    +0.000 C 
ENDROOT
BRANCH   2   5
ATOM      5  C   UNL     1     -12.167   6.774 131.283  0.00  0.00    +0.000 C 
BRANCH   5   6
ATOM      6  C   UNL     1     -12.808   7.580 130.099  0.00  0.00    +0.000 C 
ATOM      7  O   UNL     1     -13.291   6.880 129.161  0.00  0.00    +0.000 OA
ATOM      8  O   UNL     1     -12.760   8.827 130.232  0.00  0.00    +0.000 OA
ENDBRANCH   5   6
ENDBRANCH   2   5
TORSDOF 2
ENDMDL
