MODEL 1
REMARK VINA RESULT:      -6.0      0.000      0.000
REMARK  Name = Bethanidine
REMARK  4 active torsions:
REMARK  status: ('A' for Active; 'I' for Inactive)
REMARK    1  A    between atoms: C_1  and  N_2
REMARK    2  A    between atoms: N_4  and  C_5
REMARK    3  A    between atoms: C_5  and  C_6
REMARK    4  A    between atoms: N_12  and  C_13
REMARK                            x       y       z     vdW  Elec       q    Type
REMARK                         _______ _______ _______ _____ _____    ______ ____
ROOT
ATOM      1  C   UNL     1     -11.595   8.286 127.735  0.00  0.00    +0.000 C 
ATOM      2  N   UNL     1     -12.316   9.273 128.487  0.00  0.00    +0.000 N 
ATOM      3  C   UNL     1     -12.743   9.260 129.776  0.00  0.00    +0.000 C 
ATOM      4  N   UNL     1     -12.470   8.198 130.573  0.00  0.00    +0.000 N 
ATOM      5  N   UNL     1     -13.420  10.219 130.339  0.00  0.00    +0.000 NA
ATOM      6  C   UNL     1     -13.741  11.401 129.554  0.00  0.00    +0.000 C 
ATOM      7  H   UNL     1     -12.562  10.091 127.951  0.00  0.00    +0.000 HD
ATOM      8  H   UNL     1     -12.901   8.285 131.482  0.00  0.00    +0.000 HD
ENDROOT
BRANCH   4   9
ATOM      9  C   UNL     1     -11.752   6.990 130.269  0.00  0.00    +0.000 C 
BRANCH   9  10
ATOM     10  C   UNL     1     -10.472   6.723 131.006  0.00  0.00    +0.000 A 
ATOM     11  C   UNL     1      -9.271   7.126 130.385  0.00  0.00    +0.000 A 
ATOM     12  C   UNL     1      -8.040   6.807 130.950  0.00  0.00    +0.000 A 
ATOM     13  C   UNL     1      -8.003   6.145 132.173  0.00  0.00    +0.000 A 
ATOM     14  C   UNL     1      -9.186   5.797 132.822  0.00  0.00    +0.000 A 
ATOM     15  C   UNL     1     -10.416   6.090 132.245  0.00  0.00    +0.000 A 
ENDBRANCH   9  10
ENDBRANCH   4   9
TORSDOF 2
ENDMDL
MODEL 2
REMARK VINA RESULT:      -6.0      2.740      5.688
REMARK  Name = Bethanidine
REMARK  4 active torsions:
REMARK  status: ('A' for Active; 'I' for Inactive)
REMARK    1  A    between atoms: C_1  and  N_2
REMARK    2  A    between atoms: N_4  and  C_5
REMARK    3  A    between atoms: C_5  and  C_6
REMARK    4  A    between atoms: N_12  and  C_13
REMARK                            x       y       z     vdW  Elec       q    Type
REMARK                         _______ _______ _______ _____ _____    ______ ____
ROOT
ATOM      1  C   UNL     1      -9.081   6.723 131.008  0.00  0.00    +0.000 C 
ATOM      2  N   UNL     1      -9.193   5.361 130.576  0.00  0.00    +0.000 N 
ATOM      3  C   UNL     1     -10.288   4.569 130.430  0.00  0.00    +0.000 C 
ATOM      4  N   UNL     1     -11.524   5.064 130.685  0.00  0.00    +0.000 N 
ATOM      5  N   UNL     1     -10.254   3.324 130.051  0.00  0.00    +0.000 NA
ATOM      6  C   UNL     1      -8.964   2.722 129.745  0.00  0.00    +0.000 C 
ATOM      7  H   UNL     1      -8.306   4.923 130.377  0.00  0.00    +0.000 HD
ATOM      8  H   UNL     1     -12.239   4.356 130.606  0.00  0.00    +0.000 HD
ENDROOT
BRANCH   4   9
ATOM      9  C   UNL     1     -11.909   6.381 131.115  0.00  0.00    +0.000 C 
BRANCH   9  10
ATOM     10  C   UNL     1     -12.536   7.299 130.107  0.00  0.00    +0.000 A 
ATOM     11  C   UNL     1     -13.114   6.709 128.963  0.00  0.00    +0.000 A 
ATOM     12  C   UNL     1     -13.608   7.500 127.931  0.00  0.00    +0.000 A 
ATOM     13  C   UNL     1     -13.593   8.885 128.067  0.00  0.00    +0.000 A 
ATOM     14  C   UNL     1     -13.079   9.474 129.220  0.00  0.00    +0.000 A 
ATOM     15  C   UNL     1     -12.558   8.686 130.240  0.00  0.00    +0.000 A 
ENDBRANCH   9  10
ENDBRANCH   4   9
TORSDOF 2
ENDMDL
MODEL 3
REMARK VINA RESULT:      -5.8      2.481      5.594
REMARK  Name = Bethanidine
REMARK  4 active torsions:
REMARK  status: ('A' for Active; 'I' for Inactive)
REMARK    1  A    between atoms: C_1  and  N_2
REMARK    2  A    between atoms: N_4  and  C_5
REMARK    3  A    between atoms: C_5  and  C_6
REMARK    4  A    between atoms: N_12  and  C_13
REMARK                            x       y       z     vdW  Elec       q    Type
REMARK                         _______ _______ _______ _____ _____    ______ ____
ROOT
ATOM      1  C   UNL     1     -10.512   3.590 130.723  0.00  0.00    +0.000 C 
ATOM      2  N   UNL     1      -9.839   4.365 131.725  0.00  0.00    +0.000 N 
ATOM      3  C   UNL     1     -10.085   5.620 132.182  0.00  0.00    +0.000 C 
ATOM      4  N   UNL     1     -11.132   6.329 131.694  0.00  0.00    +0.000 N 
ATOM      5  N   UNL     1      -9.375   6.229 133.088  0.00  0.00    +0.000 NA
ATOM      6  C   UNL     1      -8.240   5.529 133.672  0.00  0.00    +0.000 C 
ATOM      7  H   UNL     1      -9.039   3.900 132.127  0.00  0.00    +0.000 HD
ATOM      8  H   UNL     1     -11.161   7.267 132.065  0.00  0.00    +0.000 HD
ENDROOT
BRANCH   4   9
ATOM      9  C   UNL     1     -12.102   5.957 130.700  0.00  0.00    +0.000 C 
BRANCH   9  10
ATOM     10  C   UNL     1     -12.585   7.015 129.751  0.00  0.00    +0.000 A 
ATOM     11  C   UNL     1     -12.401   8.361 130.133  0.00  0.00    +0.000 A 
ATOM     12  C   UNL     1     -12.927   9.393 129.363  0.00  0.00    +0.000 A 
ATOM     13  C   UNL     1     -13.578   9.091 128.171  0.00  0.00    +0.000 A 
ATOM     14  C   UNL     1     -13.711   7.767 127.757  0.00  0.00    +0.000 A 
ATOM     15  C   UNL     1     -13.211   6.732 128.539  0.00  0.00    +0.000 A 
ENDBRANCH   9  10
ENDBRANCH   4   9
TORSDOF 2
ENDMDL
MODEL 4
REMARK VINA RESULT:      -5.3      8.584     10.511
REMARK  Name = Bethanidine
REMARK  4 active torsions:
REMARK  status: ('A' for Active; 'I' for Inactive)
REMARK    1  A    between atoms: C_1  and  N_2
REMARK    2  A    between atoms: N_4  and  C_5
REMARK    3  A    between atoms: C_5  and  C_6
REMARK    4  A    between atoms: N_12  and  C_13
REMARK                            x       y       z     vdW  Elec       q    Type
REMARK                         _______ _______ _______ _____ _____    ______ ____
ROOT
ATOM      1  C   UNL     1      -7.522   0.758 124.666  0.00  0.00    +0.000 C 
ATOM      2  N   UNL     1      -7.654   1.872 125.559  0.00  0.00    +0.000 N 
ATOM      3  C   UNL     1      -8.015   3.159 125.316  0.00  0.00    +0.000 C 
ATOM      4  N   UNL     1      -8.349   3.547 124.061  0.00  0.00    +0.000 N 
ATOM      5  N   UNL     1      -8.071   4.094 126.221  0.00  0.00    +0.000 NA
ATOM      6  C   UNL     1      -7.740   3.754 127.597  0.00  0.00    +0.000 C 
ATOM      7  H   UNL     1      -7.411   1.658 126.514  0.00  0.00    +0.000 HD
ATOM      8  H   UNL     1      -8.528   4.539 124.005  0.00  0.00    +0.000 HD
ENDROOT
BRANCH   4   9
ATOM      9  C   UNL     1      -8.392   2.775 122.849  0.00  0.00    +0.000 C 
BRANCH   9  10
ATOM     10  C   UNL     1      -7.914   3.421 121.581  0.00  0.00    +0.000 A 
ATOM     11  C   UNL     1      -8.885   3.733 120.606  0.00  0.00    +0.000 A 
ATOM     12  C   UNL     1      -8.505   4.223 119.360  0.00  0.00    +0.000 A 
ATOM     13  C   UNL     1      -7.160   4.472 119.107  0.00  0.00    +0.000 A 
ATOM     14  C   UNL     1      -6.201   4.223 120.086  0.00  0.00    +0.000 A 
ATOM     15  C   UNL     1      -6.575   3.706 121.321  0.00  0.00    +0.000 A 
ENDBRANCH   9  10
ENDBRANCH   4   9
TORSDOF 2
ENDMDL
MODEL 5
REMARK VINA RESULT:      -5.3      3.044      5.853
REMARK  Name = Bethanidine
REMARK  4 active torsions:
REMARK  status: ('A' for Active; 'I' for Inactive)
REMARK    1  A    between atoms: C_1  and  N_2
REMARK    2  A    between atoms: N_4  and  C_5
REMARK    3  A    between atoms: C_5  and  C_6
REMARK    4  A    between atoms: N_12  and  C_13
REMARK                            x       y       z     vdW  Elec       q    Type
REMARK                         _______ _______ _______ _____ _____    ______ ____
ROOT
ATOM      1  C   UNL     1     -10.229   6.051 132.612  0.00  0.00    +0.000 C 
ATOM      2  N   UNL     1     -10.076   4.667 132.268  0.00  0.00    +0.000 N 
ATOM      3  C   UNL     1      -9.874   4.076 131.062  0.00  0.00    +0.000 C 
ATOM      4  N   UNL     1      -9.757   4.833 129.944  0.00  0.00    +0.000 N 
ATOM      5  N   UNL     1      -9.778   2.791 130.876  0.00  0.00    +0.000 NA
ATOM      6  C   UNL     1      -9.880   1.909 132.030  0.00  0.00    +0.000 C 
ATOM      7  H   UNL     1     -10.163   4.042 133.054  0.00  0.00    +0.000 HD
ATOM      8  H   UNL     1      -9.680   4.269 129.110  0.00  0.00    +0.000 HD
ENDROOT
BRANCH   4   9
ATOM      9  C   UNL     1      -9.813   6.263 129.800  0.00  0.00    +0.000 C 
BRANCH   9  10
ATOM     10  C   UNL     1     -11.070   6.869 129.246  0.00  0.00    +0.000 A 
ATOM     11  C   UNL     1     -10.989   8.188 128.750  0.00  0.00    +0.000 A 
ATOM     12  C   UNL     1     -12.134   8.858 128.331  0.00  0.00    +0.000 A 
ATOM     13  C   UNL     1     -13.355   8.190 128.338  0.00  0.00    +0.000 A 
ATOM     14  C   UNL     1     -13.433   6.868 128.770  0.00  0.00    +0.000 A 
ATOM     15  C   UNL     1     -12.294   6.206 129.216  0.00  0.00    +0.000 A 
ENDBRANCH   9  10
ENDBRANCH   4   9
TORSDOF 2
ENDMDL
MODEL 6
REMARK VINA RESULT:      -5.3      3.264      5.821
REMARK  Name = Bethanidine
REMARK  4 active torsions:
REMARK  status: ('A' for Active; 'I' for Inactive)
REMARK    1  A    between atoms: C_1  and  N_2
REMARK    2  A    between atoms: N_4  and  C_5
REMARK    3  A    between atoms: C_5  and  C_6
REMARK    4  A    between atoms: N_12  and  C_13
REMARK                            x       y       z     vdW  Elec       q    Type
REMARK                         _______ _______ _______ _____ _____    ______ ____
ROOT
ATOM      1  C   UNL     1      -7.401   5.448 133.394  0.00  0.00    +0.000 C 
ATOM      2  N   UNL     1      -6.498   6.111 132.498  0.00  0.00    +0.000 N 
ATOM      3  C   UNL     1      -6.734   6.764 131.331  0.00  0.00    +0.000 C 
ATOM      4  N   UNL     1      -8.001   6.887 130.865  0.00  0.00    +0.000 N 
ATOM      5  N   UNL     1      -5.813   7.306 130.588  0.00  0.00    +0.000 NA
ATOM      6  C   UNL     1      -4.427   7.229 131.027  0.00  0.00    +0.000 C 
ATOM      7  H   UNL     1      -5.531   6.050 132.779  0.00  0.00    +0.000 HD
ATOM      8  H   UNL     1      -8.030   7.330 129.958  0.00  0.00    +0.000 HD
ENDROOT
BRANCH   4   9
ATOM      9  C   UNL     1      -9.233   6.411 131.433  0.00  0.00    +0.000 C 
BRANCH   9  10
ATOM     10  C   UNL     1     -10.522   6.914 130.852  0.00  0.00    +0.000 A 
ATOM     11  C   UNL     1     -10.452   7.611 129.627  0.00  0.00    +0.000 A 
ATOM     12  C   UNL     1     -11.586   8.209 129.087  0.00  0.00    +0.000 A 
ATOM     13  C   UNL     1     -12.810   8.055 129.730  0.00  0.00    +0.000 A 
ATOM     14  C   UNL     1     -12.898   7.318 130.910  0.00  0.00    +0.000 A 
ATOM     15  C   UNL     1     -11.761   6.743 131.466  0.00  0.00    +0.000 A 
ENDBRANCH   9  10
ENDBRANCH   4   9
TORSDOF 2
ENDMDL
MODEL 7
REMARK VINA RESULT:      -5.2      2.875      5.724
REMARK  Name = Bethanidine
REMARK  4 active torsions:
REMARK  status: ('A' for Active; 'I' for Inactive)
REMARK    1  A    between atoms: C_1  and  N_2
REMARK    2  A    between atoms: N_4  and  C_5
REMARK    3  A    between atoms: C_5  and  C_6
REMARK    4  A    between atoms: N_12  and  C_13
REMARK                            x       y       z     vdW  Elec       q    Type
REMARK                         _______ _______ _______ _____ _____    ______ ____
ROOT
ATOM      1  C   UNL     1      -8.976   4.164 130.539  0.00  0.00    +0.000 C 
ATOM      2  N   UNL     1      -7.886   5.087 130.669  0.00  0.00    +0.000 N 
ATOM      3  C   UNL     1      -7.883   6.443 130.749  0.00  0.00    +0.000 C 
ATOM      4  N   UNL     1      -9.053   7.127 130.739  0.00  0.00    +0.000 N 
ATOM      5  N   UNL     1      -6.810   7.175 130.838  0.00  0.00    +0.000 NA
ATOM      6  C   UNL     1      -5.514   6.514 130.869  0.00  0.00    +0.000 C 
ATOM      7  H   UNL     1      -6.979   4.645 130.674  0.00  0.00    +0.000 HD
ATOM      8  H   UNL     1      -8.908   8.126 130.733  0.00  0.00    +0.000 HD
ENDROOT
BRANCH   4   9
ATOM      9  C   UNL     1     -10.399   6.631 130.652  0.00  0.00    +0.000 C 
BRANCH   9  10
ATOM     10  C   UNL     1     -11.187   6.936 129.411  0.00  0.00    +0.000 A 
ATOM     11  C   UNL     1     -12.564   6.627 129.426  0.00  0.00    +0.000 A 
ATOM     12  C   UNL     1     -13.334   6.771 128.276  0.00  0.00    +0.000 A 
ATOM     13  C   UNL     1     -12.749   7.290 127.125  0.00  0.00    +0.000 A 
ATOM     14  C   UNL     1     -11.404   7.654 127.121  0.00  0.00    +0.000 A 
ATOM     15  C   UNL     1     -10.627   7.484 128.260  0.00  0.00    +0.000 A 
ENDBRANCH   9  10
ENDBRANCH   4   9
TORSDOF 2
ENDMDL
MODEL 8
REMARK VINA RESULT:      -5.2     10.416     11.252
REMARK  Name = Bethanidine
REMARK  4 active torsions:
REMARK  status: ('A' for Active; 'I' for Inactive)
REMARK    1  A    between atoms: C_1  and  N_2
REMARK    2  A    between atoms: N_4  and  C_5
REMARK    3  A    between atoms: C_5  and  C_6
REMARK    4  A    between atoms: N_12  and  C_13
REMARK                            x       y       z     vdW  Elec       q    Type
REMARK                         _______ _______ _______ _____ _____    ______ ____
ROOT
ATOM      1  C   UNL     1      -6.875   0.513 124.865  0.00  0.00    +0.000 C 
ATOM      2  N   UNL     1      -8.048   0.425 124.045  0.00  0.00    +0.000 N 
ATOM      3  C   UNL     1      -8.832  -0.642 123.739  0.00  0.00    +0.000 C 
ATOM      4  N   UNL     1      -8.558  -1.860 124.266  0.00  0.00    +0.000 N 
ATOM      5  N   UNL     1      -9.867  -0.595 122.950  0.00  0.00    +0.000 NA
ATOM      6  C   UNL     1     -10.235   0.681 122.355  0.00  0.00    +0.000 C 
ATOM      7  H   UNL     1      -8.306   1.298 123.611  0.00  0.00    +0.000 HD
ATOM      8  H   UNL     1      -9.172  -2.576 123.904  0.00  0.00    +0.000 HD
ENDROOT
BRANCH   4   9
ATOM      9  C   UNL     1      -7.503  -2.252 125.160  0.00  0.00    +0.000 C 
BRANCH   9  10
ATOM     10  C   UNL     1      -7.872  -2.641 126.563  0.00  0.00    +0.000 A 
ATOM     11  C   UNL     1      -7.206  -1.979 127.616  0.00  0.00    +0.000 A 
ATOM     12  C   UNL     1      -7.408  -2.367 128.936  0.00  0.00    +0.000 A 
ATOM     13  C   UNL     1      -8.329  -3.371 129.218  0.00  0.00    +0.000 A 
ATOM     14  C   UNL     1      -9.036  -3.988 128.188  0.00  0.00    +0.000 A 
ATOM     15  C   UNL     1      -8.814  -3.621 126.866  0.00  0.00    +0.000 A 
ENDBRANCH   9  10
ENDBRANCH   4   9
TORSDOF 2
ENDMDL
MODEL 9
REMARK VINA RESULT:      -5.1      2.296      3.490
REMARK  Name = Bethanidine
REMARK  4 active torsions:
REMARK  status: ('A' for Active; 'I' for Inactive)
REMARK    1  A    between atoms: C_1  and  N_2
REMARK    2  A    between atoms: N_4  and  C_5
REMARK    3  A    between atoms: C_5  and  C_6
REMARK    4  A    between atoms: N_12  and  C_13
REMARK                            x       y       z     vdW  Elec       q    Type
REMARK                         _______ _______ _______ _____ _____    ______ ____
ROOT
ATOM      1  C   UNL     1     -12.630   7.099 130.583  0.00  0.00    +0.000 C 
ATOM      2  N   UNL     1     -11.940   7.248 129.334  0.00  0.00    +0.000 N 
ATOM      3  C   UNL     1     -10.626   7.089 129.028  0.00  0.00    +0.000 C 
ATOM      4  N   UNL     1      -9.747   6.701 129.984  0.00  0.00    +0.000 N 
ATOM      5  N   UNL     1     -10.114   7.284 127.847  0.00  0.00    +0.000 NA
ATOM      6  C   UNL     1     -10.996   7.689 126.762  0.00  0.00    +0.000 C 
ATOM      7  H   UNL     1     -12.535   7.546 128.576  0.00  0.00    +0.000 HD
ATOM      8  H   UNL     1      -8.797   6.688 129.643  0.00  0.00    +0.000 HD
ENDROOT
BRANCH   4   9
ATOM      9  C   UNL     1      -9.979   6.406 131.372  0.00  0.00    +0.000 C 
BRANCH   9  10
ATOM     10  C   UNL     1      -9.734   5.004 131.848  0.00  0.00    +0.000 A 
ATOM     11  C   UNL     1      -9.988   3.956 130.938  0.00  0.00    +0.000 A 
ATOM     12  C   UNL     1      -9.898   2.628 131.343  0.00  0.00    +0.000 A 
ATOM     13  C   UNL     1      -9.485   2.338 132.640  0.00  0.00    +0.000 A 
ATOM     14  C   UNL     1      -9.174   3.367 133.527  0.00  0.00    +0.000 A 
ATOM     15  C   UNL     1      -9.291   4.695 133.132  0.00  0.00    +0.000 A 
ENDBRANCH   9  10
ENDBRANCH   4   9
TORSDOF 2
ENDMDL
