MODEL 1
REMARK VINA RESULT:      -4.7      0.000      0.000
REMARK  Name = Bethanechol
REMARK  8 active torsions:
REMARK  status: ('A' for Active; 'I' for Inactive)
REMARK    1  A    between atoms: C_1  and  C_2
REMARK    2  A    between atoms: C_2  and  C_3
REMARK    3  A    between atoms: C_2  and  O_8
REMARK    4  A    between atoms: C_3  and  N_4
REMARK    5  A    between atoms: N_4  and  C_5
REMARK    6  A    between atoms: N_4  and  C_6
REMARK    7  A    between atoms: N_4  and  C_7
REMARK    8  A    between atoms: O_8  and  C_9
REMARK                            x       y       z     vdW  Elec       q    Type
REMARK                         _______ _______ _______ _____ _____    ______ ____
ROOT
ATOM      1  C   UNL     1     -12.737   9.126 129.107  0.00  0.00    +0.000 C 
ATOM      2  C   UNL     1     -11.502   8.238 128.935  0.00  0.00    +0.000 C 
ENDROOT
BRANCH   2   3
ATOM      3  C   UNL     1     -11.755   6.762 129.344  0.00  0.00    +0.000 C 
BRANCH   3   4
ATOM      4  N   UNL     1     -10.857   6.241 130.479  0.00  0.00    +0.000 N 
ATOM      5  C   UNL     1     -10.649   4.737 130.355  0.00  0.00    +0.000 C 
ATOM      6  C   UNL     1      -9.521   6.959 130.534  0.00  0.00    +0.000 C 
ATOM      7  C   UNL     1     -11.547   6.541 131.810  0.00  0.00    +0.000 C 
ENDBRANCH   3   4
ENDBRANCH   2   3
BRANCH   2   8
ATOM      8  O   UNL     1     -11.153   8.309 127.537  0.00  0.00    +0.000 OA
BRANCH   8   9
ATOM      9  C   UNL     1     -11.205   7.265 126.670  0.00  0.00    +0.000 C 
ATOM     10  N   UNL     1     -12.407   6.987 126.088  0.00  0.00    +0.000 N 
ATOM     11  O   UNL     1     -10.216   6.620 126.385  0.00  0.00    +0.000 OA
ATOM     12  H   UNL     1     -13.309   7.341 126.339  0.00  0.00    +0.000 HD
ATOM     13  H   UNL     1     -12.389   6.220 125.423  0.00  0.00    +0.000 HD
ENDBRANCH   8   9
ENDBRANCH   2   8
TORSDOF 4
ENDMDL
MODEL 2
REMARK VINA RESULT:      -4.4      2.430      4.205
REMARK  Name = Bethanechol
REMARK  8 active torsions:
REMARK  status: ('A' for Active; 'I' for Inactive)
REMARK    1  A    between atoms: C_1  and  C_2
REMARK    2  A    between atoms: C_2  and  C_3
REMARK    3  A    between atoms: C_2  and  O_8
REMARK    4  A    between atoms: C_3  and  N_4
REMARK    5  A    between atoms: N_4  and  C_5
REMARK    6  A    between atoms: N_4  and  C_6
REMARK    7  A    between atoms: N_4  and  C_7
REMARK    8  A    between atoms: O_8  and  C_9
REMARK                            x       y       z     vdW  Elec       q    Type
REMARK                         _______ _______ _______ _____ _____    ______ ____
ROOT
ATOM      1  C   UNL     1      -8.616   6.992 130.887  0.00  0.00    +0.000 C 
ATOM      2  C   UNL     1     -10.068   6.613 130.586  0.00  0.00    +0.000 C 
ENDROOT
BRANCH   2   3
ATOM      3  C   UNL     1     -10.756   7.591 129.596  0.00  0.00    +0.000 C 
BRANCH   3   4
ATOM      4  N   UNL     1     -12.283   7.703 129.751  0.00  0.00    +0.000 N 
ATOM      5  C   UNL     1     -12.750   9.127 129.478  0.00  0.00    +0.000 C 
ATOM      6  C   UNL     1     -13.026   6.720 128.865  0.00  0.00    +0.000 C 
ATOM      7  C   UNL     1     -12.645   7.326 131.188  0.00  0.00    +0.000 C 
ENDBRANCH   3   4
ENDBRANCH   2   3
BRANCH   2   8
ATOM      8  O   UNL     1     -10.024   5.288 130.019  0.00  0.00    +0.000 OA
BRANCH   8   9
ATOM      9  C   UNL     1     -10.589   4.186 130.576  0.00  0.00    +0.000 C 
ATOM     10  N   UNL     1     -10.065   3.734 131.751  0.00  0.00    +0.000 N 
ATOM     11  O   UNL     1     -11.551   3.639 130.077  0.00  0.00    +0.000 OA
ATOM     12  H   UNL     1      -9.203   4.000 132.183  0.00  0.00    +0.000 HD
ATOM     13  H   UNL     1     -10.541   2.929 132.146  0.00  0.00    +0.000 HD
ENDBRANCH   8   9
ENDBRANCH   2   8
TORSDOF 4
ENDMDL
MODEL 3
REMARK VINA RESULT:      -4.4      1.938      2.561
REMARK  Name = Bethanechol
REMARK  8 active torsions:
REMARK  status: ('A' for Active; 'I' for Inactive)
REMARK    1  A    between atoms: C_1  and  C_2
REMARK    2  A    between atoms: C_2  and  C_3
REMARK    3  A    between atoms: C_2  and  O_8
REMARK    4  A    between atoms: C_3  and  N_4
REMARK    5  A    between atoms: N_4  and  C_5
REMARK    6  A    between atoms: N_4  and  C_6
REMARK    7  A    between atoms: N_4  and  C_7
REMARK    8  A    between atoms: O_8  and  C_9
REMARK                            x       y       z     vdW  Elec       q    Type
REMARK                         _______ _______ _______ _____ _____    ______ ____
ROOT
ATOM      1  C   UNL     1     -10.538   7.309 127.398  0.00  0.00    +0.000 C 
ATOM      2  C   UNL     1     -11.240   7.460 128.750  0.00  0.00    +0.000 C 
ENDROOT
BRANCH   2   3
ATOM      3  C   UNL     1     -10.294   7.204 129.954  0.00  0.00    +0.000 C 
BRANCH   3   4
ATOM      4  N   UNL     1     -10.835   6.219 131.005  0.00  0.00    +0.000 N 
ATOM      5  C   UNL     1     -11.114   4.860 130.377  0.00  0.00    +0.000 C 
ATOM      6  C   UNL     1      -9.903   6.075 132.194  0.00  0.00    +0.000 C 
ATOM      7  C   UNL     1     -12.140   6.788 131.564  0.00  0.00    +0.000 C 
ENDBRANCH   3   4
ENDBRANCH   2   3
BRANCH   2   8
ATOM      8  O   UNL     1     -11.735   8.814 128.792  0.00  0.00    +0.000 OA
BRANCH   8   9
ATOM      9  C   UNL     1     -13.028   9.174 128.591  0.00  0.00    +0.000 C 
ATOM     10  N   UNL     1     -13.398  10.434 128.958  0.00  0.00    +0.000 N 
ATOM     11  O   UNL     1     -13.826   8.424 128.066  0.00  0.00    +0.000 OA
ATOM     12  H   UNL     1     -12.887  11.086 129.519  0.00  0.00    +0.000 HD
ATOM     13  H   UNL     1     -14.365  10.668 128.758  0.00  0.00    +0.000 HD
ENDBRANCH   8   9
ENDBRANCH   2   8
TORSDOF 4
ENDMDL
MODEL 4
REMARK VINA RESULT:      -4.4      2.883      4.825
REMARK  Name = Bethanechol
REMARK  8 active torsions:
REMARK  status: ('A' for Active; 'I' for Inactive)
REMARK    1  A    between atoms: C_1  and  C_2
REMARK    2  A    between atoms: C_2  and  C_3
REMARK    3  A    between atoms: C_2  and  O_8
REMARK    4  A    between atoms: C_3  and  N_4
REMARK    5  A    between atoms: N_4  and  C_5
REMARK    6  A    between atoms: N_4  and  C_6
REMARK    7  A    between atoms: N_4  and  C_7
REMARK    8  A    between atoms: O_8  and  C_9
REMARK                            x       y       z     vdW  Elec       q    Type
REMARK                         _______ _______ _______ _____ _____    ______ ____
ROOT
ATOM      1  C   UNL     1     -11.493   5.182 130.274  0.00  0.00    +0.000 C 
ATOM      2  C   UNL     1     -11.279   6.629 130.726  0.00  0.00    +0.000 C 
ENDROOT
BRANCH   2   3
ATOM      3  C   UNL     1     -12.540   7.514 130.539  0.00  0.00    +0.000 C 
BRANCH   3   4
ATOM      4  N   UNL     1     -12.593   8.296 129.215  0.00  0.00    +0.000 N 
ATOM      5  C   UNL     1     -13.485   7.586 128.205  0.00  0.00    +0.000 C 
ATOM      6  C   UNL     1     -13.047   9.731 129.410  0.00  0.00    +0.000 C 
ATOM      7  C   UNL     1     -11.173   8.380 128.654  0.00  0.00    +0.000 C 
ENDBRANCH   3   4
ENDBRANCH   2   3
BRANCH   2   8
ATOM      8  O   UNL     1     -10.928   6.561 132.123  0.00  0.00    +0.000 OA
BRANCH   8   9
ATOM      9  C   UNL     1      -9.790   6.003 132.611  0.00  0.00    +0.000 C 
ATOM     10  N   UNL     1      -9.916   4.893 133.392  0.00  0.00    +0.000 N 
ATOM     11  O   UNL     1      -8.692   6.443 132.334  0.00  0.00    +0.000 OA
ATOM     12  H   UNL     1     -10.749   4.522 133.805  0.00  0.00    +0.000 HD
ATOM     13  H   UNL     1      -9.037   4.493 133.706  0.00  0.00    +0.000 HD
ENDBRANCH   8   9
ENDBRANCH   2   8
TORSDOF 4
ENDMDL
MODEL 5
REMARK VINA RESULT:      -4.4      1.627      2.141
REMARK  Name = Bethanechol
REMARK  8 active torsions:
REMARK  status: ('A' for Active; 'I' for Inactive)
REMARK    1  A    between atoms: C_1  and  C_2
REMARK    2  A    between atoms: C_2  and  C_3
REMARK    3  A    between atoms: C_2  and  O_8
REMARK    4  A    between atoms: C_3  and  N_4
REMARK    5  A    between atoms: N_4  and  C_5
REMARK    6  A    between atoms: N_4  and  C_6
REMARK    7  A    between atoms: N_4  and  C_7
REMARK    8  A    between atoms: O_8  and  C_9
REMARK                            x       y       z     vdW  Elec       q    Type
REMARK                         _______ _______ _______ _____ _____    ______ ____
ROOT
ATOM      1  C   UNL     1     -12.830   7.219 130.461  0.00  0.00    +0.000 C 
ATOM      2  C   UNL     1     -11.485   6.812 129.854  0.00  0.00    +0.000 C 
ENDROOT
BRANCH   2   3
ATOM      3  C   UNL     1     -10.903   5.519 130.484  0.00  0.00    +0.000 C 
BRANCH   3   4
ATOM      4  N   UNL     1      -9.540   5.691 131.176  0.00  0.00    +0.000 N 
ATOM      5  C   UNL     1      -9.712   5.806 132.685  0.00  0.00    +0.000 C 
ATOM      6  C   UNL     1      -8.573   4.572 130.834  0.00  0.00    +0.000 C 
ATOM      7  C   UNL     1      -8.896   6.974 130.649  0.00  0.00    +0.000 C 
ENDBRANCH   3   4
ENDBRANCH   2   3
BRANCH   2   8
ATOM      8  O   UNL     1     -11.729   6.609 128.447  0.00  0.00    +0.000 OA
BRANCH   8   9
ATOM      9  C   UNL     1     -11.155   7.327 127.448  0.00  0.00    +0.000 C 
ATOM     10  N   UNL     1     -10.759   8.601 127.733  0.00  0.00    +0.000 N 
ATOM     11  O   UNL     1     -10.959   6.850 126.349  0.00  0.00    +0.000 OA
ATOM     12  H   UNL     1     -10.988   9.151 128.537  0.00  0.00    +0.000 HD
ATOM     13  H   UNL     1     -10.307   9.086 126.965  0.00  0.00    +0.000 HD
ENDBRANCH   8   9
ENDBRANCH   2   8
TORSDOF 4
ENDMDL
MODEL 6
REMARK VINA RESULT:      -4.0      9.506     11.000
REMARK  Name = Bethanechol
REMARK  8 active torsions:
REMARK  status: ('A' for Active; 'I' for Inactive)
REMARK    1  A    between atoms: C_1  and  C_2
REMARK    2  A    between atoms: C_2  and  C_3
REMARK    3  A    between atoms: C_2  and  O_8
REMARK    4  A    between atoms: C_3  and  N_4
REMARK    5  A    between atoms: N_4  and  C_5
REMARK    6  A    between atoms: N_4  and  C_6
REMARK    7  A    between atoms: N_4  and  C_7
REMARK    8  A    between atoms: O_8  and  C_9
REMARK                            x       y       z     vdW  Elec       q    Type
REMARK                         _______ _______ _______ _____ _____    ______ ____
ROOT
ATOM      1  C   UNL     1      -5.625  -2.790 123.605  0.00  0.00    +0.000 C 
ATOM      2  C   UNL     1      -6.941  -2.189 124.105  0.00  0.00    +0.000 C 
ENDROOT
BRANCH   2   3
ATOM      3  C   UNL     1      -7.504  -1.094 123.161  0.00  0.00    +0.000 C 
BRANCH   3   4
ATOM      4  N   UNL     1      -7.885   0.226 123.854  0.00  0.00    +0.000 N 
ATOM      5  C   UNL     1      -7.095   1.390 123.269  0.00  0.00    +0.000 C 
ATOM      6  C   UNL     1      -9.375   0.505 123.784  0.00  0.00    +0.000 C 
ATOM      7  C   UNL     1      -7.554   0.097 125.341  0.00  0.00    +0.000 C 
ENDBRANCH   3   4
ENDBRANCH   2   3
BRANCH   2   8
ATOM      8  O   UNL     1      -7.871  -3.288 124.194  0.00  0.00    +0.000 OA
BRANCH   8   9
ATOM      9  C   UNL     1      -9.214  -3.158 124.353  0.00  0.00    +0.000 C 
ATOM     10  N   UNL     1     -10.013  -3.569 123.327  0.00  0.00    +0.000 N 
ATOM     11  O   UNL     1      -9.698  -2.730 125.381  0.00  0.00    +0.000 OA
ATOM     12  H   UNL     1      -9.744  -3.799 122.391  0.00  0.00    +0.000 HD
ATOM     13  H   UNL     1     -11.009  -3.482 123.505  0.00  0.00    +0.000 HD
ENDBRANCH   8   9
ENDBRANCH   2   8
TORSDOF 4
ENDMDL
MODEL 7
REMARK VINA RESULT:      -4.0      3.837      5.798
REMARK  Name = Bethanechol
REMARK  8 active torsions:
REMARK  status: ('A' for Active; 'I' for Inactive)
REMARK    1  A    between atoms: C_1  and  C_2
REMARK    2  A    between atoms: C_2  and  C_3
REMARK    3  A    between atoms: C_2  and  O_8
REMARK    4  A    between atoms: C_3  and  N_4
REMARK    5  A    between atoms: N_4  and  C_5
REMARK    6  A    between atoms: N_4  and  C_6
REMARK    7  A    between atoms: N_4  and  C_7
REMARK    8  A    between atoms: O_8  and  C_9
REMARK                            x       y       z     vdW  Elec       q    Type
REMARK                         _______ _______ _______ _____ _____    ______ ____
ROOT
ATOM      1  C   UNL     1      -9.070   2.831 129.664  0.00  0.00    +0.000 C 
ATOM      2  C   UNL     1      -9.507   3.741 130.816  0.00  0.00    +0.000 C 
ENDROOT
BRANCH   2   3
ATOM      3  C   UNL     1     -10.778   4.567 130.485  0.00  0.00    +0.000 C 
BRANCH   3   4
ATOM      4  N   UNL     1     -10.658   6.077 130.757  0.00  0.00    +0.000 N 
ATOM      5  C   UNL     1     -11.775   6.549 131.680  0.00  0.00    +0.000 C 
ATOM      6  C   UNL     1      -9.303   6.455 131.325  0.00  0.00    +0.000 C 
ATOM      7  C   UNL     1     -10.771   6.812 129.421  0.00  0.00    +0.000 C 
ENDBRANCH   3   4
ENDBRANCH   2   3
BRANCH   2   8
ATOM      8  O   UNL     1      -9.763   2.869 131.936  0.00  0.00    +0.000 OA
BRANCH   8   9
ATOM      9  C   UNL     1      -9.209   3.006 133.168  0.00  0.00    +0.000 C 
ATOM     10  N   UNL     1      -9.724   3.965 133.989  0.00  0.00    +0.000 N 
ATOM     11  O   UNL     1      -8.315   2.279 133.551  0.00  0.00    +0.000 OA
ATOM     12  H   UNL     1     -10.349   4.709 133.750  0.00  0.00    +0.000 HD
ATOM     13  H   UNL     1      -9.300   4.007 134.910  0.00  0.00    +0.000 HD
ENDBRANCH   8   9
ENDBRANCH   2   8
TORSDOF 4
ENDMDL
MODEL 8
REMARK VINA RESULT:      -3.9      8.157      9.497
REMARK  Name = Bethanechol
REMARK  8 active torsions:
REMARK  status: ('A' for Active; 'I' for Inactive)
REMARK    1  A    between atoms: C_1  and  C_2
REMARK    2  A    between atoms: C_2  and  C_3
REMARK    3  A    between atoms: C_2  and  O_8
REMARK    4  A    between atoms: C_3  and  N_4
REMARK    5  A    between atoms: N_4  and  C_5
REMARK    6  A    between atoms: N_4  and  C_6
REMARK    7  A    between atoms: N_4  and  C_7
REMARK    8  A    between atoms: O_8  and  C_9
REMARK                            x       y       z     vdW  Elec       q    Type
REMARK                         _______ _______ _______ _____ _____    ______ ____
ROOT
ATOM      1  C   UNL     1     -10.198   0.578 122.586  0.00  0.00    +0.000 C 
ATOM      2  C   UNL     1      -8.934   0.393 123.430  0.00  0.00    +0.000 C 
ENDROOT
BRANCH   2   3
ATOM      3  C   UNL     1      -8.225  -0.963 123.168  0.00  0.00    +0.000 C 
BRANCH   3   4
ATOM      4  N   UNL     1      -8.447  -2.030 124.253  0.00  0.00    +0.000 N 
ATOM      5  C   UNL     1      -9.000  -1.400 125.525  0.00  0.00    +0.000 C 
ATOM      6  C   UNL     1      -9.351  -3.154 123.781  0.00  0.00    +0.000 C 
ATOM      7  C   UNL     1      -7.099  -2.682 124.564  0.00  0.00    +0.000 C 
ENDBRANCH   3   4
ENDBRANCH   2   3
BRANCH   2   8
ATOM      8  O   UNL     1      -8.058   1.483 123.077  0.00  0.00    +0.000 OA
BRANCH   8   9
ATOM      9  C   UNL     1      -8.381   2.798 123.167  0.00  0.00    +0.000 C 
ATOM     10  N   UNL     1      -8.294   3.549 122.032  0.00  0.00    +0.000 N 
ATOM     11  O   UNL     1      -8.775   3.291 124.205  0.00  0.00    +0.000 OA
ATOM     12  H   UNL     1      -7.856   3.306 121.166  0.00  0.00    +0.000 HD
ATOM     13  H   UNL     1      -8.576   4.518 122.141  0.00  0.00    +0.000 HD
ENDBRANCH   8   9
ENDBRANCH   2   8
TORSDOF 4
ENDMDL
MODEL 9
REMARK VINA RESULT:      -3.9      8.193      9.407
REMARK  Name = Bethanechol
REMARK  8 active torsions:
REMARK  status: ('A' for Active; 'I' for Inactive)
REMARK    1  A    between atoms: C_1  and  C_2
REMARK    2  A    between atoms: C_2  and  C_3
REMARK    3  A    between atoms: C_2  and  O_8
REMARK    4  A    between atoms: C_3  and  N_4
REMARK    5  A    between atoms: N_4  and  C_5
REMARK    6  A    between atoms: N_4  and  C_6
REMARK    7  A    between atoms: N_4  and  C_7
REMARK    8  A    between atoms: O_8  and  C_9
REMARK                            x       y       z     vdW  Elec       q    Type
REMARK                         _______ _______ _______ _____ _____    ______ ____
ROOT
ATOM      1  C   UNL     1      -8.850   0.905 126.584  0.00  0.00    +0.000 C 
ATOM      2  C   UNL     1      -8.897   0.116 125.273  0.00  0.00    +0.000 C 
ENDROOT
BRANCH   2   3
ATOM      3  C   UNL     1      -8.953  -1.419 125.493  0.00  0.00    +0.000 C 
BRANCH   3   4
ATOM      4  N   UNL     1      -7.829  -2.213 124.805  0.00  0.00    +0.000 N 
ATOM      5  C   UNL     1      -8.243  -3.665 124.597  0.00  0.00    +0.000 C 
ATOM      6  C   UNL     1      -7.402  -1.588 123.490  0.00  0.00    +0.000 C 
ATOM      7  C   UNL     1      -6.594  -2.171 125.707  0.00  0.00    +0.000 C 
ENDBRANCH   3   4
ENDBRANCH   2   3
BRANCH   2   8
ATOM      8  O   UNL     1     -10.084   0.559 124.585  0.00  0.00    +0.000 OA
BRANCH   8   9
ATOM      9  C   UNL     1     -10.127   0.953 123.286  0.00  0.00    +0.000 C 
ATOM     10  N   UNL     1      -9.347   2.010 122.921  0.00  0.00    +0.000 N 
ATOM     11  O   UNL     1     -10.801   0.369 122.462  0.00  0.00    +0.000 OA
ATOM     12  H   UNL     1      -8.867   2.656 123.517  0.00  0.00    +0.000 HD
ATOM     13  H   UNL     1      -9.387   2.247 121.935  0.00  0.00    +0.000 HD
ENDBRANCH   8   9
ENDBRANCH   2   8
TORSDOF 4
ENDMDL
