MODEL 1
REMARK VINA RESULT:      -6.8      0.000      0.000
REMARK  Name = Betiatide
REMARK  11 active torsions:
REMARK  status: ('A' for Active; 'I' for Inactive)
REMARK    1  A    between atoms: O_1  and  C_2
REMARK    2  A    between atoms: C_2  and  C_4
REMARK    3  A    between atoms: C_4  and  N_5
REMARK    4  A    between atoms: C_6  and  C_8
REMARK    5  A    between atoms: C_8  and  N_9
REMARK    6  A    between atoms: C_10  and  C_12
REMARK    7  A    between atoms: C_12  and  N_13
REMARK    8  A    between atoms: C_14  and  C_16
REMARK    9  A    between atoms: C_16  and  S_17
REMARK   10  A    between atoms: S_17  and  C_18
REMARK   11  A    between atoms: C_18  and  C_20
REMARK                            x       y       z     vdW  Elec       q    Type
REMARK                         _______ _______ _______ _____ _____    ______ ____
ROOT
ATOM      1  C   UNL     1      -9.273   4.193 131.824  0.00  0.00    +0.000 C 
ENDROOT
BRANCH   1   3
ATOM      2  N   UNL     1     -11.350   5.586 131.561  0.00  0.00    +0.000 N 
ATOM      3  C   UNL     1      -9.993   5.569 131.849  0.00  0.00    +0.000 C 
ATOM      4  O   UNL     1      -9.377   6.603 132.117  0.00  0.00    +0.000 OA
ATOM      5  H   UNL     1     -11.854   4.732 131.341  0.00  0.00    +0.000 HD
BRANCH   2   6
ATOM      6  C   UNL     1     -12.143   6.832 131.553  0.00  0.00    +0.000 C 
BRANCH   6   8
ATOM      7  N   UNL     1     -12.261   6.592 129.061  0.00  0.00    +0.000 N 
ATOM      8  C   UNL     1     -12.273   7.461 130.139  0.00  0.00    +0.000 C 
ATOM      9  O   UNL     1     -12.383   8.677 129.982  0.00  0.00    +0.000 OA
ATOM     10  H   UNL     1     -12.171   5.586 129.190  0.00  0.00    +0.000 HD
BRANCH   7  11
ATOM     11  C   UNL     1     -12.378   7.066 127.673  0.00  0.00    +0.000 C 
BRANCH  11  12
ATOM     12  C   UNL     1     -11.011   7.379 127.061  0.00  0.00    +0.000 C 
ATOM     13  O   UNL     1     -10.862   8.136 126.107  0.00  0.00    +0.000 OA
BRANCH  12  14
ATOM     14  O   UNL     1      -9.958   6.760 127.644  0.00  0.00    +0.000 OA
ATOM     15  H   UNL     1      -9.312   6.329 127.053  0.00  0.00    +0.000 HD
ENDBRANCH  12  14
ENDBRANCH  11  12
ENDBRANCH   7  11
ENDBRANCH   6   8
ENDBRANCH   2   6
ENDBRANCH   1   3
BRANCH   1  16
ATOM     16  N   UNL     1      -8.172   4.131 130.835  0.00  0.00    +0.000 N 
ATOM     17  C   UNL     1      -8.409   4.261 129.472  0.00  0.00    +0.000 C 
ATOM     18  O   UNL     1      -9.563   4.436 129.076  0.00  0.00    +0.000 OA
ATOM     19  H   UNL     1      -7.238   3.989 131.204  0.00  0.00    +0.000 HD
BRANCH  17  20
ATOM     20  C   UNL     1      -7.179   4.177 128.513  0.00  0.00    +0.000 C 
BRANCH  20  21
ATOM     21  S   UNL     1      -7.637   3.197 127.018  0.00  0.00    +0.000 S 
BRANCH  21  22
ATOM     22  C   UNL     1      -7.775   4.366 125.710  0.00  0.00    +0.000 C 
ATOM     23  O   UNL     1      -8.404   5.415 125.830  0.00  0.00    +0.000 OA
BRANCH  22  24
ATOM     24  C   UNL     1      -7.074   4.024 124.424  0.00  0.00    +0.000 A 
ATOM     25  C   UNL     1      -5.820   4.588 124.130  0.00  0.00    +0.000 A 
ATOM     26  C   UNL     1      -5.221   4.381 122.876  0.00  0.00    +0.000 A 
ATOM     27  C   UNL     1      -5.836   3.562 121.931  0.00  0.00    +0.000 A 
ATOM     28  C   UNL     1      -7.069   2.981 122.219  0.00  0.00    +0.000 A 
ATOM     29  C   UNL     1      -7.688   3.217 123.454  0.00  0.00    +0.000 A 
ENDBRANCH  22  24
ENDBRANCH  21  22
ENDBRANCH  20  21
ENDBRANCH  17  20
ENDBRANCH   1  16
TORSDOF 11
ENDMDL
MODEL 2
REMARK VINA RESULT:      -6.6      1.795      2.353
REMARK  Name = Betiatide
REMARK  11 active torsions:
REMARK  status: ('A' for Active; 'I' for Inactive)
REMARK    1  A    between atoms: O_1  and  C_2
REMARK    2  A    between atoms: C_2  and  C_4
REMARK    3  A    between atoms: C_4  and  N_5
REMARK    4  A    between atoms: C_6  and  C_8
REMARK    5  A    between atoms: C_8  and  N_9
REMARK    6  A    between atoms: C_10  and  C_12
REMARK    7  A    between atoms: C_12  and  N_13
REMARK    8  A    between atoms: C_14  and  C_16
REMARK    9  A    between atoms: C_16  and  S_17
REMARK   10  A    between atoms: S_17  and  C_18
REMARK   11  A    between atoms: C_18  and  C_20
REMARK                            x       y       z     vdW  Elec       q    Type
REMARK                         _______ _______ _______ _____ _____    ______ ____
ROOT
ATOM      1  C   UNL     1      -8.304   3.568 130.069  0.00  0.00    +0.000 C 
ENDROOT
BRANCH   1   3
ATOM      2  N   UNL     1      -9.789   5.513 130.651  0.00  0.00    +0.000 N 
ATOM      3  C   UNL     1      -9.718   4.187 130.250  0.00  0.00    +0.000 C 
ATOM      4  O   UNL     1     -10.733   3.519 130.043  0.00  0.00    +0.000 OA
ATOM      5  H   UNL     1      -8.949   6.059 130.821  0.00  0.00    +0.000 HD
BRANCH   2   6
ATOM      6  C   UNL     1     -11.073   6.211 130.857  0.00  0.00    +0.000 C 
BRANCH   6   8
ATOM      7  N   UNL     1     -10.618   7.595 128.818  0.00  0.00    +0.000 N 
ATOM      8  C   UNL     1     -11.573   6.952 129.587  0.00  0.00    +0.000 C 
ATOM      9  O   UNL     1     -12.764   6.968 129.276  0.00  0.00    +0.000 OA
ATOM     10  H   UNL     1      -9.633   7.582 129.073  0.00  0.00    +0.000 HD
BRANCH   7  11
ATOM     11  C   UNL     1     -10.966   8.330 127.592  0.00  0.00    +0.000 C 
BRANCH  11  12
ATOM     12  C   UNL     1     -10.625   7.532 126.332  0.00  0.00    +0.000 C 
ATOM     13  O   UNL     1     -10.138   6.406 126.363  0.00  0.00    +0.000 OA
BRANCH  12  14
ATOM     14  O   UNL     1     -10.896   8.154 125.160  0.00  0.00    +0.000 OA
ATOM     15  H   UNL     1     -10.593   7.714 124.343  0.00  0.00    +0.000 HD
ENDBRANCH  12  14
ENDBRANCH  11  12
ENDBRANCH   7  11
ENDBRANCH   6   8
ENDBRANCH   2   6
ENDBRANCH   1   3
BRANCH   1  16
ATOM     16  N   UNL     1      -8.098   2.970 128.730  0.00  0.00    +0.000 N 
ATOM     17  C   UNL     1      -7.234   3.540 127.803  0.00  0.00    +0.000 C 
ATOM     18  O   UNL     1      -6.621   4.567 128.103  0.00  0.00    +0.000 OA
ATOM     19  H   UNL     1      -8.619   2.125 128.525  0.00  0.00    +0.000 HD
BRANCH  17  20
ATOM     20  C   UNL     1      -7.091   2.834 126.417  0.00  0.00    +0.000 C 
BRANCH  20  21
ATOM     21  S   UNL     1      -7.477   4.040 125.075  0.00  0.00    +0.000 S 
BRANCH  21  22
ATOM     22  C   UNL     1      -8.209   3.094 123.784  0.00  0.00    +0.000 C 
ATOM     23  O   UNL     1      -9.079   2.253 123.999  0.00  0.00    +0.000 OA
BRANCH  22  24
ATOM     24  C   UNL     1      -7.722   3.369 122.388  0.00  0.00    +0.000 A 
ATOM     25  C   UNL     1      -6.346   3.493 122.130  0.00  0.00    +0.000 A 
ATOM     26  C   UNL     1      -5.891   3.881 120.859  0.00  0.00    +0.000 A 
ATOM     27  C   UNL     1      -6.798   4.089 119.822  0.00  0.00    +0.000 A 
ATOM     28  C   UNL     1      -8.163   3.950 120.061  0.00  0.00    +0.000 A 
ATOM     29  C   UNL     1      -8.623   3.600 121.337  0.00  0.00    +0.000 A 
ENDBRANCH  22  24
ENDBRANCH  21  22
ENDBRANCH  20  21
ENDBRANCH  17  20
ENDBRANCH   1  16
TORSDOF 11
ENDMDL
MODEL 3
REMARK VINA RESULT:      -6.5      4.479      8.429
REMARK  Name = Betiatide
REMARK  11 active torsions:
REMARK  status: ('A' for Active; 'I' for Inactive)
REMARK    1  A    between atoms: O_1  and  C_2
REMARK    2  A    between atoms: C_2  and  C_4
REMARK    3  A    between atoms: C_4  and  N_5
REMARK    4  A    between atoms: C_6  and  C_8
REMARK    5  A    between atoms: C_8  and  N_9
REMARK    6  A    between atoms: C_10  and  C_12
REMARK    7  A    between atoms: C_12  and  N_13
REMARK    8  A    between atoms: C_14  and  C_16
REMARK    9  A    between atoms: C_16  and  S_17
REMARK   10  A    between atoms: S_17  and  C_18
REMARK   11  A    between atoms: C_18  and  C_20
REMARK                            x       y       z     vdW  Elec       q    Type
REMARK                         _______ _______ _______ _____ _____    ______ ____
ROOT
ATOM      1  C   UNL     1      -6.923   3.095 126.168  0.00  0.00    +0.000 C 
ENDROOT
BRANCH   1   3
ATOM      2  N   UNL     1      -8.601   1.663 124.962  0.00  0.00    +0.000 N 
ATOM      3  C   UNL     1      -8.096   2.939 125.161  0.00  0.00    +0.000 C 
ATOM      4  O   UNL     1      -8.555   3.916 124.566  0.00  0.00    +0.000 OA
ATOM      5  H   UNL     1      -8.220   0.861 125.455  0.00  0.00    +0.000 HD
BRANCH   2   6
ATOM      6  C   UNL     1      -9.714   1.388 124.030  0.00  0.00    +0.000 C 
BRANCH   6   8
ATOM      7  N   UNL     1      -8.441  -0.723 123.578  0.00  0.00    +0.000 N 
ATOM      8  C   UNL     1      -9.552   0.042 123.271  0.00  0.00    +0.000 C 
ATOM      9  O   UNL     1     -10.375  -0.328 122.434  0.00  0.00    +0.000 OA
ATOM     10  H   UNL     1      -7.760  -0.419 124.271  0.00  0.00    +0.000 HD
BRANCH   7  11
ATOM     11  C   UNL     1      -8.177  -2.016 122.928  0.00  0.00    +0.000 C 
BRANCH  11  12
ATOM     12  C   UNL     1      -8.839  -3.176 123.675  0.00  0.00    +0.000 C 
ATOM     13  O   UNL     1      -8.240  -3.883 124.480  0.00  0.00    +0.000 OA
BRANCH  12  14
ATOM     14  O   UNL     1     -10.146  -3.380 123.390  0.00  0.00    +0.000 OA
ATOM     15  H   UNL     1     -10.733  -3.614 124.134  0.00  0.00    +0.000 HD
ENDBRANCH  12  14
ENDBRANCH  11  12
ENDBRANCH   7  11
ENDBRANCH   6   8
ENDBRANCH   2   6
ENDBRANCH   1   3
BRANCH   1  16
ATOM     16  N   UNL     1      -7.334   2.887 127.576  0.00  0.00    +0.000 N 
ATOM     17  C   UNL     1      -7.995   3.876 128.295  0.00  0.00    +0.000 C 
ATOM     18  O   UNL     1      -8.248   4.951 127.748  0.00  0.00    +0.000 OA
ATOM     19  H   UNL     1      -7.109   1.988 127.988  0.00  0.00    +0.000 HD
BRANCH  17  20
ATOM     20  C   UNL     1      -8.381   3.559 129.775  0.00  0.00    +0.000 C 
BRANCH  20  21
ATOM     21  S   UNL     1      -9.117   5.063 130.550  0.00  0.00    +0.000 S 
BRANCH  21  22
ATOM     22  C   UNL     1     -10.806   5.071 130.058  0.00  0.00    +0.000 C 
ATOM     23  O   UNL     1     -11.528   4.084 130.171  0.00  0.00    +0.000 OA
BRANCH  22  24
ATOM     24  C   UNL     1     -11.337   6.360 129.491  0.00  0.00    +0.000 A 
ATOM     25  C   UNL     1     -12.718   6.529 129.290  0.00  0.00    +0.000 A 
ATOM     26  C   UNL     1     -13.209   7.672 128.638  0.00  0.00    +0.000 A 
ATOM     27  C   UNL     1     -12.335   8.682 128.239  0.00  0.00    +0.000 A 
ATOM     28  C   UNL     1     -10.967   8.535 128.452  0.00  0.00    +0.000 A 
ATOM     29  C   UNL     1     -10.469   7.378 129.066  0.00  0.00    +0.000 A 
ENDBRANCH  22  24
ENDBRANCH  21  22
ENDBRANCH  20  21
ENDBRANCH  17  20
ENDBRANCH   1  16
TORSDOF 11
ENDMDL
MODEL 4
REMARK VINA RESULT:      -6.5      3.981      4.686
REMARK  Name = Betiatide
REMARK  11 active torsions:
REMARK  status: ('A' for Active; 'I' for Inactive)
REMARK    1  A    between atoms: O_1  and  C_2
REMARK    2  A    between atoms: C_2  and  C_4
REMARK    3  A    between atoms: C_4  and  N_5
REMARK    4  A    between atoms: C_6  and  C_8
REMARK    5  A    between atoms: C_8  and  N_9
REMARK    6  A    between atoms: C_10  and  C_12
REMARK    7  A    between atoms: C_12  and  N_13
REMARK    8  A    between atoms: C_14  and  C_16
REMARK    9  A    between atoms: C_16  and  S_17
REMARK   10  A    between atoms: S_17  and  C_18
REMARK   11  A    between atoms: C_18  and  C_20
REMARK                            x       y       z     vdW  Elec       q    Type
REMARK                         _______ _______ _______ _____ _____    ______ ____
ROOT
ATOM      1  C   UNL     1      -9.023   4.411 131.807  0.00  0.00    +0.000 C 
ENDROOT
BRANCH   1   3
ATOM      2  N   UNL     1     -11.234   5.569 131.507  0.00  0.00    +0.000 N 
ATOM      3  C   UNL     1      -9.868   5.710 131.697  0.00  0.00    +0.000 C 
ATOM      4  O   UNL     1      -9.337   6.820 131.776  0.00  0.00    +0.000 OA
ATOM      5  H   UNL     1     -11.667   4.652 131.442  0.00  0.00    +0.000 HD
BRANCH   2   6
ATOM      6  C   UNL     1     -12.141   6.728 131.388  0.00  0.00    +0.000 C 
BRANCH   6   8
ATOM      7  N   UNL     1     -11.207   7.755 129.300  0.00  0.00    +0.000 N 
ATOM      8  C   UNL     1     -12.319   7.213 129.922  0.00  0.00    +0.000 C 
ATOM      9  O   UNL     1     -13.399   7.118 129.339  0.00  0.00    +0.000 OA
ATOM     10  H   UNL     1     -10.314   7.833 129.781  0.00  0.00    +0.000 HD
BRANCH   7  11
ATOM     11  C   UNL     1     -11.249   8.248 127.915  0.00  0.00    +0.000 C 
BRANCH  11  12
ATOM     12  C   UNL     1     -10.939   7.140 126.906  0.00  0.00    +0.000 C 
ATOM     13  O   UNL     1      -9.840   6.602 126.817  0.00  0.00    +0.000 OA
BRANCH  12  14
ATOM     14  O   UNL     1     -11.969   6.782 126.103  0.00  0.00    +0.000 OA
ATOM     15  H   UNL     1     -12.479   7.503 125.686  0.00  0.00    +0.000 HD
ENDBRANCH  12  14
ENDBRANCH  11  12
ENDBRANCH   7  11
ENDBRANCH   6   8
ENDBRANCH   2   6
ENDBRANCH   1   3
BRANCH   1  16
ATOM     16  N   UNL     1      -8.702   3.813 130.490  0.00  0.00    +0.000 N 
ATOM     17  C   UNL     1      -8.929   2.468 130.226  0.00  0.00    +0.000 C 
ATOM     18  O   UNL     1      -9.412   1.755 131.108  0.00  0.00    +0.000 OA
ATOM     19  H   UNL     1      -8.309   4.435 129.792  0.00  0.00    +0.000 HD
BRANCH  17  20
ATOM     20  C   UNL     1      -8.553   1.935 128.807  0.00  0.00    +0.000 C 
BRANCH  20  21
ATOM     21  S   UNL     1      -7.103   0.801 128.946  0.00  0.00    +0.000 S 
BRANCH  21  22
ATOM     22  C   UNL     1      -7.136  -0.189 127.492  0.00  0.00    +0.000 C 
ATOM     23  O   UNL     1      -6.697   0.209 126.416  0.00  0.00    +0.000 OA
BRANCH  22  24
ATOM     24  C   UNL     1      -7.726  -1.567 127.628  0.00  0.00    +0.000 A 
ATOM     25  C   UNL     1      -8.342  -2.184 126.526  0.00  0.00    +0.000 A 
ATOM     26  C   UNL     1      -9.012  -3.409 126.679  0.00  0.00    +0.000 A 
ATOM     27  C   UNL     1      -9.021  -4.056 127.913  0.00  0.00    +0.000 A 
ATOM     28  C   UNL     1      -8.397  -3.463 129.007  0.00  0.00    +0.000 A 
ATOM     29  C   UNL     1      -7.760  -2.222 128.869  0.00  0.00    +0.000 A 
ENDBRANCH  22  24
ENDBRANCH  21  22
ENDBRANCH  20  21
ENDBRANCH  17  20
ENDBRANCH   1  16
TORSDOF 11
ENDMDL
MODEL 5
REMARK VINA RESULT:      -6.4      2.491      2.960
REMARK  Name = Betiatide
REMARK  11 active torsions:
REMARK  status: ('A' for Active; 'I' for Inactive)
REMARK    1  A    between atoms: O_1  and  C_2
REMARK    2  A    between atoms: C_2  and  C_4
REMARK    3  A    between atoms: C_4  and  N_5
REMARK    4  A    between atoms: C_6  and  C_8
REMARK    5  A    between atoms: C_8  and  N_9
REMARK    6  A    between atoms: C_10  and  C_12
REMARK    7  A    between atoms: C_12  and  N_13
REMARK    8  A    between atoms: C_14  and  C_16
REMARK    9  A    between atoms: C_16  and  S_17
REMARK   10  A    between atoms: S_17  and  C_18
REMARK   11  A    between atoms: C_18  and  C_20
REMARK                            x       y       z     vdW  Elec       q    Type
REMARK                         _______ _______ _______ _____ _____    ______ ____
ROOT
ATOM      1  C   UNL     1      -9.385   4.358 132.088  0.00  0.00    +0.000 C 
ENDROOT
BRANCH   1   3
ATOM      2  N   UNL     1     -11.461   5.676 131.563  0.00  0.00    +0.000 N 
ATOM      3  C   UNL     1     -10.098   5.712 131.815  0.00  0.00    +0.000 C 
ATOM      4  O   UNL     1      -9.470   6.773 131.825  0.00  0.00    +0.000 OA
ATOM      5  H   UNL     1     -11.975   4.799 131.556  0.00  0.00    +0.000 HD
BRANCH   2   6
ATOM      6  C   UNL     1     -12.249   6.895 131.290  0.00  0.00    +0.000 C 
BRANCH   6   8
ATOM      7  N   UNL     1     -11.141   7.888 129.272  0.00  0.00    +0.000 N 
ATOM      8  C   UNL     1     -12.274   7.278 129.784  0.00  0.00    +0.000 C 
ATOM      9  O   UNL     1     -13.255   7.049 129.077  0.00  0.00    +0.000 OA
ATOM     10  H   UNL     1     -10.329   8.077 129.856  0.00  0.00    +0.000 HD
BRANCH   7  11
ATOM     11  C   UNL     1     -11.043   8.297 127.862  0.00  0.00    +0.000 C 
BRANCH  11  12
ATOM     12  C   UNL     1     -10.821   7.100 126.935  0.00  0.00    +0.000 C 
ATOM     13  O   UNL     1      -9.763   6.482 126.881  0.00  0.00    +0.000 OA
BRANCH  12  14
ATOM     14  O   UNL     1     -11.881   6.758 126.166  0.00  0.00    +0.000 OA
ATOM     15  H   UNL     1     -12.744   6.665 126.613  0.00  0.00    +0.000 HD
ENDBRANCH  12  14
ENDBRANCH  11  12
ENDBRANCH   7  11
ENDBRANCH   6   8
ENDBRANCH   2   6
ENDBRANCH   1   3
BRANCH   1  16
ATOM     16  N   UNL     1      -8.471   3.953 130.995  0.00  0.00    +0.000 N 
ATOM     17  C   UNL     1      -8.951   3.457 129.790  0.00  0.00    +0.000 C 
ATOM     18  O   UNL     1     -10.168   3.355 129.623  0.00  0.00    +0.000 OA
ATOM     19  H   UNL     1      -7.477   4.055 131.173  0.00  0.00    +0.000 HD
BRANCH  17  20
ATOM     20  C   UNL     1      -7.904   3.054 128.704  0.00  0.00    +0.000 C 
BRANCH  20  21
ATOM     21  S   UNL     1      -8.320   1.381 128.045  0.00  0.00    +0.000 S 
BRANCH  21  22
ATOM     22  C   UNL     1      -8.499   1.588 126.307  0.00  0.00    +0.000 C 
ATOM     23  O   UNL     1      -8.839   2.656 125.804  0.00  0.00    +0.000 OA
BRANCH  22  24
ATOM     24  C   UNL     1      -8.207   0.385 125.451  0.00  0.00    +0.000 A 
ATOM     25  C   UNL     1      -8.597  -0.896 125.876  0.00  0.00    +0.000 A 
ATOM     26  C   UNL     1      -8.211  -2.036 125.151  0.00  0.00    +0.000 A 
ATOM     27  C   UNL     1      -7.487  -1.903 123.968  0.00  0.00    +0.000 A 
ATOM     28  C   UNL     1      -7.111  -0.636 123.527  0.00  0.00    +0.000 A 
ATOM     29  C   UNL     1      -7.461   0.500 124.268  0.00  0.00    +0.000 A 
ENDBRANCH  22  24
ENDBRANCH  21  22
ENDBRANCH  20  21
ENDBRANCH  17  20
ENDBRANCH   1  16
TORSDOF 11
ENDMDL
MODEL 6
REMARK VINA RESULT:      -6.4      3.650      8.124
REMARK  Name = Betiatide
REMARK  11 active torsions:
REMARK  status: ('A' for Active; 'I' for Inactive)
REMARK    1  A    between atoms: O_1  and  C_2
REMARK    2  A    between atoms: C_2  and  C_4
REMARK    3  A    between atoms: C_4  and  N_5
REMARK    4  A    between atoms: C_6  and  C_8
REMARK    5  A    between atoms: C_8  and  N_9
REMARK    6  A    between atoms: C_10  and  C_12
REMARK    7  A    between atoms: C_12  and  N_13
REMARK    8  A    between atoms: C_14  and  C_16
REMARK    9  A    between atoms: C_16  and  S_17
REMARK   10  A    between atoms: S_17  and  C_18
REMARK   11  A    between atoms: C_18  and  C_20
REMARK                            x       y       z     vdW  Elec       q    Type
REMARK                         _______ _______ _______ _____ _____    ______ ____
ROOT
ATOM      1  C   UNL     1      -7.005   3.017 126.745  0.00  0.00    +0.000 C 
ENDROOT
BRANCH   1   3
ATOM      2  N   UNL     1      -7.415   3.338 124.285  0.00  0.00    +0.000 N 
ATOM      3  C   UNL     1      -7.916   2.878 125.493  0.00  0.00    +0.000 C 
ATOM      4  O   UNL     1      -9.038   2.375 125.578  0.00  0.00    +0.000 OA
ATOM      5  H   UNL     1      -6.489   3.751 124.219  0.00  0.00    +0.000 HD
BRANCH   2   6
ATOM      6  C   UNL     1      -8.185   3.261 123.027  0.00  0.00    +0.000 C 
BRANCH   6   8
ATOM      7  N   UNL     1      -5.941   3.578 121.957  0.00  0.00    +0.000 N 
ATOM      8  C   UNL     1      -7.307   3.472 121.763  0.00  0.00    +0.000 C 
ATOM      9  O   UNL     1      -7.803   3.540 120.638  0.00  0.00    +0.000 OA
ATOM     10  H   UNL     1      -5.530   3.521 122.886  0.00  0.00    +0.000 HD
BRANCH   7  11
ATOM     11  C   UNL     1      -5.005   3.779 120.840  0.00  0.00    +0.000 C 
BRANCH  11  12
ATOM     12  C   UNL     1      -5.055   5.211 120.303  0.00  0.00    +0.000 C 
ATOM     13  O   UNL     1      -4.476   6.148 120.843  0.00  0.00    +0.000 OA
BRANCH  12  14
ATOM     14  O   UNL     1      -5.790   5.384 119.180  0.00  0.00    +0.000 OA
ATOM     15  H   UNL     1      -5.495   6.078 118.559  0.00  0.00    +0.000 HD
ENDBRANCH  12  14
ENDBRANCH  11  12
ENDBRANCH   7  11
ENDBRANCH   6   8
ENDBRANCH   2   6
ENDBRANCH   1   3
BRANCH   1  16
ATOM     16  N   UNL     1      -7.766   3.257 127.993  0.00  0.00    +0.000 N 
ATOM     17  C   UNL     1      -7.417   4.272 128.875  0.00  0.00    +0.000 C 
ATOM     18  O   UNL     1      -6.453   4.994 128.611  0.00  0.00    +0.000 OA
ATOM     19  H   UNL     1      -8.553   2.642 128.171  0.00  0.00    +0.000 HD
BRANCH  17  20
ATOM     20  C   UNL     1      -8.281   4.438 130.165  0.00  0.00    +0.000 C 
BRANCH  20  21
ATOM     21  S   UNL     1      -8.188   6.189 130.741  0.00  0.00    +0.000 S 
BRANCH  21  22
ATOM     22  C   UNL     1      -9.821   6.609 131.246  0.00  0.00    +0.000 C 
ATOM     23  O   UNL     1     -10.218   6.435 132.395  0.00  0.00    +0.000 OA
BRANCH  22  24
ATOM     24  C   UNL     1     -10.718   7.205 130.196  0.00  0.00    +0.000 A 
ATOM     25  C   UNL     1     -12.106   6.989 130.245  0.00  0.00    +0.000 A 
ATOM     26  C   UNL     1     -12.934   7.427 129.199  0.00  0.00    +0.000 A 
ATOM     27  C   UNL     1     -12.395   8.137 128.127  0.00  0.00    +0.000 A 
ATOM     28  C   UNL     1     -11.023   8.375 128.078  0.00  0.00    +0.000 A 
ATOM     29  C   UNL     1     -10.189   7.905 129.101  0.00  0.00    +0.000 A 
ENDBRANCH  22  24
ENDBRANCH  21  22
ENDBRANCH  20  21
ENDBRANCH  17  20
ENDBRANCH   1  16
TORSDOF 11
ENDMDL
MODEL 7
REMARK VINA RESULT:      -6.4      3.507      5.232
REMARK  Name = Betiatide
REMARK  11 active torsions:
REMARK  status: ('A' for Active; 'I' for Inactive)
REMARK    1  A    between atoms: O_1  and  C_2
REMARK    2  A    between atoms: C_2  and  C_4
REMARK    3  A    between atoms: C_4  and  N_5
REMARK    4  A    between atoms: C_6  and  C_8
REMARK    5  A    between atoms: C_8  and  N_9
REMARK    6  A    between atoms: C_10  and  C_12
REMARK    7  A    between atoms: C_12  and  N_13
REMARK    8  A    between atoms: C_14  and  C_16
REMARK    9  A    between atoms: C_16  and  S_17
REMARK   10  A    between atoms: S_17  and  C_18
REMARK   11  A    between atoms: C_18  and  C_20
REMARK                            x       y       z     vdW  Elec       q    Type
REMARK                         _______ _______ _______ _____ _____    ______ ____
ROOT
ATOM      1  C   UNL     1      -9.199   4.194 132.109  0.00  0.00    +0.000 C 
ENDROOT
BRANCH   1   3
ATOM      2  N   UNL     1     -11.233   5.563 131.551  0.00  0.00    +0.000 N 
ATOM      3  C   UNL     1     -10.025   5.504 132.230  0.00  0.00    +0.000 C 
ATOM      4  O   UNL     1      -9.618   6.451 132.906  0.00  0.00    +0.000 OA
ATOM      5  H   UNL     1     -11.565   4.780 130.995  0.00  0.00    +0.000 HD
BRANCH   2   6
ATOM      6  C   UNL     1     -12.107   6.753 131.588  0.00  0.00    +0.000 C 
BRANCH   6   8
ATOM      7  N   UNL     1     -12.304   6.533 129.099  0.00  0.00    +0.000 N 
ATOM      8  C   UNL     1     -12.330   7.387 130.188  0.00  0.00    +0.000 C 
ATOM      9  O   UNL     1     -12.522   8.596 130.051  0.00  0.00    +0.000 OA
ATOM     10  H   UNL     1     -12.146   5.533 129.211  0.00  0.00    +0.000 HD
BRANCH   7  11
ATOM     11  C   UNL     1     -12.503   7.013 127.723  0.00  0.00    +0.000 C 
BRANCH  11  12
ATOM     12  C   UNL     1     -11.188   7.454 127.077  0.00  0.00    +0.000 C 
ATOM     13  O   UNL     1     -10.557   6.751 126.295  0.00  0.00    +0.000 OA
BRANCH  12  14
ATOM     14  O   UNL     1     -10.756   8.688 127.428  0.00  0.00    +0.000 OA
ATOM     15  H   UNL     1     -11.296   9.182 128.074  0.00  0.00    +0.000 HD
ENDBRANCH  12  14
ENDBRANCH  11  12
ENDBRANCH   7  11
ENDBRANCH   6   8
ENDBRANCH   2   6
ENDBRANCH   1   3
BRANCH   1  16
ATOM     16  N   UNL     1      -8.004   4.338 131.245  0.00  0.00    +0.000 N 
ATOM     17  C   UNL     1      -8.103   4.329 129.860  0.00  0.00    +0.000 C 
ATOM     18  O   UNL     1      -9.211   4.203 129.335  0.00  0.00    +0.000 OA
ATOM     19  H   UNL     1      -7.112   4.442 131.717  0.00  0.00    +0.000 HD
BRANCH  17  20
ATOM     20  C   UNL     1      -6.782   4.484 129.040  0.00  0.00    +0.000 C 
BRANCH  20  21
ATOM     21  S   UNL     1      -5.354   4.616 130.201  0.00  0.00    +0.000 S 
BRANCH  21  22
ATOM     22  C   UNL     1      -4.386   5.962 129.610  0.00  0.00    +0.000 C 
ATOM     23  O   UNL     1      -4.530   6.428 128.482  0.00  0.00    +0.000 OA
BRANCH  22  24
ATOM     24  C   UNL     1      -3.366   6.527 130.560  0.00  0.00    +0.000 A 
ATOM     25  C   UNL     1      -2.206   5.796 130.869  0.00  0.00    +0.000 A 
ATOM     26  C   UNL     1      -1.317   6.254 131.855  0.00  0.00    +0.000 A 
ATOM     27  C   UNL     1      -1.544   7.471 132.495  0.00  0.00    +0.000 A 
ATOM     28  C   UNL     1      -2.680   8.214 132.182  0.00  0.00    +0.000 A 
ATOM     29  C   UNL     1      -3.590   7.741 131.226  0.00  0.00    +0.000 A 
ENDBRANCH  22  24
ENDBRANCH  21  22
ENDBRANCH  20  21
ENDBRANCH  17  20
ENDBRANCH   1  16
TORSDOF 11
ENDMDL
MODEL 8
REMARK VINA RESULT:      -6.3      2.501      3.357
REMARK  Name = Betiatide
REMARK  11 active torsions:
REMARK  status: ('A' for Active; 'I' for Inactive)
REMARK    1  A    between atoms: O_1  and  C_2
REMARK    2  A    between atoms: C_2  and  C_4
REMARK    3  A    between atoms: C_4  and  N_5
REMARK    4  A    between atoms: C_6  and  C_8
REMARK    5  A    between atoms: C_8  and  N_9
REMARK    6  A    between atoms: C_10  and  C_12
REMARK    7  A    between atoms: C_12  and  N_13
REMARK    8  A    between atoms: C_14  and  C_16
REMARK    9  A    between atoms: C_16  and  S_17
REMARK   10  A    between atoms: S_17  and  C_18
REMARK   11  A    between atoms: C_18  and  C_20
REMARK                            x       y       z     vdW  Elec       q    Type
REMARK                         _______ _______ _______ _____ _____    ______ ____
ROOT
ATOM      1  C   UNL     1      -9.763   4.551 132.481  0.00  0.00    +0.000 C 
ENDROOT
BRANCH   1   3
ATOM      2  N   UNL     1     -11.723   5.986 131.830  0.00  0.00    +0.000 N 
ATOM      3  C   UNL     1     -10.345   5.890 131.946  0.00  0.00    +0.000 C 
ATOM      4  O   UNL     1      -9.603   6.826 131.640  0.00  0.00    +0.000 OA
ATOM      5  H   UNL     1     -12.331   5.211 132.084  0.00  0.00    +0.000 HD
BRANCH   2   6
ATOM      6  C   UNL     1     -12.394   7.205 131.334  0.00  0.00    +0.000 C 
BRANCH   6   8
ATOM      7  N   UNL     1     -11.258   8.135 129.303  0.00  0.00    +0.000 N 
ATOM      8  C   UNL     1     -12.300   7.366 129.792  0.00  0.00    +0.000 C 
ATOM      9  O   UNL     1     -13.114   6.833 129.038  0.00  0.00    +0.000 OA
ATOM     10  H   UNL     1     -10.584   8.575 129.925  0.00  0.00    +0.000 HD
BRANCH   7  11
ATOM     11  C   UNL     1     -11.062   8.361 127.862  0.00  0.00    +0.000 C 
BRANCH  11  12
ATOM     12  C   UNL     1     -10.725   7.065 127.122  0.00  0.00    +0.000 C 
ATOM     13  O   UNL     1      -9.670   6.460 127.277  0.00  0.00    +0.000 OA
BRANCH  12  14
ATOM     14  O   UNL     1     -11.679   6.619 126.270  0.00  0.00    +0.000 OA
ATOM     15  H   UNL     1     -12.486   6.240 126.667  0.00  0.00    +0.000 HD
ENDBRANCH  12  14
ENDBRANCH  11  12
ENDBRANCH   7  11
ENDBRANCH   6   8
ENDBRANCH   2   6
ENDBRANCH   1   3
BRANCH   1  16
ATOM     16  N   UNL     1      -8.892   3.863 131.500  0.00  0.00    +0.000 N 
ATOM     17  C   UNL     1      -8.099   2.782 131.863  0.00  0.00    +0.000 C 
ATOM     18  O   UNL     1      -8.123   2.383 133.029  0.00  0.00    +0.000 OA
ATOM     19  H   UNL     1      -8.904   4.222 130.551  0.00  0.00    +0.000 HD
BRANCH  17  20
ATOM     20  C   UNL     1      -7.213   2.130 130.755  0.00  0.00    +0.000 C 
BRANCH  20  21
ATOM     21  S   UNL     1      -5.576   2.981 130.702  0.00  0.00    +0.000 S 
BRANCH  21  22
ATOM     22  C   UNL     1      -5.696   4.157 129.398  0.00  0.00    +0.000 C 
ATOM     23  O   UNL     1      -6.564   5.026 129.375  0.00  0.00    +0.000 OA
BRANCH  22  24
ATOM     24  C   UNL     1      -4.669   4.055 128.303  0.00  0.00    +0.000 A 
ATOM     25  C   UNL     1      -5.067   4.097 126.955  0.00  0.00    +0.000 A 
ATOM     26  C   UNL     1      -4.135   3.868 125.930  0.00  0.00    +0.000 A 
ATOM     27  C   UNL     1      -2.792   3.656 126.236  0.00  0.00    +0.000 A 
ATOM     28  C   UNL     1      -2.383   3.632 127.567  0.00  0.00    +0.000 A 
ATOM     29  C   UNL     1      -3.317   3.822 128.595  0.00  0.00    +0.000 A 
ENDBRANCH  22  24
ENDBRANCH  21  22
ENDBRANCH  20  21
ENDBRANCH  17  20
ENDBRANCH   1  16
TORSDOF 11
ENDMDL
MODEL 9
REMARK VINA RESULT:      -6.3      4.510      5.441
REMARK  Name = Betiatide
REMARK  11 active torsions:
REMARK  status: ('A' for Active; 'I' for Inactive)
REMARK    1  A    between atoms: O_1  and  C_2
REMARK    2  A    between atoms: C_2  and  C_4
REMARK    3  A    between atoms: C_4  and  N_5
REMARK    4  A    between atoms: C_6  and  C_8
REMARK    5  A    between atoms: C_8  and  N_9
REMARK    6  A    between atoms: C_10  and  C_12
REMARK    7  A    between atoms: C_12  and  N_13
REMARK    8  A    between atoms: C_14  and  C_16
REMARK    9  A    between atoms: C_16  and  S_17
REMARK   10  A    between atoms: S_17  and  C_18
REMARK   11  A    between atoms: C_18  and  C_20
REMARK                            x       y       z     vdW  Elec       q    Type
REMARK                         _______ _______ _______ _____ _____    ______ ____
ROOT
ATOM      1  C   UNL     1      -8.936   3.810 133.761  0.00  0.00    +0.000 C 
ENDROOT
BRANCH   1   3
ATOM      2  N   UNL     1     -10.632   5.284 132.631  0.00  0.00    +0.000 N 
ATOM      3  C   UNL     1      -9.301   5.100 132.975  0.00  0.00    +0.000 C 
ATOM      4  O   UNL     1      -8.436   5.924 132.672  0.00  0.00    +0.000 OA
ATOM      5  H   UNL     1     -11.342   4.601 132.883  0.00  0.00    +0.000 HD
BRANCH   2   6
ATOM      6  C   UNL     1     -11.102   6.468 131.885  0.00  0.00    +0.000 C 
BRANCH   6   8
ATOM      7  N   UNL     1     -11.917   7.202 129.631  0.00  0.00    +0.000 N 
ATOM      8  C   UNL     1     -11.507   6.142 130.421  0.00  0.00    +0.000 C 
ATOM      9  O   UNL     1     -11.463   4.993 129.981  0.00  0.00    +0.000 OA
ATOM     10  H   UNL     1     -11.953   8.153 129.993  0.00  0.00    +0.000 HD
BRANCH   7  11
ATOM     11  C   UNL     1     -12.325   7.021 128.229  0.00  0.00    +0.000 C 
BRANCH  11  12
ATOM     12  C   UNL     1     -11.248   7.506 127.255  0.00  0.00    +0.000 C 
ATOM     13  O   UNL     1     -10.873   6.849 126.290  0.00  0.00    +0.000 OA
BRANCH  12  14
ATOM     14  O   UNL     1     -10.725   8.725 127.529  0.00  0.00    +0.000 OA
ATOM     15  H   UNL     1     -11.242   9.504 127.247  0.00  0.00    +0.000 HD
ENDBRANCH  12  14
ENDBRANCH  11  12
ENDBRANCH   7  11
ENDBRANCH   6   8
ENDBRANCH   2   6
ENDBRANCH   1   3
BRANCH   1  16
ATOM     16  N   UNL     1      -9.229   2.568 133.008  0.00  0.00    +0.000 N 
ATOM     17  C   UNL     1      -8.225   1.669 132.669  0.00  0.00    +0.000 C 
ATOM     18  O   UNL     1      -7.064   1.908 133.005  0.00  0.00    +0.000 OA
ATOM     19  H   UNL     1     -10.197   2.409 132.752  0.00  0.00    +0.000 HD
BRANCH  17  20
ATOM     20  C   UNL     1      -8.638   0.392 131.870  0.00  0.00    +0.000 C 
BRANCH  20  21
ATOM     21  S   UNL     1      -7.219  -0.162 130.828  0.00  0.00    +0.000 S 
BRANCH  21  22
ATOM     22  C   UNL     1      -7.462  -1.886 130.574  0.00  0.00    +0.000 C 
ATOM     23  O   UNL     1      -7.253  -2.715 131.456  0.00  0.00    +0.000 OA
BRANCH  22  24
ATOM     24  C   UNL     1      -7.951  -2.305 129.214  0.00  0.00    +0.000 A 
ATOM     25  C   UNL     1      -8.606  -3.537 129.047  0.00  0.00    +0.000 A 
ATOM     26  C   UNL     1      -8.945  -3.995 127.763  0.00  0.00    +0.000 A 
ATOM     27  C   UNL     1      -8.689  -3.204 126.645  0.00  0.00    +0.000 A 
ATOM     28  C   UNL     1      -8.058  -1.972 126.801  0.00  0.00    +0.000 A 
ATOM     29  C   UNL     1      -7.684  -1.528 128.076  0.00  0.00    +0.000 A 
ENDBRANCH  22  24
ENDBRANCH  21  22
ENDBRANCH  20  21
ENDBRANCH  17  20
ENDBRANCH   1  16
TORSDOF 11
ENDMDL
