MODEL 1
REMARK VINA RESULT:      -8.3      0.000      0.000
REMARK  Name = Betrixaban
REMARK  9 active torsions:
REMARK  status: ('A' for Active; 'I' for Inactive)
REMARK    1  A    between atoms: C_1  and  O_2
REMARK    2  A    between atoms: O_2  and  C_3
REMARK    3  A    between atoms: C_6  and  N_7
REMARK    4  A    between atoms: C_8  and  C_10
REMARK    5  A    between atoms: C_13  and  C_16
REMARK    6  A    between atoms: N_18  and  C_19
REMARK    7  A    between atoms: N_18  and  C_20
REMARK    8  A    between atoms: C_21  and  C_23
REMARK    9  A    between atoms: N_25  and  C_26
REMARK                            x       y       z     vdW  Elec       q    Type
REMARK                         _______ _______ _______ _____ _____    ______ ____
ROOT
ATOM      1  C   UNL     1     -11.503   7.987 129.755  0.00  0.00    +0.000 A 
ATOM      2  C   UNL     1     -12.330   7.343 130.671  0.00  0.00    +0.000 A 
ATOM      3  C   UNL     1     -11.860   6.231 131.387  0.00  0.00    +0.000 A 
ATOM      4  C   UNL     1     -10.562   5.730 131.163  0.00  0.00    +0.000 A 
ATOM      5  C   UNL     1      -9.703   6.441 130.288  0.00  0.00    +0.000 A 
ATOM      6  C   UNL     1     -10.201   7.532 129.565  0.00  0.00    +0.000 A 
ENDROOT
BRANCH   4   7
ATOM      7  N   UNL     1     -10.196   4.542 131.849  0.00  0.00    +0.000 N 
ATOM      8  C   UNL     1      -9.894   3.352 131.194  0.00  0.00    +0.000 C 
ATOM      9  O   UNL     1     -10.271   3.030 130.079  0.00  0.00    +0.000 OA
ATOM     10  H   UNL     1     -10.328   4.505 132.852  0.00  0.00    +0.000 HD
BRANCH   8  11
ATOM     11  C   UNL     1      -9.339   2.265 132.000  0.00  0.00    +0.000 A 
ATOM     12  C   UNL     1      -8.174   2.382 132.771  0.00  0.00    +0.000 A 
ATOM     13  C   UNL     1      -7.428   1.225 133.083  0.00  0.00    +0.000 A 
ATOM     14  C   UNL     1      -7.834  -0.038 132.619  0.00  0.00    +0.000 A 
ATOM     15  C   UNL     1      -8.900  -0.039 131.718  0.00  0.00    +0.000 A 
ATOM     16  C   UNL     1      -9.721   1.046 131.498  0.00  0.00    +0.000 A 
BRANCH  14  17
ATOM     17  C   UNL     1      -7.175  -1.344 133.080  0.00  0.00    +0.000 C 
ATOM     18  N   UNL     1      -7.647  -1.960 134.130  0.00  0.00    +0.000 NA
ATOM     19  N   UNL     1      -6.126  -1.990 132.408  0.00  0.00    +0.000 N 
ATOM     20  C   UNL     1      -5.442  -1.612 131.184  0.00  0.00    +0.000 C 
ATOM     21  C   UNL     1      -5.593  -3.264 132.911  0.00  0.00    +0.000 C 
ATOM     22  H   UNL     1      -8.441  -1.504 134.569  0.00  0.00    +0.000 HD
ENDBRANCH  14  17
ENDBRANCH   8  11
ENDBRANCH   4   7
BRANCH   5  23
ATOM     23  C   UNL     1      -8.215   6.230 130.285  0.00  0.00    +0.000 C 
ATOM     24  O   UNL     1      -7.712   5.526 129.412  0.00  0.00    +0.000 OA
ATOM     25  N   UNL     1      -7.471   6.773 131.337  0.00  0.00    +0.000 N 
ATOM     26  H   UNL     1      -7.741   6.421 132.240  0.00  0.00    +0.000 HD
BRANCH  25  27
ATOM     27  C   UNL     1      -6.077   6.775 131.156  0.00  0.00    +0.000 A 
ATOM     28  C   UNL     1      -5.335   5.831 131.859  0.00  0.00    +0.000 A 
ATOM     29  C   UNL     1      -3.948   5.862 131.792  0.00  0.00    +0.000 A 
ATOM     30  C   UNL     1      -3.344   6.851 131.033  0.00  0.00    +0.000 A 
ATOM     31 CL   UNL     1      -1.633   6.961 130.964  0.00  0.00    +0.000 Cl
ATOM     32  C   UNL     1      -4.159   7.733 130.332  0.00  0.00    +0.000 A 
ATOM     33  N   UNL     1      -5.523   7.693 130.337  0.00  0.00    +0.000 NA
ENDBRANCH  25  27
ENDBRANCH   5  23
BRANCH   1  35
ATOM     34  C   UNL     1     -13.063   9.759 129.897  0.00  0.00    +0.000 C 
ATOM     35  O   UNL     1     -11.983   9.143 129.198  0.00  0.00    +0.000 OA
ENDBRANCH   1  35
TORSDOF 6
ENDMDL
MODEL 2
REMARK VINA RESULT:      -8.2      6.374      9.430
REMARK  Name = Betrixaban
REMARK  9 active torsions:
REMARK  status: ('A' for Active; 'I' for Inactive)
REMARK    1  A    between atoms: C_1  and  O_2
REMARK    2  A    between atoms: O_2  and  C_3
REMARK    3  A    between atoms: C_6  and  N_7
REMARK    4  A    between atoms: C_8  and  C_10
REMARK    5  A    between atoms: C_13  and  C_16
REMARK    6  A    between atoms: N_18  and  C_19
REMARK    7  A    between atoms: N_18  and  C_20
REMARK    8  A    between atoms: C_21  and  C_23
REMARK    9  A    between atoms: N_25  and  C_26
REMARK                            x       y       z     vdW  Elec       q    Type
REMARK                         _______ _______ _______ _____ _____    ______ ____
ROOT
ATOM      1  C   UNL     1      -6.691   3.366 122.089  0.00  0.00    +0.000 A 
ATOM      2  C   UNL     1      -5.647   4.239 122.386  0.00  0.00    +0.000 A 
ATOM      3  C   UNL     1      -5.117   4.290 123.685  0.00  0.00    +0.000 A 
ATOM      4  C   UNL     1      -5.657   3.489 124.711  0.00  0.00    +0.000 A 
ATOM      5  C   UNL     1      -6.663   2.548 124.380  0.00  0.00    +0.000 A 
ATOM      6  C   UNL     1      -7.194   2.533 123.084  0.00  0.00    +0.000 A 
ENDROOT
BRANCH   4   7
ATOM      7  N   UNL     1      -5.136   3.672 126.020  0.00  0.00    +0.000 N 
ATOM      8  C   UNL     1      -4.150   2.855 126.564  0.00  0.00    +0.000 C 
ATOM      9  O   UNL     1      -3.901   1.709 126.228  0.00  0.00    +0.000 OA
ATOM     10  H   UNL     1      -5.619   4.306 126.646  0.00  0.00    +0.000 HD
BRANCH   8  11
ATOM     11  C   UNL     1      -3.562   3.271 127.836  0.00  0.00    +0.000 A 
ATOM     12  C   UNL     1      -4.140   3.009 129.086  0.00  0.00    +0.000 A 
ATOM     13  C   UNL     1      -3.835   3.843 130.183  0.00  0.00    +0.000 A 
ATOM     14  C   UNL     1      -2.969   4.940 130.031  0.00  0.00    +0.000 A 
ATOM     15  C   UNL     1      -2.581   5.230 128.723  0.00  0.00    +0.000 A 
ATOM     16  C   UNL     1      -2.755   4.368 127.661  0.00  0.00    +0.000 A 
BRANCH  14  17
ATOM     17  C   UNL     1      -2.455   5.763 131.219  0.00  0.00    +0.000 C 
ATOM     18  N   UNL     1      -1.572   5.237 132.024  0.00  0.00    +0.000 NA
ATOM     19  N   UNL     1      -2.808   7.097 131.479  0.00  0.00    +0.000 N 
ATOM     20  C   UNL     1      -3.690   7.980 130.737  0.00  0.00    +0.000 C 
ATOM     21  C   UNL     1      -2.223   7.811 132.622  0.00  0.00    +0.000 C 
ATOM     22  H   UNL     1      -1.290   4.291 131.786  0.00  0.00    +0.000 HD
ENDBRANCH  14  17
ENDBRANCH   8  11
ENDBRANCH   4   7
BRANCH   5  23
ATOM     23  C   UNL     1      -7.015   1.402 125.286  0.00  0.00    +0.000 C 
ATOM     24  O   UNL     1      -7.630   1.628 126.325  0.00  0.00    +0.000 OA
ATOM     25  N   UNL     1      -6.544   0.130 124.950  0.00  0.00    +0.000 N 
ATOM     26  H   UNL     1      -5.540   0.075 124.906  0.00  0.00    +0.000 HD
BRANCH  25  27
ATOM     27  C   UNL     1      -7.108  -0.936 125.672  0.00  0.00    +0.000 A 
ATOM     28  C   UNL     1      -8.307  -1.466 125.205  0.00  0.00    +0.000 A 
ATOM     29  C   UNL     1      -8.954  -2.449 125.943  0.00  0.00    +0.000 A 
ATOM     30  C   UNL     1      -8.387  -2.863 127.137  0.00  0.00    +0.000 A 
ATOM     31 CL   UNL     1      -9.177  -4.036 128.108  0.00  0.00    +0.000 Cl
ATOM     32  C   UNL     1      -7.167  -2.308 127.512  0.00  0.00    +0.000 A 
ATOM     33  N   UNL     1      -6.484  -1.381 126.782  0.00  0.00    +0.000 NA
ENDBRANCH  25  27
ENDBRANCH   5  23
BRANCH   1  35
ATOM     34  C   UNL     1      -6.493   4.253 119.905  0.00  0.00    +0.000 C 
ATOM     35  O   UNL     1      -7.061   3.274 120.773  0.00  0.00    +0.000 OA
ENDBRANCH   1  35
TORSDOF 6
ENDMDL
MODEL 3
REMARK VINA RESULT:      -8.1      4.636      6.720
REMARK  Name = Betrixaban
REMARK  9 active torsions:
REMARK  status: ('A' for Active; 'I' for Inactive)
REMARK    1  A    between atoms: C_1  and  O_2
REMARK    2  A    between atoms: O_2  and  C_3
REMARK    3  A    between atoms: C_6  and  N_7
REMARK    4  A    between atoms: C_8  and  C_10
REMARK    5  A    between atoms: C_13  and  C_16
REMARK    6  A    between atoms: N_18  and  C_19
REMARK    7  A    between atoms: N_18  and  C_20
REMARK    8  A    between atoms: C_21  and  C_23
REMARK    9  A    between atoms: N_25  and  C_26
REMARK                            x       y       z     vdW  Elec       q    Type
REMARK                         _______ _______ _______ _____ _____    ______ ____
ROOT
ATOM      1  C   UNL     1      -7.423   4.262 134.584  0.00  0.00    +0.000 A 
ATOM      2  C   UNL     1      -6.756   3.092 134.228  0.00  0.00    +0.000 A 
ATOM      3  C   UNL     1      -7.119   2.399 133.063  0.00  0.00    +0.000 A 
ATOM      4  C   UNL     1      -8.184   2.854 132.260  0.00  0.00    +0.000 A 
ATOM      5  C   UNL     1      -8.803   4.086 132.588  0.00  0.00    +0.000 A 
ATOM      6  C   UNL     1      -8.441   4.748 133.769  0.00  0.00    +0.000 A 
ENDROOT
BRANCH   4   7
ATOM      7  N   UNL     1      -8.559   2.042 131.156  0.00  0.00    +0.000 N 
ATOM      8  C   UNL     1      -7.804   1.954 129.990  0.00  0.00    +0.000 C 
ATOM      9  O   UNL     1      -7.016   2.791 129.580  0.00  0.00    +0.000 OA
ATOM     10  H   UNL     1      -9.493   1.651 131.141  0.00  0.00    +0.000 HD
BRANCH   8  11
ATOM     11  C   UNL     1      -8.192   0.935 129.016  0.00  0.00    +0.000 A 
ATOM     12  C   UNL     1      -7.577  -0.320 128.913  0.00  0.00    +0.000 A 
ATOM     13  C   UNL     1      -7.620  -1.018 127.687  0.00  0.00    +0.000 A 
ATOM     14  C   UNL     1      -8.261  -0.461 126.567  0.00  0.00    +0.000 A 
ATOM     15  C   UNL     1      -8.691   0.859 126.708  0.00  0.00    +0.000 A 
ATOM     16  C   UNL     1      -8.778   1.514 127.918  0.00  0.00    +0.000 A 
BRANCH  14  17
ATOM     17  C   UNL     1      -8.504  -1.247 125.272  0.00  0.00    +0.000 C 
ATOM     18  N   UNL     1      -9.423  -2.174 125.252  0.00  0.00    +0.000 NA
ATOM     19  N   UNL     1      -7.854  -0.998 124.053  0.00  0.00    +0.000 N 
ATOM     20  C   UNL     1      -6.853   0.003 123.727  0.00  0.00    +0.000 C 
ATOM     21  C   UNL     1      -8.192  -1.782 122.857  0.00  0.00    +0.000 C 
ATOM     22  H   UNL     1      -9.919  -2.300 126.129  0.00  0.00    +0.000 HD
ENDBRANCH  14  17
ENDBRANCH   8  11
ENDBRANCH   4   7
BRANCH   5  23
ATOM     23  C   UNL     1      -9.652   4.840 131.604  0.00  0.00    +0.000 C 
ATOM     24  O   UNL     1     -10.371   4.212 130.830  0.00  0.00    +0.000 OA
ATOM     25  N   UNL     1      -9.519   6.230 131.549  0.00  0.00    +0.000 N 
ATOM     26  H   UNL     1      -8.589   6.533 131.313  0.00  0.00    +0.000 HD
BRANCH  25  27
ATOM     27  C   UNL     1     -10.506   6.906 130.812  0.00  0.00    +0.000 A 
ATOM     28  C   UNL     1     -10.123   7.494 129.610  0.00  0.00    +0.000 A 
ATOM     29  C   UNL     1     -11.039   8.259 128.900  0.00  0.00    +0.000 A 
ATOM     30  C   UNL     1     -12.311   8.425 129.423  0.00  0.00    +0.000 A 
ATOM     31 CL   UNL     1     -13.459   9.404 128.607  0.00  0.00    +0.000 Cl
ATOM     32  C   UNL     1     -12.624   7.772 130.611  0.00  0.00    +0.000 A 
ATOM     33  N   UNL     1     -11.762   6.972 131.302  0.00  0.00    +0.000 NA
ENDBRANCH  25  27
ENDBRANCH   5  23
BRANCH   1  35
ATOM     34  C   UNL     1      -5.693   5.638 135.425  0.00  0.00    +0.000 C 
ATOM     35  O   UNL     1      -6.923   4.954 135.655  0.00  0.00    +0.000 OA
ENDBRANCH   1  35
TORSDOF 6
ENDMDL
MODEL 4
REMARK VINA RESULT:      -8.0      4.453      9.809
REMARK  Name = Betrixaban
REMARK  9 active torsions:
REMARK  status: ('A' for Active; 'I' for Inactive)
REMARK    1  A    between atoms: C_1  and  O_2
REMARK    2  A    between atoms: O_2  and  C_3
REMARK    3  A    between atoms: C_6  and  N_7
REMARK    4  A    between atoms: C_8  and  C_10
REMARK    5  A    between atoms: C_13  and  C_16
REMARK    6  A    between atoms: N_18  and  C_19
REMARK    7  A    between atoms: N_18  and  C_20
REMARK    8  A    between atoms: C_21  and  C_23
REMARK    9  A    between atoms: N_25  and  C_26
REMARK                            x       y       z     vdW  Elec       q    Type
REMARK                         _______ _______ _______ _____ _____    ______ ____
ROOT
ATOM      1  C   UNL     1      -6.330  -3.780 132.557  0.00  0.00    +0.000 A 
ATOM      2  C   UNL     1      -6.976  -3.131 133.608  0.00  0.00    +0.000 A 
ATOM      3  C   UNL     1      -7.748  -1.986 133.362  0.00  0.00    +0.000 A 
ATOM      4  C   UNL     1      -7.850  -1.456 132.060  0.00  0.00    +0.000 A 
ATOM      5  C   UNL     1      -7.256  -2.168 130.989  0.00  0.00    +0.000 A 
ATOM      6  C   UNL     1      -6.469  -3.294 131.261  0.00  0.00    +0.000 A 
ENDROOT
BRANCH   4   7
ATOM      7  N   UNL     1      -8.564  -0.237 131.908  0.00  0.00    +0.000 N 
ATOM      8  C   UNL     1      -8.105   0.977 132.411  0.00  0.00    +0.000 C 
ATOM      9  O   UNL     1      -7.326   1.122 133.339  0.00  0.00    +0.000 OA
ATOM     10  H   UNL     1      -9.521  -0.277 131.579  0.00  0.00    +0.000 HD
BRANCH   8  11
ATOM     11  C   UNL     1      -8.830   2.183 132.014  0.00  0.00    +0.000 A 
ATOM     12  C   UNL     1     -10.059   2.169 131.339  0.00  0.00    +0.000 A 
ATOM     13  C   UNL     1     -10.433   3.279 130.551  0.00  0.00    +0.000 A 
ATOM     14  C   UNL     1      -9.581   4.390 130.426  0.00  0.00    +0.000 A 
ATOM     15  C   UNL     1      -8.311   4.246 130.985  0.00  0.00    +0.000 A 
ATOM     16  C   UNL     1      -7.966   3.239 131.862  0.00  0.00    +0.000 A 
BRANCH  14  17
ATOM     17  C   UNL     1     -10.012   5.694 129.743  0.00  0.00    +0.000 C 
ATOM     18  N   UNL     1      -9.603   5.942 128.528  0.00  0.00    +0.000 NA
ATOM     19  N   UNL     1     -10.891   6.634 130.300  0.00  0.00    +0.000 N 
ATOM     20  C   UNL     1     -11.575   6.614 131.582  0.00  0.00    +0.000 C 
ATOM     21  C   UNL     1     -11.275   7.833 129.542  0.00  0.00    +0.000 C 
ATOM     22  H   UNL     1      -9.012   5.222 128.123  0.00  0.00    +0.000 HD
ENDBRANCH  14  17
ENDBRANCH   8  11
ENDBRANCH   4   7
BRANCH   5  23
ATOM     23  C   UNL     1      -7.632  -1.915 129.556  0.00  0.00    +0.000 C 
ATOM     24  O   UNL     1      -7.865  -0.764 129.193  0.00  0.00    +0.000 OA
ATOM     25  N   UNL     1      -7.790  -3.019 128.713  0.00  0.00    +0.000 N 
ATOM     26  H   UNL     1      -8.507  -3.655 129.018  0.00  0.00    +0.000 HD
BRANCH  25  27
ATOM     27  C   UNL     1      -7.882  -2.726 127.341  0.00  0.00    +0.000 A 
ATOM     28  C   UNL     1      -9.090  -2.992 126.705  0.00  0.00    +0.000 A 
ATOM     29  C   UNL     1      -9.195  -2.816 125.332  0.00  0.00    +0.000 A 
ATOM     30  C   UNL     1      -8.078  -2.392 124.631  0.00  0.00    +0.000 A 
ATOM     31 CL   UNL     1      -8.144  -2.212 122.926  0.00  0.00    +0.000 Cl
ATOM     32  C   UNL     1      -6.919  -2.113 125.348  0.00  0.00    +0.000 A 
ATOM     33  N   UNL     1      -6.803  -2.225 126.702  0.00  0.00    +0.000 NA
ENDBRANCH  25  27
ENDBRANCH   5  23
BRANCH   1  35
ATOM     34  C   UNL     1      -4.291  -4.968 132.716  0.00  0.00    +0.000 C 
ATOM     35  O   UNL     1      -5.710  -4.965 132.854  0.00  0.00    +0.000 OA
ENDBRANCH   1  35
TORSDOF 6
ENDMDL
MODEL 5
REMARK VINA RESULT:      -8.0      5.688      6.708
REMARK  Name = Betrixaban
REMARK  9 active torsions:
REMARK  status: ('A' for Active; 'I' for Inactive)
REMARK    1  A    between atoms: C_1  and  O_2
REMARK    2  A    between atoms: O_2  and  C_3
REMARK    3  A    between atoms: C_6  and  N_7
REMARK    4  A    between atoms: C_8  and  C_10
REMARK    5  A    between atoms: C_13  and  C_16
REMARK    6  A    between atoms: N_18  and  C_19
REMARK    7  A    between atoms: N_18  and  C_20
REMARK    8  A    between atoms: C_21  and  C_23
REMARK    9  A    between atoms: N_25  and  C_26
REMARK                            x       y       z     vdW  Elec       q    Type
REMARK                         _______ _______ _______ _____ _____    ______ ____
ROOT
ATOM      1  C   UNL     1      -8.735   2.648 122.462  0.00  0.00    +0.000 A 
ATOM      2  C   UNL     1      -9.571   1.535 122.530  0.00  0.00    +0.000 A 
ATOM      3  C   UNL     1      -9.447   0.623 123.590  0.00  0.00    +0.000 A 
ATOM      4  C   UNL     1      -8.455   0.799 124.575  0.00  0.00    +0.000 A 
ATOM      5  C   UNL     1      -7.665   1.975 124.540  0.00  0.00    +0.000 A 
ATOM      6  C   UNL     1      -7.788   2.858 123.459  0.00  0.00    +0.000 A 
ENDROOT
BRANCH   4   7
ATOM      7  N   UNL     1      -8.325  -0.220 125.556  0.00  0.00    +0.000 N 
ATOM      8  C   UNL     1      -7.702  -1.439 125.304  0.00  0.00    +0.000 C 
ATOM      9  O   UNL     1      -7.565  -1.963 124.211  0.00  0.00    +0.000 OA
ATOM     10  H   UNL     1      -8.855  -0.132 126.414  0.00  0.00    +0.000 HD
BRANCH   8  11
ATOM     11  C   UNL     1      -7.457  -2.315 126.449  0.00  0.00    +0.000 A 
ATOM     12  C   UNL     1      -8.474  -2.909 127.208  0.00  0.00    +0.000 A 
ATOM     13  C   UNL     1      -8.216  -3.287 128.544  0.00  0.00    +0.000 A 
ATOM     14  C   UNL     1      -6.955  -3.059 129.122  0.00  0.00    +0.000 A 
ATOM     15  C   UNL     1      -6.063  -2.308 128.357  0.00  0.00    +0.000 A 
ATOM     16  C   UNL     1      -6.237  -2.041 127.016  0.00  0.00    +0.000 A 
BRANCH  14  17
ATOM     17  C   UNL     1      -6.560  -3.615 130.496  0.00  0.00    +0.000 C 
ATOM     18  N   UNL     1      -5.825  -4.692 130.561  0.00  0.00    +0.000 NA
ATOM     19  N   UNL     1      -6.868  -3.005 131.722  0.00  0.00    +0.000 N 
ATOM     20  C   UNL     1      -7.591  -1.774 131.986  0.00  0.00    +0.000 C 
ATOM     21  C   UNL     1      -6.403  -3.598 132.985  0.00  0.00    +0.000 C 
ATOM     22  H   UNL     1      -5.567  -5.085 129.661  0.00  0.00    +0.000 HD
ENDBRANCH  14  17
ENDBRANCH   8  11
ENDBRANCH   4   7
BRANCH   5  23
ATOM     23  C   UNL     1      -6.876   2.443 125.730  0.00  0.00    +0.000 C 
ATOM     24  O   UNL     1      -6.412   1.610 126.505  0.00  0.00    +0.000 OA
ATOM     25  N   UNL     1      -6.782   3.819 125.957  0.00  0.00    +0.000 N 
ATOM     26  H   UNL     1      -7.674   4.263 126.097  0.00  0.00    +0.000 HD
BRANCH  25  27
ATOM     27  C   UNL     1      -5.832   4.212 126.915  0.00  0.00    +0.000 A 
ATOM     28  C   UNL     1      -4.496   4.241 126.524  0.00  0.00    +0.000 A 
ATOM     29  C   UNL     1      -3.514   4.523 127.464  0.00  0.00    +0.000 A 
ATOM     30  C   UNL     1      -3.897   4.753 128.775  0.00  0.00    +0.000 A 
ATOM     31 CL   UNL     1      -2.714   5.052 129.981  0.00  0.00    +0.000 Cl
ATOM     32  C   UNL     1      -5.255   4.741 129.075  0.00  0.00    +0.000 A 
ATOM     33  N   UNL     1      -6.245   4.520 128.162  0.00  0.00    +0.000 NA
ENDBRANCH  25  27
ENDBRANCH   5  23
BRANCH   1  35
ATOM     34  C   UNL     1      -7.924   3.855 120.597  0.00  0.00    +0.000 C 
ATOM     35  O   UNL     1      -9.006   3.561 121.478  0.00  0.00    +0.000 OA
ENDBRANCH   1  35
TORSDOF 6
ENDMDL
MODEL 6
REMARK VINA RESULT:      -8.0      5.371      6.330
REMARK  Name = Betrixaban
REMARK  9 active torsions:
REMARK  status: ('A' for Active; 'I' for Inactive)
REMARK    1  A    between atoms: C_1  and  O_2
REMARK    2  A    between atoms: O_2  and  C_3
REMARK    3  A    between atoms: C_6  and  N_7
REMARK    4  A    between atoms: C_8  and  C_10
REMARK    5  A    between atoms: C_13  and  C_16
REMARK    6  A    between atoms: N_18  and  C_19
REMARK    7  A    between atoms: N_18  and  C_20
REMARK    8  A    between atoms: C_21  and  C_23
REMARK    9  A    between atoms: N_25  and  C_26
REMARK                            x       y       z     vdW  Elec       q    Type
REMARK                         _______ _______ _______ _____ _____    ______ ____
ROOT
ATOM      1  C   UNL     1      -5.740   4.102 122.113  0.00  0.00    +0.000 A 
ATOM      2  C   UNL     1      -6.680   3.074 122.104  0.00  0.00    +0.000 A 
ATOM      3  C   UNL     1      -6.986   2.387 123.288  0.00  0.00    +0.000 A 
ATOM      4  C   UNL     1      -6.323   2.699 124.491  0.00  0.00    +0.000 A 
ATOM      5  C   UNL     1      -5.428   3.798 124.507  0.00  0.00    +0.000 A 
ATOM      6  C   UNL     1      -5.118   4.454 123.308  0.00  0.00    +0.000 A 
ENDROOT
BRANCH   4   7
ATOM      7  N   UNL     1      -6.612   1.891 125.623  0.00  0.00    +0.000 N 
ATOM      8  C   UNL     1      -7.797   1.996 126.345  0.00  0.00    +0.000 C 
ATOM      9  O   UNL     1      -8.519   2.978 126.402  0.00  0.00    +0.000 OA
ATOM     10  H   UNL     1      -5.864   1.341 126.026  0.00  0.00    +0.000 HD
BRANCH   8  11
ATOM     11  C   UNL     1      -8.056   0.974 127.359  0.00  0.00    +0.000 A 
ATOM     12  C   UNL     1      -8.179   1.247 128.728  0.00  0.00    +0.000 A 
ATOM     13  C   UNL     1      -7.909   0.228 129.667  0.00  0.00    +0.000 A 
ATOM     14  C   UNL     1      -7.506  -1.050 129.243  0.00  0.00    +0.000 A 
ATOM     15  C   UNL     1      -7.242  -1.182 127.880  0.00  0.00    +0.000 A 
ATOM     16  C   UNL     1      -7.616  -0.254 126.931  0.00  0.00    +0.000 A 
BRANCH  14  17
ATOM     17  C   UNL     1      -7.383  -2.242 130.201  0.00  0.00    +0.000 C 
ATOM     18  N   UNL     1      -8.175  -3.269 130.045  0.00  0.00    +0.000 NA
ATOM     19  N   UNL     1      -6.417  -2.358 131.212  0.00  0.00    +0.000 N 
ATOM     20  C   UNL     1      -5.356  -1.440 131.585  0.00  0.00    +0.000 C 
ATOM     21  C   UNL     1      -6.358  -3.565 132.049  0.00  0.00    +0.000 C 
ATOM     22  H   UNL     1      -8.830  -3.188 129.273  0.00  0.00    +0.000 HD
ENDBRANCH  14  17
ENDBRANCH   8  11
ENDBRANCH   4   7
BRANCH   5  23
ATOM     23  C   UNL     1      -4.986   4.449 125.787  0.00  0.00    +0.000 C 
ATOM     24  O   UNL     1      -5.689   5.324 126.288  0.00  0.00    +0.000 OA
ATOM     25  N   UNL     1      -3.739   4.094 126.309  0.00  0.00    +0.000 N 
ATOM     26  H   UNL     1      -2.974   4.293 125.686  0.00  0.00    +0.000 HD
BRANCH  25  27
ATOM     27  C   UNL     1      -3.486   4.524 127.623  0.00  0.00    +0.000 A 
ATOM     28  C   UNL     1      -2.693   5.656 127.788  0.00  0.00    +0.000 A 
ATOM     29  C   UNL     1      -2.332   6.057 129.068  0.00  0.00    +0.000 A 
ATOM     30  C   UNL     1      -2.764   5.302 130.146  0.00  0.00    +0.000 A 
ATOM     31 CL   UNL     1      -2.299   5.729 131.741  0.00  0.00    +0.000 Cl
ATOM     32  C   UNL     1      -3.584   4.207 129.895  0.00  0.00    +0.000 A 
ATOM     33  N   UNL     1      -3.998   3.821 128.654  0.00  0.00    +0.000 NA
ENDBRANCH  25  27
ENDBRANCH   5  23
BRANCH   1  35
ATOM     34  C   UNL     1      -6.390   4.371 119.855  0.00  0.00    +0.000 C 
ATOM     35  O   UNL     1      -5.595   4.815 120.953  0.00  0.00    +0.000 OA
ENDBRANCH   1  35
TORSDOF 6
ENDMDL
MODEL 7
REMARK VINA RESULT:      -7.9      5.540      6.453
REMARK  Name = Betrixaban
REMARK  9 active torsions:
REMARK  status: ('A' for Active; 'I' for Inactive)
REMARK    1  A    between atoms: C_1  and  O_2
REMARK    2  A    between atoms: O_2  and  C_3
REMARK    3  A    between atoms: C_6  and  N_7
REMARK    4  A    between atoms: C_8  and  C_10
REMARK    5  A    between atoms: C_13  and  C_16
REMARK    6  A    between atoms: N_18  and  C_19
REMARK    7  A    between atoms: N_18  and  C_20
REMARK    8  A    between atoms: C_21  and  C_23
REMARK    9  A    between atoms: N_25  and  C_26
REMARK                            x       y       z     vdW  Elec       q    Type
REMARK                         _______ _______ _______ _____ _____    ______ ____
ROOT
ATOM      1  C   UNL     1      -6.010   3.789 122.581  0.00  0.00    +0.000 A 
ATOM      2  C   UNL     1      -6.862   2.698 122.734  0.00  0.00    +0.000 A 
ATOM      3  C   UNL     1      -6.955   2.044 123.972  0.00  0.00    +0.000 A 
ATOM      4  C   UNL     1      -6.162   2.455 125.062  0.00  0.00    +0.000 A 
ATOM      5  C   UNL     1      -5.360   3.615 124.918  0.00  0.00    +0.000 A 
ATOM      6  C   UNL     1      -5.264   4.237 123.667  0.00  0.00    +0.000 A 
ENDROOT
BRANCH   4   7
ATOM      7  N   UNL     1      -6.236   1.679 126.250  0.00  0.00    +0.000 N 
ATOM      8  C   UNL     1      -5.509   0.506 126.434  0.00  0.00    +0.000 C 
ATOM      9  O   UNL     1      -5.073  -0.214 125.551  0.00  0.00    +0.000 OA
ATOM     10  H   UNL     1      -6.970   1.886 126.915  0.00  0.00    +0.000 HD
BRANCH   8  11
ATOM     11  C   UNL     1      -5.520  -0.085 127.771  0.00  0.00    +0.000 A 
ATOM     12  C   UNL     1      -5.154   0.607 128.933  0.00  0.00    +0.000 A 
ATOM     13  C   UNL     1      -4.692  -0.114 130.056  0.00  0.00    +0.000 A 
ATOM     14  C   UNL     1      -4.584  -1.515 130.015  0.00  0.00    +0.000 A 
ATOM     15  C   UNL     1      -4.801  -2.103 128.769  0.00  0.00    +0.000 A 
ATOM     16  C   UNL     1      -5.373  -1.448 127.698  0.00  0.00    +0.000 A 
BRANCH  14  17
ATOM     17  C   UNL     1      -4.273  -2.361 131.256  0.00  0.00    +0.000 C 
ATOM     18  N   UNL     1      -3.045  -2.415 131.698  0.00  0.00    +0.000 NA
ATOM     19  N   UNL     1      -5.233  -3.041 132.020  0.00  0.00    +0.000 N 
ATOM     20  C   UNL     1      -6.673  -3.113 131.843  0.00  0.00    +0.000 C 
ATOM     21  C   UNL     1      -4.834  -3.790 133.220  0.00  0.00    +0.000 C 
ATOM     22  H   UNL     1      -2.376  -1.870 131.162  0.00  0.00    +0.000 HD
ENDBRANCH  14  17
ENDBRANCH   8  11
ENDBRANCH   4   7
BRANCH   5  23
ATOM     23  C   UNL     1      -4.802   4.351 126.102  0.00  0.00    +0.000 C 
ATOM     24  O   UNL     1      -5.448   5.275 126.592  0.00  0.00    +0.000 OA
ATOM     25  N   UNL     1      -3.519   4.012 126.544  0.00  0.00    +0.000 N 
ATOM     26  H   UNL     1      -2.808   4.149 125.845  0.00  0.00    +0.000 HD
BRANCH  25  27
ATOM     27  C   UNL     1      -3.150   4.535 127.795  0.00  0.00    +0.000 A 
ATOM     28  C   UNL     1      -3.518   3.816 128.928  0.00  0.00    +0.000 A 
ATOM     29  C   UNL     1      -3.266   4.345 130.187  0.00  0.00    +0.000 A 
ATOM     30  C   UNL     1      -2.664   5.590 130.274  0.00  0.00    +0.000 A 
ATOM     31 CL   UNL     1      -2.382   6.308 131.806  0.00  0.00    +0.000 Cl
ATOM     32  C   UNL     1      -2.295   6.226 129.093  0.00  0.00    +0.000 A 
ATOM     33  N   UNL     1      -2.481   5.706 127.846  0.00  0.00    +0.000 NA
ENDBRANCH  25  27
ENDBRANCH   5  23
BRANCH   1  35
ATOM     34  C   UNL     1      -7.031   3.958 120.454  0.00  0.00    +0.000 C 
ATOM     35  O   UNL     1      -6.077   4.459 121.388  0.00  0.00    +0.000 OA
ENDBRANCH   1  35
TORSDOF 6
ENDMDL
MODEL 8
REMARK VINA RESULT:      -7.9      5.926      7.710
REMARK  Name = Betrixaban
REMARK  9 active torsions:
REMARK  status: ('A' for Active; 'I' for Inactive)
REMARK    1  A    between atoms: C_1  and  O_2
REMARK    2  A    between atoms: O_2  and  C_3
REMARK    3  A    between atoms: C_6  and  N_7
REMARK    4  A    between atoms: C_8  and  C_10
REMARK    5  A    between atoms: C_13  and  C_16
REMARK    6  A    between atoms: N_18  and  C_19
REMARK    7  A    between atoms: N_18  and  C_20
REMARK    8  A    between atoms: C_21  and  C_23
REMARK    9  A    between atoms: N_25  and  C_26
REMARK                            x       y       z     vdW  Elec       q    Type
REMARK                         _______ _______ _______ _____ _____    ______ ____
ROOT
ATOM      1  C   UNL     1      -8.946  -2.178 125.062  0.00  0.00    +0.000 A 
ATOM      2  C   UNL     1      -9.376  -3.209 125.895  0.00  0.00    +0.000 A 
ATOM      3  C   UNL     1      -8.719  -3.455 127.110  0.00  0.00    +0.000 A 
ATOM      4  C   UNL     1      -7.596  -2.691 127.486  0.00  0.00    +0.000 A 
ATOM      5  C   UNL     1      -7.217  -1.596 126.671  0.00  0.00    +0.000 A 
ATOM      6  C   UNL     1      -7.871  -1.384 125.451  0.00  0.00    +0.000 A 
ENDROOT
BRANCH   4   7
ATOM      7  N   UNL     1      -6.923  -3.068 128.679  0.00  0.00    +0.000 N 
ATOM      8  C   UNL     1      -7.375  -2.715 129.947  0.00  0.00    +0.000 C 
ATOM      9  O   UNL     1      -8.093  -1.766 130.216  0.00  0.00    +0.000 OA
ATOM     10  H   UNL     1      -5.990  -3.455 128.604  0.00  0.00    +0.000 HD
BRANCH   8  11
ATOM     11  C   UNL     1      -6.707  -3.333 131.092  0.00  0.00    +0.000 A 
ATOM     12  C   UNL     1      -6.300  -2.626 132.232  0.00  0.00    +0.000 A 
ATOM     13  C   UNL     1      -5.246  -3.131 133.025  0.00  0.00    +0.000 A 
ATOM     14  C   UNL     1      -4.594  -4.325 132.674  0.00  0.00    +0.000 A 
ATOM     15  C   UNL     1      -4.943  -4.867 131.437  0.00  0.00    +0.000 A 
ATOM     16  C   UNL     1      -6.046  -4.474 130.709  0.00  0.00    +0.000 A 
BRANCH  14  17
ATOM     17  C   UNL     1      -3.577  -5.017 133.592  0.00  0.00    +0.000 C 
ATOM     18  N   UNL     1      -2.302  -4.836 133.381  0.00  0.00    +0.000 NA
ATOM     19  N   UNL     1      -3.912  -5.790 134.714  0.00  0.00    +0.000 N 
ATOM     20  C   UNL     1      -5.220  -6.111 135.259  0.00  0.00    +0.000 C 
ATOM     21  C   UNL     1      -2.858  -6.374 135.555  0.00  0.00    +0.000 C 
ATOM     22  H   UNL     1      -2.082  -4.228 132.597  0.00  0.00    +0.000 HD
ENDBRANCH  14  17
ENDBRANCH   8  11
ENDBRANCH   4   7
BRANCH   5  23
ATOM     23  C   UNL     1      -6.312  -0.505 127.170  0.00  0.00    +0.000 C 
ATOM     24  O   UNL     1      -5.281  -0.809 127.766  0.00  0.00    +0.000 OA
ATOM     25  N   UNL     1      -6.730   0.820 127.013  0.00  0.00    +0.000 N 
ATOM     26  H   UNL     1      -7.597   1.023 127.482  0.00  0.00    +0.000 HD
BRANCH  25  27
ATOM     27  C   UNL     1      -5.749   1.798 127.252  0.00  0.00    +0.000 A 
ATOM     28  C   UNL     1      -4.835   2.056 126.234  0.00  0.00    +0.000 A 
ATOM     29  C   UNL     1      -3.787   2.938 126.463  0.00  0.00    +0.000 A 
ATOM     30  C   UNL     1      -3.675   3.525 127.713  0.00  0.00    +0.000 A 
ATOM     31 CL   UNL     1      -2.367   4.579 128.058  0.00  0.00    +0.000 Cl
ATOM     32  C   UNL     1      -4.651   3.241 128.663  0.00  0.00    +0.000 A 
ATOM     33  N   UNL     1      -5.720   2.421 128.449  0.00  0.00    +0.000 NA
ENDBRANCH  25  27
ENDBRANCH   5  23
BRANCH   1  35
ATOM     34  C   UNL     1      -9.029  -1.359 122.845  0.00  0.00    +0.000 C 
ATOM     35  O   UNL     1      -9.719  -1.912 123.964  0.00  0.00    +0.000 OA
ENDBRANCH   1  35
TORSDOF 6
ENDMDL
MODEL 9
REMARK VINA RESULT:      -7.7      4.614      9.392
REMARK  Name = Betrixaban
REMARK  9 active torsions:
REMARK  status: ('A' for Active; 'I' for Inactive)
REMARK    1  A    between atoms: C_1  and  O_2
REMARK    2  A    between atoms: O_2  and  C_3
REMARK    3  A    between atoms: C_6  and  N_7
REMARK    4  A    between atoms: C_8  and  C_10
REMARK    5  A    between atoms: C_13  and  C_16
REMARK    6  A    between atoms: N_18  and  C_19
REMARK    7  A    between atoms: N_18  and  C_20
REMARK    8  A    between atoms: C_21  and  C_23
REMARK    9  A    between atoms: N_25  and  C_26
REMARK                            x       y       z     vdW  Elec       q    Type
REMARK                         _______ _______ _______ _____ _____    ______ ____
ROOT
ATOM      1  C   UNL     1      -6.949  -1.339 124.728  0.00  0.00    +0.000 A 
ATOM      2  C   UNL     1      -7.463  -0.052 124.589  0.00  0.00    +0.000 A 
ATOM      3  C   UNL     1      -7.826   0.689 125.724  0.00  0.00    +0.000 A 
ATOM      4  C   UNL     1      -7.713   0.129 127.013  0.00  0.00    +0.000 A 
ATOM      5  C   UNL     1      -7.115  -1.148 127.147  0.00  0.00    +0.000 A 
ATOM      6  C   UNL     1      -6.783  -1.880 126.000  0.00  0.00    +0.000 A 
ENDROOT
BRANCH   4   7
ATOM      7  N   UNL     1      -8.198   0.901 128.102  0.00  0.00    +0.000 N 
ATOM      8  C   UNL     1      -7.626   2.110 128.487  0.00  0.00    +0.000 C 
ATOM      9  O   UNL     1      -6.479   2.463 128.270  0.00  0.00    +0.000 OA
ATOM     10  H   UNL     1      -8.870   0.479 128.730  0.00  0.00    +0.000 HD
BRANCH   8  11
ATOM     11  C   UNL     1      -8.340   2.900 129.490  0.00  0.00    +0.000 A 
ATOM     12  C   UNL     1      -9.437   2.423 130.222  0.00  0.00    +0.000 A 
ATOM     13  C   UNL     1     -10.370   3.340 130.753  0.00  0.00    +0.000 A 
ATOM     14  C   UNL     1     -10.217   4.722 130.544  0.00  0.00    +0.000 A 
ATOM     15  C   UNL     1      -9.202   5.093 129.662  0.00  0.00    +0.000 A 
ATOM     16  C   UNL     1      -8.205   4.242 129.235  0.00  0.00    +0.000 A 
BRANCH  14  17
ATOM     17  C   UNL     1     -11.086   5.770 131.251  0.00  0.00    +0.000 C 
ATOM     18  N   UNL     1     -10.841   6.064 132.499  0.00  0.00    +0.000 NA
ATOM     19  N   UNL     1     -12.102   6.513 130.632  0.00  0.00    +0.000 N 
ATOM     20  C   UNL     1     -12.561   6.483 129.254  0.00  0.00    +0.000 C 
ATOM     21  C   UNL     1     -12.849   7.527 131.390  0.00  0.00    +0.000 C 
ATOM     22  H   UNL     1     -10.065   5.554 132.912  0.00  0.00    +0.000 HD
ENDBRANCH  14  17
ENDBRANCH   8  11
ENDBRANCH   4   7
BRANCH   5  23
ATOM     23  C   UNL     1      -6.595  -1.652 128.464  0.00  0.00    +0.000 C 
ATOM     24  O   UNL     1      -5.908  -0.908 129.160  0.00  0.00    +0.000 OA
ATOM     25  N   UNL     1      -6.842  -2.986 128.802  0.00  0.00    +0.000 N 
ATOM     26  H   UNL     1      -6.451  -3.642 128.147  0.00  0.00    +0.000 HD
BRANCH  25  27
ATOM     27  C   UNL     1      -6.569  -3.334 130.137  0.00  0.00    +0.000 A 
ATOM     28  C   UNL     1      -5.548  -4.251 130.368  0.00  0.00    +0.000 A 
ATOM     29  C   UNL     1      -5.313  -4.702 131.660  0.00  0.00    +0.000 A 
ATOM     30  C   UNL     1      -6.120  -4.232 132.683  0.00  0.00    +0.000 A 
ATOM     31 CL   UNL     1      -5.901  -4.801 134.287  0.00  0.00    +0.000 Cl
ATOM     32  C   UNL     1      -7.094  -3.289 132.372  0.00  0.00    +0.000 A 
ATOM     33  N   UNL     1      -7.312  -2.788 131.122  0.00  0.00    +0.000 NA
ENDBRANCH  25  27
ENDBRANCH   5  23
BRANCH   1  35
ATOM     34  C   UNL     1      -5.380  -2.824 123.764  0.00  0.00    +0.000 C 
ATOM     35  O   UNL     1      -6.489  -1.945 123.589  0.00  0.00    +0.000 OA
ENDBRANCH   1  35
TORSDOF 6
ENDMDL
