MODEL 1
REMARK VINA RESULT:      -9.2      0.000      0.000
REMARK  Name = Betulinic Acid
REMARK  10 active torsions:
REMARK  status: ('A' for Active; 'I' for Inactive)
REMARK    1  A    between atoms: O_2  and  C_3
REMARK    2  A    between atoms: C_3  and  C_5
REMARK    3  A    between atoms: C_8  and  C_10
REMARK    4  A    between atoms: C_10  and  C_11
REMARK    5  A    between atoms: C_21  and  C_22
REMARK    6  A    between atoms: C_25  and  O_27
REMARK    7  A    between atoms: C_29  and  C_30
REMARK    8  A    between atoms: C_29  and  C_31
REMARK    9  A    between atoms: C_36  and  C_37
REMARK   10  A    between atoms: C_38  and  C_39
REMARK                            x       y       z     vdW  Elec       q    Type
REMARK                         _______ _______ _______ _____ _____    ______ ____
ROOT
ATOM      1  C   UNL     1      -5.911  -1.753 132.293  0.00  0.00    +0.000 C 
ATOM      2  C   UNL     1      -4.670  -1.449 131.183  0.00  0.00    +0.000 C 
ATOM      3  C   UNL     1      -5.331  -2.381 130.342  0.00  0.00    +0.000 C 
ATOM      4  C   UNL     1      -5.973  -3.821 131.469  0.00  0.00    +0.000 C 
ATOM      5  C   UNL     1      -7.008  -2.790 131.858  0.00  0.00    +0.000 C 
ATOM      6  C   UNL     1      -7.889  -2.217 130.652  0.00  0.00    +0.000 C 
ATOM      7  C   UNL     1      -8.184  -3.263 129.450  0.00  0.00    +0.000 C 
ATOM      8  C   UNL     1      -7.239  -2.894 128.295  0.00  0.00    +0.000 C 
ATOM      9  C   UNL     1      -7.623  -1.101 128.226  0.00  0.00    +0.000 C 
ATOM     10  C   UNL     1      -7.538  -0.636 126.822  0.00  0.00    +0.000 C 
ATOM     11  C   UNL     1      -6.242  -1.638 126.336  0.00  0.00    +0.000 C 
ATOM     12  C   UNL     1      -8.538  -1.587 125.593  0.00  0.00    +0.000 C 
ATOM     13  C   UNL     1      -8.641  -0.428 124.710  0.00  0.00    +0.000 C 
ATOM     14  C   UNL     1      -9.291   0.391 125.723  0.00  0.00    +0.000 C 
ATOM     15  C   UNL     1      -8.270   1.608 125.666  0.00  0.00    +0.000 C 
ATOM     16  C   UNL     1      -8.651   2.537 124.551  0.00  0.00    +0.000 C 
ATOM     17  C   UNL     1      -6.723   1.874 125.737  0.00  0.00    +0.000 C 
ATOM     18  C   UNL     1      -8.219   1.192 127.003  0.00  0.00    +0.000 C 
ATOM     19  C   UNL     1      -7.816   2.221 128.006  0.00  0.00    +0.000 C 
ATOM     20  C   UNL     1      -8.682   1.781 129.138  0.00  0.00    +0.000 C 
ATOM     21  C   UNL     1      -7.656   0.519 129.566  0.00  0.00    +0.000 C 
ATOM     22  C   UNL     1      -6.800   2.005 130.229  0.00  0.00    +0.000 C 
ATOM     23  C   UNL     1      -7.973  -0.307 130.788  0.00  0.00    +0.000 C 
ATOM     24  C   UNL     1      -9.122   0.662 131.573  0.00  0.00    +0.000 C 
ATOM     25  C   UNL     1      -6.807   0.208 131.744  0.00  0.00    +0.000 C 
ATOM     26  C   UNL     1      -6.888  -0.772 132.791  0.00  0.00    +0.000 C 
ENDROOT
BRANCH   4  27
ATOM     27  C   UNL     1      -5.585  -4.822 132.979  0.00  0.00    +0.000 C 
ATOM     28  C   UNL     1      -4.122  -5.481 133.292  0.00  0.00    +0.000 C 
ATOM     29  C   UNL     1      -6.302  -5.279 134.047  0.00  0.00    +0.000 C 
ENDBRANCH   4  27
BRANCH   1  30
ATOM     30  C   UNL     1      -5.096  -2.013 133.462  0.00  0.00    +0.000 C 
ATOM     31  O   UNL     1      -3.901  -2.137 133.393  0.00  0.00    +0.000 OA
BRANCH  30  33
ATOM     32  H   UNL     1      -6.737  -2.438 134.463  0.00  0.00    +0.000 HD
ATOM     33  O   UNL     1      -5.864  -2.054 134.586  0.00  0.00    +0.000 OA
ENDBRANCH  30  33
ENDBRANCH   1  30
BRANCH  14  34
ATOM     34  O   UNL     1     -10.691   0.413 125.594  0.00  0.00    +0.000 OA
ATOM     35  H   UNL     1     -10.899   1.208 126.142  0.00  0.00    +0.000 HD
ENDBRANCH  14  34
TORSDOF 4
ENDMDL
MODEL 2
REMARK VINA RESULT:      -9.2      2.713      5.642
REMARK  Name = Betulinic Acid
REMARK  10 active torsions:
REMARK  status: ('A' for Active; 'I' for Inactive)
REMARK    1  A    between atoms: O_2  and  C_3
REMARK    2  A    between atoms: C_3  and  C_5
REMARK    3  A    between atoms: C_8  and  C_10
REMARK    4  A    between atoms: C_10  and  C_11
REMARK    5  A    between atoms: C_21  and  C_22
REMARK    6  A    between atoms: C_25  and  O_27
REMARK    7  A    between atoms: C_29  and  C_30
REMARK    8  A    between atoms: C_29  and  C_31
REMARK    9  A    between atoms: C_36  and  C_37
REMARK   10  A    between atoms: C_38  and  C_39
REMARK                            x       y       z     vdW  Elec       q    Type
REMARK                         _______ _______ _______ _____ _____    ______ ____
ROOT
ATOM      1  C   UNL     1      -7.998   2.093 131.703  0.00  0.00    +0.000 C 
ATOM      2  C   UNL     1      -9.519   1.739 131.049  0.00  0.00    +0.000 C 
ATOM      3  C   UNL     1      -9.068   2.425 129.891  0.00  0.00    +0.000 C 
ATOM      4  C   UNL     1      -8.048   3.960 130.491  0.00  0.00    +0.000 C 
ATOM      5  C   UNL     1      -7.009   2.903 130.791  0.00  0.00    +0.000 C 
ATOM      6  C   UNL     1      -6.543   2.029 129.535  0.00  0.00    +0.000 C 
ATOM      7  C   UNL     1      -6.538   2.803 128.112  0.00  0.00    +0.000 C 
ATOM      8  C   UNL     1      -7.792   2.344 127.350  0.00  0.00    +0.000 C 
ATOM      9  C   UNL     1      -7.552   0.536 127.546  0.00  0.00    +0.000 C 
ATOM     10  C   UNL     1      -8.059  -0.159 126.340  0.00  0.00    +0.000 C 
ATOM     11  C   UNL     1      -9.377   0.882 126.025  0.00  0.00    +0.000 C 
ATOM     12  C   UNL     1      -7.393   0.438 124.724  0.00  0.00    +0.000 C 
ATOM     13  C   UNL     1      -7.614  -0.863 124.098  0.00  0.00    +0.000 C 
ATOM     14  C   UNL     1      -6.754  -1.558 125.046  0.00  0.00    +0.000 C 
ATOM     15  C   UNL     1      -7.820  -2.641 125.511  0.00  0.00    +0.000 C 
ATOM     16  C   UNL     1      -7.828  -3.791 124.548  0.00  0.00    +0.000 C 
ATOM     17  C   UNL     1      -9.297  -2.712 126.044  0.00  0.00    +0.000 C 
ATOM     18  C   UNL     1      -7.465  -1.990 126.700  0.00  0.00    +0.000 C 
ATOM     19  C   UNL     1      -7.628  -2.772 127.962  0.00  0.00    +0.000 C 
ATOM     20  C   UNL     1      -6.452  -2.239 128.708  0.00  0.00    +0.000 C 
ATOM     21  C   UNL     1      -7.237  -0.812 129.129  0.00  0.00    +0.000 C 
ATOM     22  C   UNL     1      -7.957  -2.050 130.283  0.00  0.00    +0.000 C 
ATOM     23  C   UNL     1      -6.538   0.176 130.029  0.00  0.00    +0.000 C 
ATOM     24  C   UNL     1      -5.274  -0.762 130.659  0.00  0.00    +0.000 C 
ATOM     25  C   UNL     1      -7.414  -0.024 131.344  0.00  0.00    +0.000 C 
ATOM     26  C   UNL     1      -6.981   1.112 132.111  0.00  0.00    +0.000 C 
ENDROOT
BRANCH   4  27
ATOM     27  C   UNL     1      -7.932   5.252 131.814  0.00  0.00    +0.000 C 
ATOM     28  C   UNL     1      -9.222   6.006 132.476  0.00  0.00    +0.000 C 
ATOM     29  C   UNL     1      -6.910   5.888 132.457  0.00  0.00    +0.000 C 
ENDBRANCH   4  27
BRANCH   1  30
ATOM     30  C   UNL     1      -8.431   2.647 132.969  0.00  0.00    +0.000 C 
ATOM     31  O   UNL     1      -7.649   3.006 133.811  0.00  0.00    +0.000 OA
BRANCH  30  33
ATOM     32  H   UNL     1     -10.149   2.873 133.904  0.00  0.00    +0.000 HD
ATOM     33  O   UNL     1      -9.790   2.720 133.024  0.00  0.00    +0.000 OA
ENDBRANCH  30  33
ENDBRANCH   1  30
BRANCH  14  34
ATOM     34  O   UNL     1      -5.452  -1.762 124.557  0.00  0.00    +0.000 OA
ATOM     35  H   UNL     1      -5.651  -2.340 123.781  0.00  0.00    +0.000 HD
ENDBRANCH  14  34
TORSDOF 4
ENDMDL
MODEL 3
REMARK VINA RESULT:      -9.0      2.358      7.977
REMARK  Name = Betulinic Acid
REMARK  10 active torsions:
REMARK  status: ('A' for Active; 'I' for Inactive)
REMARK    1  A    between atoms: O_2  and  C_3
REMARK    2  A    between atoms: C_3  and  C_5
REMARK    3  A    between atoms: C_8  and  C_10
REMARK    4  A    between atoms: C_10  and  C_11
REMARK    5  A    between atoms: C_21  and  C_22
REMARK    6  A    between atoms: C_25  and  O_27
REMARK    7  A    between atoms: C_29  and  C_30
REMARK    8  A    between atoms: C_29  and  C_31
REMARK    9  A    between atoms: C_36  and  C_37
REMARK   10  A    between atoms: C_38  and  C_39
REMARK                            x       y       z     vdW  Elec       q    Type
REMARK                         _______ _______ _______ _____ _____    ______ ____
ROOT
ATOM      1  C   UNL     1      -6.785   3.381 126.008  0.00  0.00    +0.000 C 
ATOM      2  C   UNL     1      -8.125   2.696 126.784  0.00  0.00    +0.000 C 
ATOM      3  C   UNL     1      -7.650   1.454 126.286  0.00  0.00    +0.000 C 
ATOM      4  C   UNL     1      -6.995   1.767 124.489  0.00  0.00    +0.000 C 
ATOM      5  C   UNL     1      -5.839   2.396 125.233  0.00  0.00    +0.000 C 
ATOM      6  C   UNL     1      -5.069   1.427 126.246  0.00  0.00    +0.000 C 
ATOM      7  C   UNL     1      -5.010  -0.132 125.807  0.00  0.00    +0.000 C 
ATOM      8  C   UNL     1      -6.057  -0.874 126.654  0.00  0.00    +0.000 C 
ATOM      9  C   UNL     1      -5.540  -0.240 128.296  0.00  0.00    +0.000 C 
ATOM     10  C   UNL     1      -5.758  -1.291 129.317  0.00  0.00    +0.000 C 
ATOM     11  C   UNL     1      -7.182  -1.956 128.647  0.00  0.00    +0.000 C 
ATOM     12  C   UNL     1      -4.998  -2.936 128.960  0.00  0.00    +0.000 C 
ATOM     13  C   UNL     1      -4.910  -3.257 130.382  0.00  0.00    +0.000 C 
ATOM     14  C   UNL     1      -4.075  -2.101 130.677  0.00  0.00    +0.000 C 
ATOM     15  C   UNL     1      -4.993  -1.493 131.823  0.00  0.00    +0.000 C 
ATOM     16  C   UNL     1      -4.678  -2.157 133.131  0.00  0.00    +0.000 C 
ATOM     17  C   UNL     1      -6.493  -1.092 132.067  0.00  0.00    +0.000 C 
ATOM     18  C   UNL     1      -4.913  -0.461 130.878  0.00  0.00    +0.000 C 
ATOM     19  C   UNL     1      -5.104   0.928 131.389  0.00  0.00    +0.000 C 
ATOM     20  C   UNL     1      -4.144   1.631 130.489  0.00  0.00    +0.000 C 
ATOM     21  C   UNL     1      -5.209   1.635 129.188  0.00  0.00    +0.000 C 
ATOM     22  C   UNL     1      -5.853   2.977 130.268  0.00  0.00    +0.000 C 
ATOM     23  C   UNL     1      -4.813   2.338 127.913  0.00  0.00    +0.000 C 
ATOM     24  C   UNL     1      -3.501   3.279 128.430  0.00  0.00    +0.000 C 
ATOM     25  C   UNL     1      -5.806   3.580 127.997  0.00  0.00    +0.000 C 
ATOM     26  C   UNL     1      -5.678   4.096 126.661  0.00  0.00    +0.000 C 
ENDROOT
BRANCH   4  27
ATOM     27  C   UNL     1      -7.275   2.756 122.948  0.00  0.00    +0.000 C 
ATOM     28  C   UNL     1      -8.736   2.971 122.248  0.00  0.00    +0.000 C 
ATOM     29  C   UNL     1      -6.472   3.420 122.065  0.00  0.00    +0.000 C 
ENDBRANCH   4  27
BRANCH   1  30
ATOM     30  C   UNL     1      -7.469   4.439 125.293  0.00  0.00    +0.000 C 
ATOM     31  O   UNL     1      -8.669   4.521 125.267  0.00  0.00    +0.000 OA
BRANCH  30  33
ATOM     32  H   UNL     1      -5.753   4.878 124.433  0.00  0.00    +0.000 HD
ATOM     33  O   UNL     1      -6.574   5.290 124.719  0.00  0.00    +0.000 OA
ENDBRANCH  30  33
ENDBRANCH   1  30
BRANCH  14  34
ATOM     34  O   UNL     1      -2.706  -2.411 130.721  0.00  0.00    +0.000 OA
ATOM     35  H   UNL     1      -2.576  -2.740 129.799  0.00  0.00    +0.000 HD
ENDBRANCH  14  34
TORSDOF 4
ENDMDL
MODEL 4
REMARK VINA RESULT:      -8.9      4.222      6.586
REMARK  Name = Betulinic Acid
REMARK  10 active torsions:
REMARK  status: ('A' for Active; 'I' for Inactive)
REMARK    1  A    between atoms: O_2  and  C_3
REMARK    2  A    between atoms: C_3  and  C_5
REMARK    3  A    between atoms: C_8  and  C_10
REMARK    4  A    between atoms: C_10  and  C_11
REMARK    5  A    between atoms: C_21  and  C_22
REMARK    6  A    between atoms: C_25  and  O_27
REMARK    7  A    between atoms: C_29  and  C_30
REMARK    8  A    between atoms: C_29  and  C_31
REMARK    9  A    between atoms: C_36  and  C_37
REMARK   10  A    between atoms: C_38  and  C_39
REMARK                            x       y       z     vdW  Elec       q    Type
REMARK                         _______ _______ _______ _____ _____    ______ ____
ROOT
ATOM      1  C   UNL     1      -4.409   4.463 127.515  0.00  0.00    +0.000 C 
ATOM      2  C   UNL     1      -3.326   3.309 126.913  0.00  0.00    +0.000 C 
ATOM      3  C   UNL     1      -3.913   2.419 127.850  0.00  0.00    +0.000 C 
ATOM      4  C   UNL     1      -4.236   3.423 129.476  0.00  0.00    +0.000 C 
ATOM      5  C   UNL     1      -5.374   3.995 128.662  0.00  0.00    +0.000 C 
ATOM      6  C   UNL     1      -6.431   2.924 128.118  0.00  0.00    +0.000 C 
ATOM      7  C   UNL     1      -6.671   1.638 129.074  0.00  0.00    +0.000 C 
ATOM      8  C   UNL     1      -5.893   0.467 128.450  0.00  0.00    +0.000 C 
ATOM      9  C   UNL     1      -6.542   0.622 126.741  0.00  0.00    +0.000 C 
ATOM     10  C   UNL     1      -6.648  -0.724 126.133  0.00  0.00    +0.000 C 
ATOM     11  C   UNL     1      -5.265  -1.407 126.868  0.00  0.00    +0.000 C 
ATOM     12  C   UNL     1      -7.599  -1.976 127.103  0.00  0.00    +0.000 C 
ATOM     13  C   UNL     1      -7.947  -2.718 125.894  0.00  0.00    +0.000 C 
ATOM     14  C   UNL     1      -8.622  -1.578 125.289  0.00  0.00    +0.000 C 
ATOM     15  C   UNL     1      -7.800  -1.572 123.928  0.00  0.00    +0.000 C 
ATOM     16  C   UNL     1      -8.408  -2.548 122.965  0.00  0.00    +0.000 C 
ATOM     17  C   UNL     1      -6.308  -1.581 123.433  0.00  0.00    +0.000 C 
ATOM     18  C   UNL     1      -7.573  -0.295 124.460  0.00  0.00    +0.000 C 
ATOM     19  C   UNL     1      -7.241   0.785 123.484  0.00  0.00    +0.000 C 
ATOM     20  C   UNL     1      -7.932   1.919 124.163  0.00  0.00    +0.000 C 
ATOM     21  C   UNL     1      -6.698   2.132 125.286  0.00  0.00    +0.000 C 
ATOM     22  C   UNL     1      -6.017   2.893 123.756  0.00  0.00    +0.000 C 
ATOM     23  C   UNL     1      -6.783   3.275 126.266  0.00  0.00    +0.000 C 
ATOM     24  C   UNL     1      -7.991   4.240 125.570  0.00  0.00    +0.000 C 
ATOM     25  C   UNL     1      -5.629   4.198 125.672  0.00  0.00    +0.000 C 
ATOM     26  C   UNL     1      -5.473   5.134 126.752  0.00  0.00    +0.000 C 
ENDROOT
BRANCH   4  27
ATOM     27  C   UNL     1      -3.575   4.782 130.548  0.00  0.00    +0.000 C 
ATOM     28  C   UNL     1      -4.500   5.946 131.228  0.00  0.00    +0.000 C 
ATOM     29  C   UNL     1      -2.332   5.178 130.951  0.00  0.00    +0.000 C 
ENDBRANCH   4  27
BRANCH   1  30
ATOM     30  C   UNL     1      -3.467   5.537 127.757  0.00  0.00    +0.000 C 
ATOM     31  O   UNL     1      -2.277   5.362 127.723  0.00  0.00    +0.000 OA
BRANCH  30  33
ATOM     32  H   UNL     1      -5.079   6.653 127.934  0.00  0.00    +0.000 HD
ATOM     33  O   UNL     1      -4.120   6.710 127.983  0.00  0.00    +0.000 OA
ENDBRANCH  30  33
ENDBRANCH   1  30
BRANCH  14  34
ATOM     34  O   UNL     1     -10.015  -1.604 125.472  0.00  0.00    +0.000 OA
ATOM     35  H   UNL     1     -10.080  -2.297 126.173  0.00  0.00    +0.000 HD
ENDBRANCH  14  34
TORSDOF 4
ENDMDL
MODEL 5
REMARK VINA RESULT:      -8.7      3.971      7.398
REMARK  Name = Betulinic Acid
REMARK  10 active torsions:
REMARK  status: ('A' for Active; 'I' for Inactive)
REMARK    1  A    between atoms: O_2  and  C_3
REMARK    2  A    between atoms: C_3  and  C_5
REMARK    3  A    between atoms: C_8  and  C_10
REMARK    4  A    between atoms: C_10  and  C_11
REMARK    5  A    between atoms: C_21  and  C_22
REMARK    6  A    between atoms: C_25  and  O_27
REMARK    7  A    between atoms: C_29  and  C_30
REMARK    8  A    between atoms: C_29  and  C_31
REMARK    9  A    between atoms: C_36  and  C_37
REMARK   10  A    between atoms: C_38  and  C_39
REMARK                            x       y       z     vdW  Elec       q    Type
REMARK                         _______ _______ _______ _____ _____    ______ ____
ROOT
ATOM      1  C   UNL     1      -7.160   0.216 126.934  0.00  0.00    +0.000 C 
ATOM      2  C   UNL     1      -5.572  -0.128 127.411  0.00  0.00    +0.000 C 
ATOM      3  C   UNL     1      -5.194   0.952 126.571  0.00  0.00    +0.000 C 
ATOM      4  C   UNL     1      -6.303   0.864 124.984  0.00  0.00    +0.000 C 
ATOM      5  C   UNL     1      -7.353   1.406 125.928  0.00  0.00    +0.000 C 
ATOM      6  C   UNL     1      -6.993   2.803 126.619  0.00  0.00    +0.000 C 
ATOM      7  C   UNL     1      -6.098   3.812 125.722  0.00  0.00    +0.000 C 
ATOM      8  C   UNL     1      -4.659   3.729 126.260  0.00  0.00    +0.000 C 
ATOM      9  C   UNL     1      -5.044   3.986 128.035  0.00  0.00    +0.000 C 
ATOM     10  C   UNL     1      -3.937   4.735 128.673  0.00  0.00    +0.000 C 
ATOM     11  C   UNL     1      -2.657   4.040 127.778  0.00  0.00    +0.000 C 
ATOM     12  C   UNL     1      -3.454   6.318 127.853  0.00  0.00    +0.000 C 
ATOM     13  C   UNL     1      -2.951   6.870 129.109  0.00  0.00    +0.000 C 
ATOM     14  C   UNL     1      -4.239   6.742 129.776  0.00  0.00    +0.000 C 
ATOM     15  C   UNL     1      -3.723   5.897 131.020  0.00  0.00    +0.000 C 
ATOM     16  C   UNL     1      -3.178   6.821 132.069  0.00  0.00    +0.000 C 
ATOM     17  C   UNL     1      -2.882   4.604 131.321  0.00  0.00    +0.000 C 
ATOM     18  C   UNL     1      -4.702   5.077 130.443  0.00  0.00    +0.000 C 
ATOM     19  C   UNL     1      -5.375   4.101 131.352  0.00  0.00    +0.000 C 
ATOM     20  C   UNL     1      -6.739   4.139 130.749  0.00  0.00    +0.000 C 
ATOM     21  C   UNL     1      -6.314   3.127 129.475  0.00  0.00    +0.000 C 
ATOM     22  C   UNL     1      -6.499   1.970 130.892  0.00  0.00    +0.000 C 
ATOM     23  C   UNL     1      -7.375   2.691 128.495  0.00  0.00    +0.000 C 
ATOM     24  C   UNL     1      -8.798   3.090 129.325  0.00  0.00    +0.000 C 
ATOM     25  C   UNL     1      -7.492   1.161 128.922  0.00  0.00    +0.000 C 
ATOM     26  C   UNL     1      -8.255   0.648 127.817  0.00  0.00    +0.000 C 
ENDROOT
BRANCH   4  27
ATOM     27  C   UNL     1      -7.148  -0.299 123.815  0.00  0.00    +0.000 C 
ATOM     28  C   UNL     1      -6.436  -1.612 123.152  0.00  0.00    +0.000 C 
ATOM     29  C   UNL     1      -8.375  -0.348 123.218  0.00  0.00    +0.000 C 
ENDBRANCH   4  27
BRANCH   1  30
ATOM     30  C   UNL     1      -7.566  -1.122 126.556  0.00  0.00    +0.000 C 
ATOM     31  O   UNL     1      -6.788  -2.041 126.524  0.00  0.00    +0.000 OA
BRANCH  30  33
ATOM     32  H   UNL     1      -9.152  -1.762 125.582  0.00  0.00    +0.000 HD
ATOM     33  O   UNL     1      -8.901  -1.166 126.293  0.00  0.00    +0.000 OA
ENDBRANCH  30  33
ENDBRANCH   1  30
BRANCH  14  34
ATOM     34  O   UNL     1      -4.980   7.936 129.773  0.00  0.00    +0.000 OA
ATOM     35  H   UNL     1      -4.848   8.214 128.835  0.00  0.00    +0.000 HD
ENDBRANCH  14  34
TORSDOF 4
ENDMDL
MODEL 6
REMARK VINA RESULT:      -8.4      6.769     10.653
REMARK  Name = Betulinic Acid
REMARK  10 active torsions:
REMARK  status: ('A' for Active; 'I' for Inactive)
REMARK    1  A    between atoms: O_2  and  C_3
REMARK    2  A    between atoms: C_3  and  C_5
REMARK    3  A    between atoms: C_8  and  C_10
REMARK    4  A    between atoms: C_10  and  C_11
REMARK    5  A    between atoms: C_21  and  C_22
REMARK    6  A    between atoms: C_25  and  O_27
REMARK    7  A    between atoms: C_29  and  C_30
REMARK    8  A    between atoms: C_29  and  C_31
REMARK    9  A    between atoms: C_36  and  C_37
REMARK   10  A    between atoms: C_38  and  C_39
REMARK                            x       y       z     vdW  Elec       q    Type
REMARK                         _______ _______ _______ _____ _____    ______ ____
ROOT
ATOM      1  C   UNL     1      -3.197   6.052 129.767  0.00  0.00    +0.000 C 
ATOM      2  C   UNL     1      -4.728   6.611 130.226  0.00  0.00    +0.000 C 
ATOM      3  C   UNL     1      -4.929   5.312 130.762  0.00  0.00    +0.000 C 
ATOM      4  C   UNL     1      -4.137   4.048 129.525  0.00  0.00    +0.000 C 
ATOM      5  C   UNL     1      -2.851   4.564 130.130  0.00  0.00    +0.000 C 
ATOM      6  C   UNL     1      -2.719   4.377 131.714  0.00  0.00    +0.000 C 
ATOM      7  C   UNL     1      -3.441   3.060 132.321  0.00  0.00    +0.000 C 
ATOM      8  C   UNL     1      -4.752   3.532 132.974  0.00  0.00    +0.000 C 
ATOM      9  C   UNL     1      -4.048   4.888 133.989  0.00  0.00    +0.000 C 
ATOM     10  C   UNL     1      -4.807   4.996 135.256  0.00  0.00    +0.000 C 
ATOM     11  C   UNL     1      -6.345   4.601 134.624  0.00  0.00    +0.000 C 
ATOM     12  C   UNL     1      -4.973   3.438 136.235  0.00  0.00    +0.000 C 
ATOM     13  C   UNL     1      -5.115   4.183 137.484  0.00  0.00    +0.000 C 
ATOM     14  C   UNL     1      -3.821   4.835 137.339  0.00  0.00    +0.000 C 
ATOM     15  C   UNL     1      -4.347   6.329 137.473  0.00  0.00    +0.000 C 
ATOM     16  C   UNL     1      -4.463   6.697 138.923  0.00  0.00    +0.000 C 
ATOM     17  C   UNL     1      -5.445   7.270 136.857  0.00  0.00    +0.000 C 
ATOM     18  C   UNL     1      -3.719   6.309 136.220  0.00  0.00    +0.000 C 
ATOM     19  C   UNL     1      -3.199   7.613 135.714  0.00  0.00    +0.000 C 
ATOM     20  C   UNL     1      -1.981   7.111 135.013  0.00  0.00    +0.000 C 
ATOM     21  C   UNL     1      -2.847   6.585 133.671  0.00  0.00    +0.000 C 
ATOM     22  C   UNL     1      -2.762   8.406 133.434  0.00  0.00    +0.000 C 
ATOM     23  C   UNL     1      -2.101   6.019 132.488  0.00  0.00    +0.000 C 
ATOM     24  C   UNL     1      -0.513   6.523 132.807  0.00  0.00    +0.000 C 
ATOM     25  C   UNL     1      -2.329   7.211 131.457  0.00  0.00    +0.000 C 
ATOM     26  C   UNL     1      -1.906   6.576 130.239  0.00  0.00    +0.000 C 
ENDROOT
BRANCH   4  27
ATOM     27  C   UNL     1      -3.818   3.715 127.731  0.00  0.00    +0.000 C 
ATOM     28  C   UNL     1      -4.935   3.895 126.551  0.00  0.00    +0.000 C 
ATOM     29  C   UNL     1      -2.761   3.238 127.009  0.00  0.00    +0.000 C 
ENDBRANCH   4  27
BRANCH   1  30
ATOM     30  C   UNL     1      -3.222   6.470 128.380  0.00  0.00    +0.000 C 
ATOM     31  O   UNL     1      -4.232   6.845 127.844  0.00  0.00    +0.000 OA
BRANCH  30  33
ATOM     32  H   UNL     1      -1.276   6.767 128.381  0.00  0.00    +0.000 HD
ATOM     33  O   UNL     1      -1.977   6.401 127.833  0.00  0.00    +0.000 OA
ENDBRANCH  30  33
ENDBRANCH   1  30
BRANCH  14  34
ATOM     34  O   UNL     1      -2.800   4.196 138.062  0.00  0.00    +0.000 OA
ATOM     35  H   UNL     1      -2.390   3.661 137.341  0.00  0.00    +0.000 HD
ENDBRANCH  14  34
TORSDOF 4
ENDMDL
MODEL 7
REMARK VINA RESULT:      -8.4      4.302      8.206
REMARK  Name = Betulinic Acid
REMARK  10 active torsions:
REMARK  status: ('A' for Active; 'I' for Inactive)
REMARK    1  A    between atoms: O_2  and  C_3
REMARK    2  A    between atoms: C_3  and  C_5
REMARK    3  A    between atoms: C_8  and  C_10
REMARK    4  A    between atoms: C_10  and  C_11
REMARK    5  A    between atoms: C_21  and  C_22
REMARK    6  A    between atoms: C_25  and  O_27
REMARK    7  A    between atoms: C_29  and  C_30
REMARK    8  A    between atoms: C_29  and  C_31
REMARK    9  A    between atoms: C_36  and  C_37
REMARK   10  A    between atoms: C_38  and  C_39
REMARK                            x       y       z     vdW  Elec       q    Type
REMARK                         _______ _______ _______ _____ _____    ______ ____
ROOT
ATOM      1  C   UNL     1      -6.078   1.983 126.728  0.00  0.00    +0.000 C 
ATOM      2  C   UNL     1      -7.131   2.964 127.621  0.00  0.00    +0.000 C 
ATOM      3  C   UNL     1      -6.675   2.244 128.756  0.00  0.00    +0.000 C 
ATOM      4  C   UNL     1      -6.489   0.388 128.227  0.00  0.00    +0.000 C 
ATOM      5  C   UNL     1      -5.254   0.917 127.533  0.00  0.00    +0.000 C 
ATOM      6  C   UNL     1      -4.183   1.624 128.489  0.00  0.00    +0.000 C 
ATOM      7  C   UNL     1      -4.087   1.021 129.990  0.00  0.00    +0.000 C 
ATOM      8  C   UNL     1      -4.835   1.998 130.912  0.00  0.00    +0.000 C 
ATOM      9  C   UNL     1      -4.007   3.540 130.360  0.00  0.00    +0.000 C 
ATOM     10  C   UNL     1      -3.884   4.467 131.508  0.00  0.00    +0.000 C 
ATOM     11  C   UNL     1      -5.359   4.067 132.273  0.00  0.00    +0.000 C 
ATOM     12  C   UNL     1      -3.082   3.778 133.023  0.00  0.00    +0.000 C 
ATOM     13  C   UNL     1      -2.635   5.102 133.446  0.00  0.00    +0.000 C 
ATOM     14  C   UNL     1      -1.863   5.322 132.231  0.00  0.00    +0.000 C 
ATOM     15  C   UNL     1      -2.539   6.702 131.826  0.00  0.00    +0.000 C 
ATOM     16  C   UNL     1      -1.867   7.829 132.555  0.00  0.00    +0.000 C 
ATOM     17  C   UNL     1      -3.970   7.318 131.617  0.00  0.00    +0.000 C 
ATOM     18  C   UNL     1      -2.777   5.877 130.718  0.00  0.00    +0.000 C 
ATOM     19  C   UNL     1      -2.968   6.562 129.406  0.00  0.00    +0.000 C 
ATOM     20  C   UNL     1      -2.314   5.549 128.528  0.00  0.00    +0.000 C 
ATOM     21  C   UNL     1      -3.650   4.527 128.538  0.00  0.00    +0.000 C 
ATOM     22  C   UNL     1      -4.142   5.859 127.369  0.00  0.00    +0.000 C 
ATOM     23  C   UNL     1      -3.629   3.277 127.694  0.00  0.00    +0.000 C 
ATOM     24  C   UNL     1      -2.324   3.583 126.655  0.00  0.00    +0.000 C 
ATOM     25  C   UNL     1      -4.683   3.712 126.582  0.00  0.00    +0.000 C 
ATOM     26  C   UNL     1      -4.919   2.443 125.948  0.00  0.00    +0.000 C 
ENDROOT
BRANCH   4  27
ATOM     27  C   UNL     1      -7.211  -0.937 127.153  0.00  0.00    +0.000 C 
ATOM     28  C   UNL     1      -6.330  -2.090 126.400  0.00  0.00    +0.000 C 
ATOM     29  C   UNL     1      -8.464  -1.240 126.701  0.00  0.00    +0.000 C 
ENDBRANCH   4  27
BRANCH   1  30
ATOM     30  C   UNL     1      -7.004   1.555 125.699  0.00  0.00    +0.000 C 
ATOM     31  O   UNL     1      -8.171   1.847 125.728  0.00  0.00    +0.000 OA
BRANCH  30  33
ATOM     32  H   UNL     1      -5.534   0.432 125.024  0.00  0.00    +0.000 HD
ATOM     33  O   UNL     1      -6.358   0.838 124.738  0.00  0.00    +0.000 OA
ENDBRANCH  30  33
ENDBRANCH   1  30
BRANCH  14  34
ATOM     34  O   UNL     1      -0.499   5.025 132.387  0.00  0.00    +0.000 OA
ATOM     35  H   UNL     1      -0.539   4.463 133.198  0.00  0.00    +0.000 HD
ENDBRANCH  14  34
TORSDOF 4
ENDMDL
MODEL 8
REMARK VINA RESULT:      -8.4      2.696      4.717
REMARK  Name = Betulinic Acid
REMARK  10 active torsions:
REMARK  status: ('A' for Active; 'I' for Inactive)
REMARK    1  A    between atoms: O_2  and  C_3
REMARK    2  A    between atoms: C_3  and  C_5
REMARK    3  A    between atoms: C_8  and  C_10
REMARK    4  A    between atoms: C_10  and  C_11
REMARK    5  A    between atoms: C_21  and  C_22
REMARK    6  A    between atoms: C_25  and  O_27
REMARK    7  A    between atoms: C_29  and  C_30
REMARK    8  A    between atoms: C_29  and  C_31
REMARK    9  A    between atoms: C_36  and  C_37
REMARK   10  A    between atoms: C_38  and  C_39
REMARK                            x       y       z     vdW  Elec       q    Type
REMARK                         _______ _______ _______ _____ _____    ______ ____
ROOT
ATOM      1  C   UNL     1      -5.767   2.787 130.959  0.00  0.00    +0.000 C 
ATOM      2  C   UNL     1      -4.581   1.589 130.793  0.00  0.00    +0.000 C 
ATOM      3  C   UNL     1      -5.588   0.679 131.209  0.00  0.00    +0.000 C 
ATOM      4  C   UNL     1      -6.612   1.550 132.606  0.00  0.00    +0.000 C 
ATOM      5  C   UNL     1      -7.186   2.314 131.434  0.00  0.00    +0.000 C 
ATOM      6  C   UNL     1      -7.895   1.416 130.315  0.00  0.00    +0.000 C 
ATOM      7  C   UNL     1      -8.626   0.077 130.859  0.00  0.00    +0.000 C 
ATOM      8  C   UNL     1      -7.697  -1.104 130.528  0.00  0.00    +0.000 C 
ATOM      9  C   UNL     1      -7.430  -0.717 128.754  0.00  0.00    +0.000 C 
ATOM     10  C   UNL     1      -7.290  -1.980 127.994  0.00  0.00    +0.000 C 
ATOM     11  C   UNL     1      -6.467  -2.871 129.197  0.00  0.00    +0.000 C 
ATOM     12  C   UNL     1      -8.647  -3.213 128.217  0.00  0.00    +0.000 C 
ATOM     13  C   UNL     1      -8.399  -3.794 126.899  0.00  0.00    +0.000 C 
ATOM     14  C   UNL     1      -8.645  -2.536 126.207  0.00  0.00    +0.000 C 
ATOM     15  C   UNL     1      -7.268  -2.485 125.415  0.00  0.00    +0.000 C 
ATOM     16  C   UNL     1      -7.377  -3.295 124.156  0.00  0.00    +0.000 C 
ATOM     17  C   UNL     1      -5.725  -2.603 125.690  0.00  0.00    +0.000 C 
ATOM     18  C   UNL     1      -7.269  -1.297 126.158  0.00  0.00    +0.000 C 
ATOM     19  C   UNL     1      -6.458  -0.169 125.612  0.00  0.00    +0.000 C 
ATOM     20  C   UNL     1      -7.339   0.961 126.027  0.00  0.00    +0.000 C 
ATOM     21  C   UNL     1      -6.794   0.934 127.618  0.00  0.00    +0.000 C 
ATOM     22  C   UNL     1      -5.424   1.764 126.714  0.00  0.00    +0.000 C 
ATOM     23  C   UNL     1      -7.291   1.980 128.585  0.00  0.00    +0.000 C 
ATOM     24  C   UNL     1      -7.965   3.129 127.537  0.00  0.00    +0.000 C 
ATOM     25  C   UNL     1      -5.953   2.830 128.741  0.00  0.00    +0.000 C 
ATOM     26  C   UNL     1      -6.297   3.636 129.880  0.00  0.00    +0.000 C 
ENDROOT
BRANCH   4  27
ATOM     27  C   UNL     1      -6.491   2.723 134.035  0.00  0.00    +0.000 C 
ATOM     28  C   UNL     1      -5.317   2.669 135.170  0.00  0.00    +0.000 C 
ATOM     29  C   UNL     1      -7.256   3.749 134.510  0.00  0.00    +0.000 C 
ENDBRANCH   4  27
BRANCH   1  30
ATOM     30  C   UNL     1      -5.012   3.727 131.762  0.00  0.00    +0.000 C 
ATOM     31  O   UNL     1      -3.933   3.454 132.220  0.00  0.00    +0.000 OA
BRANCH  30  33
ATOM     32  H   UNL     1      -5.893   5.330 131.034  0.00  0.00    +0.000 HD
ATOM     33  O   UNL     1      -5.677   4.910 131.872  0.00  0.00    +0.000 OA
ENDBRANCH  30  33
ENDBRANCH   1  30
BRANCH  14  34
ATOM     34  O   UNL     1      -9.952  -2.434 125.702  0.00  0.00    +0.000 OA
ATOM     35  H   UNL     1     -10.206  -1.553 126.067  0.00  0.00    +0.000 HD
ENDBRANCH  14  34
TORSDOF 4
ENDMDL
MODEL 9
REMARK VINA RESULT:      -8.3      3.342      7.350
REMARK  Name = Betulinic Acid
REMARK  10 active torsions:
REMARK  status: ('A' for Active; 'I' for Inactive)
REMARK    1  A    between atoms: O_2  and  C_3
REMARK    2  A    between atoms: C_3  and  C_5
REMARK    3  A    between atoms: C_8  and  C_10
REMARK    4  A    between atoms: C_10  and  C_11
REMARK    5  A    between atoms: C_21  and  C_22
REMARK    6  A    between atoms: C_25  and  O_27
REMARK    7  A    between atoms: C_29  and  C_30
REMARK    8  A    between atoms: C_29  and  C_31
REMARK    9  A    between atoms: C_36  and  C_37
REMARK   10  A    between atoms: C_38  and  C_39
REMARK                            x       y       z     vdW  Elec       q    Type
REMARK                         _______ _______ _______ _____ _____    ______ ____
ROOT
ATOM      1  C   UNL     1      -8.325   4.152 132.144  0.00  0.00    +0.000 C 
ATOM      2  C   UNL     1      -9.233   2.831 132.690  0.00  0.00    +0.000 C 
ATOM      3  C   UNL     1      -9.176   2.369 131.349  0.00  0.00    +0.000 C 
ATOM      4  C   UNL     1      -9.377   3.914 130.196  0.00  0.00    +0.000 C 
ATOM      5  C   UNL     1      -7.948   4.167 130.620  0.00  0.00    +0.000 C 
ATOM      6  C   UNL     1      -6.914   2.996 130.274  0.00  0.00    +0.000 C 
ATOM      7  C   UNL     1      -7.234   2.165 128.920  0.00  0.00    +0.000 C 
ATOM      8  C   UNL     1      -7.857   0.828 129.354  0.00  0.00    +0.000 C 
ATOM      9  C   UNL     1      -6.585   0.351 130.587  0.00  0.00    +0.000 C 
ATOM     10  C   UNL     1      -6.431  -1.122 130.586  0.00  0.00    +0.000 C 
ATOM     11  C   UNL     1      -8.068  -1.514 130.290  0.00  0.00    +0.000 C 
ATOM     12  C   UNL     1      -6.102  -1.900 128.943  0.00  0.00    +0.000 C 
ATOM     13  C   UNL     1      -5.415  -3.030 129.563  0.00  0.00    +0.000 C 
ATOM     14  C   UNL     1      -4.415  -2.182 130.196  0.00  0.00    +0.000 C 
ATOM     15  C   UNL     1      -4.640  -2.703 131.681  0.00  0.00    +0.000 C 
ATOM     16  C   UNL     1      -3.841  -3.953 131.906  0.00  0.00    +0.000 C 
ATOM     17  C   UNL     1      -5.812  -2.931 132.704  0.00  0.00    +0.000 C 
ATOM     18  C   UNL     1      -4.884  -1.326 131.771  0.00  0.00    +0.000 C 
ATOM     19  C   UNL     1      -4.668  -0.696 133.107  0.00  0.00    +0.000 C 
ATOM     20  C   UNL     1      -4.149   0.626 132.649  0.00  0.00    +0.000 C 
ATOM     21  C   UNL     1      -5.681   1.212 132.279  0.00  0.00    +0.000 C 
ATOM     22  C   UNL     1      -5.613   1.333 134.112  0.00  0.00    +0.000 C 
ATOM     23  C   UNL     1      -5.832   2.641 131.816  0.00  0.00    +0.000 C 
ATOM     24  C   UNL     1      -4.333   3.305 132.250  0.00  0.00    +0.000 C 
ATOM     25  C   UNL     1      -6.535   3.248 133.110  0.00  0.00    +0.000 C 
ATOM     26  C   UNL     1      -6.970   4.515 132.589  0.00  0.00    +0.000 C 
ENDROOT
BRANCH   4  27
ATOM     27  C   UNL     1     -10.214   5.558 130.036  0.00  0.00    +0.000 C 
ATOM     28  C   UNL     1     -11.751   5.856 130.506  0.00  0.00    +0.000 C 
ATOM     29  C   UNL     1      -9.873   6.770 129.506  0.00  0.00    +0.000 C 
ENDBRANCH   4  27
BRANCH   1  30
ATOM     30  C   UNL     1      -9.137   5.216 132.698  0.00  0.00    +0.000 C 
ATOM     31  O   UNL     1      -8.845   6.376 132.569  0.00  0.00    +0.000 OA
BRANCH  30  33
ATOM     32  H   UNL     1     -10.067   4.324 134.186  0.00  0.00    +0.000 HD
ATOM     33  O   UNL     1     -10.237   4.709 133.321  0.00  0.00    +0.000 OA
ENDBRANCH  30  33
ENDBRANCH   1  30
BRANCH  14  34
ATOM     34  O   UNL     1      -3.218  -2.105 129.465  0.00  0.00    +0.000 OA
ATOM     35  H   UNL     1      -2.622  -1.727 130.155  0.00  0.00    +0.000 HD
ENDBRANCH  14  34
TORSDOF 4
ENDMDL
