MODEL 1
REMARK VINA RESULT:      -8.7      0.000      0.000
REMARK  Name = Bexarotene
REMARK  9 active torsions:
REMARK  status: ('A' for Active; 'I' for Inactive)
REMARK    1  A    between atoms: C_1  and  C_2
REMARK    2  A    between atoms: C_7  and  C_8
REMARK    3  A    between atoms: C_8  and  C_10
REMARK    4  A    between atoms: C_13  and  C_16
REMARK    5  A    between atoms: C_16  and  O_17
REMARK    6  A    between atoms: C_19  and  C_20
REMARK    7  A    between atoms: C_19  and  C_21
REMARK    8  A    between atoms: C_24  and  C_25
REMARK    9  A    between atoms: C_24  and  C_26
REMARK                            x       y       z     vdW  Elec       q    Type
REMARK                         _______ _______ _______ _____ _____    ______ ____
ROOT
ATOM      1  C   UNL     1      -8.337   3.982 129.221  0.00  0.00    +0.000 C 
ATOM      2  C   UNL     1      -7.220   4.838 129.722  0.00  0.00    +0.000 A 
ATOM      3  C   UNL     1      -5.994   4.545 129.121  0.00  0.00    +0.000 A 
ATOM      4  C   UNL     1      -4.825   5.252 129.390  0.00  0.00    +0.000 A 
ATOM      5  C   UNL     1      -4.878   6.271 130.344  0.00  0.00    +0.000 A 
ATOM      6  C   UNL     1      -6.119   6.540 130.973  0.00  0.00    +0.000 A 
ATOM      7  C   UNL     1      -7.310   5.829 130.720  0.00  0.00    +0.000 A 
ATOM      8  C   UNL     1      -3.647   7.106 130.702  0.00  0.00    +0.000 C 
ATOM      9  C   UNL     1      -3.531   7.284 132.231  0.00  0.00    +0.000 C 
ATOM     10  C   UNL     1      -3.770   8.491 130.035  0.00  0.00    +0.000 C 
ATOM     11  C   UNL     1      -2.351   6.422 130.211  0.00  0.00    +0.000 C 
ATOM     12  C   UNL     1      -2.493   5.970 128.760  0.00  0.00    +0.000 C 
ATOM     13  C   UNL     1      -3.557   4.864 128.641  0.00  0.00    +0.000 C 
ATOM     14  C   UNL     1      -3.863   4.653 127.141  0.00  0.00    +0.000 C 
ATOM     15  C   UNL     1      -3.011   3.554 129.244  0.00  0.00    +0.000 C 
ENDROOT
BRANCH   7  16
ATOM     16  C   UNL     1      -8.579   6.140 131.499  0.00  0.00    +0.000 C 
ATOM     17  C   UNL     1      -8.705   5.802 132.799  0.00  0.00    +0.000 C 
BRANCH  16  18
ATOM     18  C   UNL     1      -9.777   6.836 130.937  0.00  0.00    +0.000 A 
ATOM     19  C   UNL     1     -11.051   6.586 131.462  0.00  0.00    +0.000 A 
ATOM     20  C   UNL     1     -12.199   6.806 130.678  0.00  0.00    +0.000 A 
ATOM     21  C   UNL     1     -12.108   7.513 129.478  0.00  0.00    +0.000 A 
ATOM     22  C   UNL     1     -10.844   7.988 129.086  0.00  0.00    +0.000 A 
ATOM     23  C   UNL     1      -9.683   7.588 129.763  0.00  0.00    +0.000 A 
BRANCH  21  24
ATOM     24  C   UNL     1     -13.270   7.765 128.573  0.00  0.00    +0.000 C 
ATOM     25  O   UNL     1     -13.887   6.841 128.051  0.00  0.00    +0.000 OA
BRANCH  24  26
ATOM     26  O   UNL     1     -13.634   9.046 128.365  0.00  0.00    +0.000 OA
ATOM     27  H   UNL     1     -14.063   9.540 129.083  0.00  0.00    +0.000 HD
ENDBRANCH  24  26
ENDBRANCH  21  24
ENDBRANCH  16  18
ENDBRANCH   7  16
TORSDOF 4
ENDMDL
MODEL 2
REMARK VINA RESULT:      -8.4      8.620     11.128
REMARK  Name = Bexarotene
REMARK  9 active torsions:
REMARK  status: ('A' for Active; 'I' for Inactive)
REMARK    1  A    between atoms: C_1  and  C_2
REMARK    2  A    between atoms: C_7  and  C_8
REMARK    3  A    between atoms: C_8  and  C_10
REMARK    4  A    between atoms: C_13  and  C_16
REMARK    5  A    between atoms: C_16  and  O_17
REMARK    6  A    between atoms: C_19  and  C_20
REMARK    7  A    between atoms: C_19  and  C_21
REMARK    8  A    between atoms: C_24  and  C_25
REMARK    9  A    between atoms: C_24  and  C_26
REMARK                            x       y       z     vdW  Elec       q    Type
REMARK                         _______ _______ _______ _____ _____    ______ ____
ROOT
ATOM      1  C   UNL     1      -9.237  -4.383 128.440  0.00  0.00    +0.000 C 
ATOM      2  C   UNL     1      -8.512  -3.232 127.825  0.00  0.00    +0.000 A 
ATOM      3  C   UNL     1      -8.502  -3.274 126.429  0.00  0.00    +0.000 A 
ATOM      4  C   UNL     1      -7.933  -2.277 125.641  0.00  0.00    +0.000 A 
ATOM      5  C   UNL     1      -7.302  -1.209 126.285  0.00  0.00    +0.000 A 
ATOM      6  C   UNL     1      -7.288  -1.191 127.701  0.00  0.00    +0.000 A 
ATOM      7  C   UNL     1      -7.851  -2.197 128.516  0.00  0.00    +0.000 A 
ATOM      8  C   UNL     1      -6.654  -0.064 125.504  0.00  0.00    +0.000 C 
ATOM      9  C   UNL     1      -5.275   0.293 126.097  0.00  0.00    +0.000 C 
ATOM     10  C   UNL     1      -7.574   1.171 125.571  0.00  0.00    +0.000 C 
ATOM     11  C   UNL     1      -6.440  -0.454 124.024  0.00  0.00    +0.000 C 
ATOM     12  C   UNL     1      -7.707  -1.074 123.437  0.00  0.00    +0.000 C 
ATOM     13  C   UNL     1      -8.020  -2.415 124.127  0.00  0.00    +0.000 C 
ATOM     14  C   UNL     1      -9.442  -2.848 123.708  0.00  0.00    +0.000 C 
ATOM     15  C   UNL     1      -7.003  -3.480 123.671  0.00  0.00    +0.000 C 
ENDROOT
BRANCH   7  16
ATOM     16  C   UNL     1      -7.723  -2.129 130.030  0.00  0.00    +0.000 C 
ATOM     17  C   UNL     1      -8.246  -1.104 130.733  0.00  0.00    +0.000 C 
BRANCH  16  18
ATOM     18  C   UNL     1      -7.040  -3.154 130.876  0.00  0.00    +0.000 A 
ATOM     19  C   UNL     1      -7.154  -3.111 132.271  0.00  0.00    +0.000 A 
ATOM     20  C   UNL     1      -6.171  -3.703 133.084  0.00  0.00    +0.000 A 
ATOM     21  C   UNL     1      -5.217  -4.557 132.529  0.00  0.00    +0.000 A 
ATOM     22  C   UNL     1      -5.273  -4.798 131.145  0.00  0.00    +0.000 A 
ATOM     23  C   UNL     1      -6.120  -4.047 130.317  0.00  0.00    +0.000 A 
BRANCH  21  24
ATOM     24  C   UNL     1      -4.122  -5.203 133.314  0.00  0.00    +0.000 C 
ATOM     25  O   UNL     1      -4.355  -6.098 134.121  0.00  0.00    +0.000 OA
BRANCH  24  26
ATOM     26  O   UNL     1      -2.861  -4.784 133.090  0.00  0.00    +0.000 OA
ATOM     27  H   UNL     1      -2.379  -5.122 132.317  0.00  0.00    +0.000 HD
ENDBRANCH  24  26
ENDBRANCH  21  24
ENDBRANCH  16  18
ENDBRANCH   7  16
TORSDOF 4
ENDMDL
MODEL 3
REMARK VINA RESULT:      -8.0      8.280     11.125
REMARK  Name = Bexarotene
REMARK  9 active torsions:
REMARK  status: ('A' for Active; 'I' for Inactive)
REMARK    1  A    between atoms: C_1  and  C_2
REMARK    2  A    between atoms: C_7  and  C_8
REMARK    3  A    between atoms: C_8  and  C_10
REMARK    4  A    between atoms: C_13  and  C_16
REMARK    5  A    between atoms: C_16  and  O_17
REMARK    6  A    between atoms: C_19  and  C_20
REMARK    7  A    between atoms: C_19  and  C_21
REMARK    8  A    between atoms: C_24  and  C_25
REMARK    9  A    between atoms: C_24  and  C_26
REMARK                            x       y       z     vdW  Elec       q    Type
REMARK                         _______ _______ _______ _____ _____    ______ ____
ROOT
ATOM      1  C   UNL     1      -7.734  -0.027 129.424  0.00  0.00    +0.000 C 
ATOM      2  C   UNL     1      -7.720  -0.698 128.089  0.00  0.00    +0.000 A 
ATOM      3  C   UNL     1      -7.626   0.202 127.025  0.00  0.00    +0.000 A 
ATOM      4  C   UNL     1      -7.541  -0.198 125.694  0.00  0.00    +0.000 A 
ATOM      5  C   UNL     1      -7.599  -1.565 125.414  0.00  0.00    +0.000 A 
ATOM      6  C   UNL     1      -7.727  -2.470 126.496  0.00  0.00    +0.000 A 
ATOM      7  C   UNL     1      -7.825  -2.082 127.850  0.00  0.00    +0.000 A 
ATOM      8  C   UNL     1      -7.507  -2.100 123.983  0.00  0.00    +0.000 C 
ATOM      9  C   UNL     1      -8.563  -3.200 123.740  0.00  0.00    +0.000 C 
ATOM     10  C   UNL     1      -6.099  -2.686 123.758  0.00  0.00    +0.000 C 
ATOM     11  C   UNL     1      -7.757  -0.976 122.953  0.00  0.00    +0.000 C 
ATOM     12  C   UNL     1      -6.932   0.264 123.292  0.00  0.00    +0.000 C 
ATOM     13  C   UNL     1      -7.402   0.876 124.624  0.00  0.00    +0.000 C 
ATOM     14  C   UNL     1      -6.363   1.935 125.057  0.00  0.00    +0.000 C 
ATOM     15  C   UNL     1      -8.773   1.553 124.426  0.00  0.00    +0.000 C 
ENDROOT
BRANCH   7  16
ATOM     16  C   UNL     1      -8.035  -3.122 128.940  0.00  0.00    +0.000 C 
ATOM     17  C   UNL     1      -9.121  -3.922 128.947  0.00  0.00    +0.000 C 
BRANCH  16  18
ATOM     18  C   UNL     1      -7.094  -3.372 130.074  0.00  0.00    +0.000 A 
ATOM     19  C   UNL     1      -5.945  -4.151 129.882  0.00  0.00    +0.000 A 
ATOM     20  C   UNL     1      -5.340  -4.806 130.970  0.00  0.00    +0.000 A 
ATOM     21  C   UNL     1      -5.708  -4.488 132.278  0.00  0.00    +0.000 A 
ATOM     22  C   UNL     1      -6.696  -3.504 132.465  0.00  0.00    +0.000 A 
ATOM     23  C   UNL     1      -7.435  -3.011 131.380  0.00  0.00    +0.000 A 
BRANCH  21  24
ATOM     24  C   UNL     1      -5.138  -5.155 133.487  0.00  0.00    +0.000 C 
ATOM     25  O   UNL     1      -3.928  -5.302 133.626  0.00  0.00    +0.000 OA
BRANCH  24  26
ATOM     26  O   UNL     1      -6.000  -5.571 134.436  0.00  0.00    +0.000 OA
ATOM     27  H   UNL     1      -6.611  -4.930 134.836  0.00  0.00    +0.000 HD
ENDBRANCH  24  26
ENDBRANCH  21  24
ENDBRANCH  16  18
ENDBRANCH   7  16
TORSDOF 4
ENDMDL
MODEL 4
REMARK VINA RESULT:      -8.0      7.816     10.666
REMARK  Name = Bexarotene
REMARK  9 active torsions:
REMARK  status: ('A' for Active; 'I' for Inactive)
REMARK    1  A    between atoms: C_1  and  C_2
REMARK    2  A    between atoms: C_7  and  C_8
REMARK    3  A    between atoms: C_8  and  C_10
REMARK    4  A    between atoms: C_13  and  C_16
REMARK    5  A    between atoms: C_16  and  O_17
REMARK    6  A    between atoms: C_19  and  C_20
REMARK    7  A    between atoms: C_19  and  C_21
REMARK    8  A    between atoms: C_24  and  C_25
REMARK    9  A    between atoms: C_24  and  C_26
REMARK                            x       y       z     vdW  Elec       q    Type
REMARK                         _______ _______ _______ _____ _____    ______ ____
ROOT
ATOM      1  C   UNL     1      -5.130   0.165 129.268  0.00  0.00    +0.000 C 
ATOM      2  C   UNL     1      -5.514  -0.619 128.056  0.00  0.00    +0.000 A 
ATOM      3  C   UNL     1      -6.084   0.169 127.053  0.00  0.00    +0.000 A 
ATOM      4  C   UNL     1      -6.468  -0.336 125.814  0.00  0.00    +0.000 A 
ATOM      5  C   UNL     1      -6.317  -1.706 125.587  0.00  0.00    +0.000 A 
ATOM      6  C   UNL     1      -5.769  -2.503 126.621  0.00  0.00    +0.000 A 
ATOM      7  C   UNL     1      -5.384  -2.011 127.886  0.00  0.00    +0.000 A 
ATOM      8  C   UNL     1      -6.705  -2.351 124.254  0.00  0.00    +0.000 C 
ATOM      9  C   UNL     1      -7.478  -3.667 124.486  0.00  0.00    +0.000 C 
ATOM     10  C   UNL     1      -5.424  -2.647 123.450  0.00  0.00    +0.000 C 
ATOM     11  C   UNL     1      -7.615  -1.413 123.429  0.00  0.00    +0.000 C 
ATOM     12  C   UNL     1      -7.037  -0.000 123.381  0.00  0.00    +0.000 C 
ATOM     13  C   UNL     1      -7.041   0.631 124.786  0.00  0.00    +0.000 C 
ATOM     14  C   UNL     1      -6.194   1.922 124.732  0.00  0.00    +0.000 C 
ATOM     15  C   UNL     1      -8.486   0.981 125.192  0.00  0.00    +0.000 C 
ENDROOT
BRANCH   7  16
ATOM     16  C   UNL     1      -4.873  -2.956 128.963  0.00  0.00    +0.000 C 
ATOM     17  C   UNL     1      -3.617  -3.448 128.927  0.00  0.00    +0.000 C 
BRANCH  16  18
ATOM     18  C   UNL     1      -5.669  -3.420 130.139  0.00  0.00    +0.000 A 
ATOM     19  C   UNL     1      -6.956  -2.915 130.367  0.00  0.00    +0.000 A 
ATOM     20  C   UNL     1      -7.505  -2.927 131.662  0.00  0.00    +0.000 A 
ATOM     21  C   UNL     1      -6.900  -3.666 132.679  0.00  0.00    +0.000 A 
ATOM     22  C   UNL     1      -5.733  -4.387 132.366  0.00  0.00    +0.000 A 
ATOM     23  C   UNL     1      -5.082  -4.204 131.137  0.00  0.00    +0.000 A 
BRANCH  21  24
ATOM     24  C   UNL     1      -7.400  -3.710 134.086  0.00  0.00    +0.000 C 
ATOM     25  O   UNL     1      -6.657  -3.991 135.021  0.00  0.00    +0.000 OA
BRANCH  24  26
ATOM     26  O   UNL     1      -8.696  -3.406 134.298  0.00  0.00    +0.000 OA
ATOM     27  H   UNL     1      -9.368  -3.728 133.674  0.00  0.00    +0.000 HD
ENDBRANCH  24  26
ENDBRANCH  21  24
ENDBRANCH  16  18
ENDBRANCH   7  16
TORSDOF 4
ENDMDL
MODEL 5
REMARK VINA RESULT:      -7.9      5.792      8.805
REMARK  Name = Bexarotene
REMARK  9 active torsions:
REMARK  status: ('A' for Active; 'I' for Inactive)
REMARK    1  A    between atoms: C_1  and  C_2
REMARK    2  A    between atoms: C_7  and  C_8
REMARK    3  A    between atoms: C_8  and  C_10
REMARK    4  A    between atoms: C_13  and  C_16
REMARK    5  A    between atoms: C_16  and  O_17
REMARK    6  A    between atoms: C_19  and  C_20
REMARK    7  A    between atoms: C_19  and  C_21
REMARK    8  A    between atoms: C_24  and  C_25
REMARK    9  A    between atoms: C_24  and  C_26
REMARK                            x       y       z     vdW  Elec       q    Type
REMARK                         _______ _______ _______ _____ _____    ______ ____
ROOT
ATOM      1  C   UNL     1      -5.413   4.823 125.326  0.00  0.00    +0.000 C 
ATOM      2  C   UNL     1      -5.420   3.361 125.631  0.00  0.00    +0.000 A 
ATOM      3  C   UNL     1      -6.593   2.722 125.223  0.00  0.00    +0.000 A 
ATOM      4  C   UNL     1      -6.800   1.351 125.354  0.00  0.00    +0.000 A 
ATOM      5  C   UNL     1      -5.800   0.591 125.967  0.00  0.00    +0.000 A 
ATOM      6  C   UNL     1      -4.627   1.252 126.408  0.00  0.00    +0.000 A 
ATOM      7  C   UNL     1      -4.405   2.641 126.293  0.00  0.00    +0.000 A 
ATOM      8  C   UNL     1      -5.935  -0.922 126.149  0.00  0.00    +0.000 C 
ATOM      9  C   UNL     1      -5.491  -1.345 127.567  0.00  0.00    +0.000 C 
ATOM     10  C   UNL     1      -5.051  -1.633 125.105  0.00  0.00    +0.000 C 
ATOM     11  C   UNL     1      -7.401  -1.375 125.964  0.00  0.00    +0.000 C 
ATOM     12  C   UNL     1      -8.000  -0.766 124.699  0.00  0.00    +0.000 C 
ATOM     13  C   UNL     1      -8.105   0.764 124.834  0.00  0.00    +0.000 C 
ATOM     14  C   UNL     1      -8.440   1.346 123.442  0.00  0.00    +0.000 C 
ATOM     15  C   UNL     1      -9.233   1.119 125.824  0.00  0.00    +0.000 C 
ENDROOT
BRANCH   7  16
ATOM     16  C   UNL     1      -3.145   3.274 126.862  0.00  0.00    +0.000 C 
ATOM     17  C   UNL     1      -1.926   2.980 126.365  0.00  0.00    +0.000 C 
BRANCH  16  18
ATOM     18  C   UNL     1      -3.117   4.260 127.985  0.00  0.00    +0.000 A 
ATOM     19  C   UNL     1      -2.642   5.560 127.773  0.00  0.00    +0.000 A 
ATOM     20  C   UNL     1      -2.140   6.318 128.846  0.00  0.00    +0.000 A 
ATOM     21  C   UNL     1      -2.344   5.899 130.162  0.00  0.00    +0.000 A 
ATOM     22  C   UNL     1      -3.057   4.705 130.371  0.00  0.00    +0.000 A 
ATOM     23  C   UNL     1      -3.369   3.856 129.299  0.00  0.00    +0.000 A 
BRANCH  21  24
ATOM     24  C   UNL     1      -1.820   6.627 131.357  0.00  0.00    +0.000 C 
ATOM     25  O   UNL     1      -2.561   7.285 132.081  0.00  0.00    +0.000 OA
BRANCH  24  26
ATOM     26  O   UNL     1      -0.505   6.518 131.628  0.00  0.00    +0.000 OA
ATOM     27  H   UNL     1      -0.216   6.428 132.552  0.00  0.00    +0.000 HD
ENDBRANCH  24  26
ENDBRANCH  21  24
ENDBRANCH  16  18
ENDBRANCH   7  16
TORSDOF 4
ENDMDL
MODEL 6
REMARK VINA RESULT:      -7.9      5.840      8.082
REMARK  Name = Bexarotene
REMARK  9 active torsions:
REMARK  status: ('A' for Active; 'I' for Inactive)
REMARK    1  A    between atoms: C_1  and  C_2
REMARK    2  A    between atoms: C_7  and  C_8
REMARK    3  A    between atoms: C_8  and  C_10
REMARK    4  A    between atoms: C_13  and  C_16
REMARK    5  A    between atoms: C_16  and  O_17
REMARK    6  A    between atoms: C_19  and  C_20
REMARK    7  A    between atoms: C_19  and  C_21
REMARK    8  A    between atoms: C_24  and  C_25
REMARK    9  A    between atoms: C_24  and  C_26
REMARK                            x       y       z     vdW  Elec       q    Type
REMARK                         _______ _______ _______ _____ _____    ______ ____
ROOT
ATOM      1  C   UNL     1      -8.156  -3.290 129.152  0.00  0.00    +0.000 C 
ATOM      2  C   UNL     1      -7.939  -2.201 128.154  0.00  0.00    +0.000 A 
ATOM      3  C   UNL     1      -7.976  -2.653 126.833  0.00  0.00    +0.000 A 
ATOM      4  C   UNL     1      -7.854  -1.807 125.734  0.00  0.00    +0.000 A 
ATOM      5  C   UNL     1      -7.637  -0.448 125.972  0.00  0.00    +0.000 A 
ATOM      6  C   UNL     1      -7.568  -0.002 127.314  0.00  0.00    +0.000 A 
ATOM      7  C   UNL     1      -7.680  -0.846 128.440  0.00  0.00    +0.000 A 
ATOM      8  C   UNL     1      -7.497   0.559 124.828  0.00  0.00    +0.000 C 
ATOM      9  C   UNL     1      -6.323   1.528 125.091  0.00  0.00    +0.000 C 
ATOM     10  C   UNL     1      -8.805   1.365 124.707  0.00  0.00    +0.000 C 
ATOM     11  C   UNL     1      -7.218  -0.158 123.488  0.00  0.00    +0.000 C 
ATOM     12  C   UNL     1      -8.189  -1.320 123.284  0.00  0.00    +0.000 C 
ATOM     13  C   UNL     1      -7.951  -2.414 124.341  0.00  0.00    +0.000 C 
ATOM     14  C   UNL     1      -9.128  -3.412 124.270  0.00  0.00    +0.000 C 
ATOM     15  C   UNL     1      -6.632  -3.152 124.033  0.00  0.00    +0.000 C 
ENDROOT
BRANCH   7  16
ATOM     16  C   UNL     1      -7.519  -0.288 129.846  0.00  0.00    +0.000 C 
ATOM     17  C   UNL     1      -6.621  -0.808 130.708  0.00  0.00    +0.000 C 
BRANCH  16  18
ATOM     18  C   UNL     1      -8.297   0.859 130.403  0.00  0.00    +0.000 A 
ATOM     19  C   UNL     1      -8.083   2.159 129.927  0.00  0.00    +0.000 A 
ATOM     20  C   UNL     1      -8.394   3.271 130.729  0.00  0.00    +0.000 A 
ATOM     21  C   UNL     1      -9.154   3.114 131.889  0.00  0.00    +0.000 A 
ATOM     22  C   UNL     1      -9.587   1.818 132.223  0.00  0.00    +0.000 A 
ATOM     23  C   UNL     1      -9.100   0.696 131.536  0.00  0.00    +0.000 A 
BRANCH  21  24
ATOM     24  C   UNL     1      -9.504   4.235 132.812  0.00  0.00    +0.000 C 
ATOM     25  O   UNL     1      -9.486   5.403 132.436  0.00  0.00    +0.000 OA
BRANCH  24  26
ATOM     26  O   UNL     1      -9.866   3.919 134.071  0.00  0.00    +0.000 OA
ATOM     27  H   UNL     1     -10.690   3.424 134.218  0.00  0.00    +0.000 HD
ENDBRANCH  24  26
ENDBRANCH  21  24
ENDBRANCH  16  18
ENDBRANCH   7  16
TORSDOF 4
ENDMDL
MODEL 7
REMARK VINA RESULT:      -7.8      7.799     10.158
REMARK  Name = Bexarotene
REMARK  9 active torsions:
REMARK  status: ('A' for Active; 'I' for Inactive)
REMARK    1  A    between atoms: C_1  and  C_2
REMARK    2  A    between atoms: C_7  and  C_8
REMARK    3  A    between atoms: C_8  and  C_10
REMARK    4  A    between atoms: C_13  and  C_16
REMARK    5  A    between atoms: C_16  and  O_17
REMARK    6  A    between atoms: C_19  and  C_20
REMARK    7  A    between atoms: C_19  and  C_21
REMARK    8  A    between atoms: C_24  and  C_25
REMARK    9  A    between atoms: C_24  and  C_26
REMARK                            x       y       z     vdW  Elec       q    Type
REMARK                         _______ _______ _______ _____ _____    ______ ____
ROOT
ATOM      1  C   UNL     1      -9.008   0.017 131.270  0.00  0.00    +0.000 C 
ATOM      2  C   UNL     1      -7.948  -1.031 131.175  0.00  0.00    +0.000 A 
ATOM      3  C   UNL     1      -7.711  -1.681 132.389  0.00  0.00    +0.000 A 
ATOM      4  C   UNL     1      -6.807  -2.731 132.526  0.00  0.00    +0.000 A 
ATOM      5  C   UNL     1      -6.071  -3.116 131.403  0.00  0.00    +0.000 A 
ATOM      6  C   UNL     1      -6.293  -2.430 130.184  0.00  0.00    +0.000 A 
ATOM      7  C   UNL     1      -7.198  -1.358 130.028  0.00  0.00    +0.000 A 
ATOM      8  C   UNL     1      -5.058  -4.263 131.456  0.00  0.00    +0.000 C 
ATOM      9  C   UNL     1      -3.755  -3.877 130.724  0.00  0.00    +0.000 C 
ATOM     10  C   UNL     1      -5.673  -5.505 130.782  0.00  0.00    +0.000 C 
ATOM     11  C   UNL     1      -4.689  -4.610 132.916  0.00  0.00    +0.000 C 
ATOM     12  C   UNL     1      -5.945  -4.744 133.775  0.00  0.00    +0.000 C 
ATOM     13  C   UNL     1      -6.665  -3.388 133.893  0.00  0.00    +0.000 C 
ATOM     14  C   UNL     1      -8.056  -3.637 134.517  0.00  0.00    +0.000 C 
ATOM     15  C   UNL     1      -5.852  -2.449 134.807  0.00  0.00    +0.000 C 
ENDROOT
BRANCH   7  16
ATOM     16  C   UNL     1      -7.317  -0.632 128.697  0.00  0.00    +0.000 C 
ATOM     17  C   UNL     1      -6.701   0.550 128.485  0.00  0.00    +0.000 C 
BRANCH  16  18
ATOM     18  C   UNL     1      -8.089  -1.130 127.519  0.00  0.00    +0.000 A 
ATOM     19  C   UNL     1      -8.343  -2.499 127.366  0.00  0.00    +0.000 A 
ATOM     20  C   UNL     1      -8.598  -3.038 126.092  0.00  0.00    +0.000 A 
ATOM     21  C   UNL     1      -8.858  -2.196 125.010  0.00  0.00    +0.000 A 
ATOM     22  C   UNL     1      -8.853  -0.808 125.237  0.00  0.00    +0.000 A 
ATOM     23  C   UNL     1      -8.397  -0.279 126.453  0.00  0.00    +0.000 A 
BRANCH  21  24
ATOM     24  C   UNL     1      -9.109  -2.683 123.620  0.00  0.00    +0.000 C 
ATOM     25  O   UNL     1      -8.382  -2.357 122.686  0.00  0.00    +0.000 OA
BRANCH  24  26
ATOM     26  O   UNL     1     -10.150  -3.516 123.428  0.00  0.00    +0.000 OA
ATOM     27  H   UNL     1     -10.050  -4.459 123.639  0.00  0.00    +0.000 HD
ENDBRANCH  24  26
ENDBRANCH  21  24
ENDBRANCH  16  18
ENDBRANCH   7  16
TORSDOF 4
ENDMDL
MODEL 8
REMARK VINA RESULT:      -7.7      4.768      7.068
REMARK  Name = Bexarotene
REMARK  9 active torsions:
REMARK  status: ('A' for Active; 'I' for Inactive)
REMARK    1  A    between atoms: C_1  and  C_2
REMARK    2  A    between atoms: C_7  and  C_8
REMARK    3  A    between atoms: C_8  and  C_10
REMARK    4  A    between atoms: C_13  and  C_16
REMARK    5  A    between atoms: C_16  and  O_17
REMARK    6  A    between atoms: C_19  and  C_20
REMARK    7  A    between atoms: C_19  and  C_21
REMARK    8  A    between atoms: C_24  and  C_25
REMARK    9  A    between atoms: C_24  and  C_26
REMARK                            x       y       z     vdW  Elec       q    Type
REMARK                         _______ _______ _______ _____ _____    ______ ____
ROOT
ATOM      1  C   UNL     1      -7.533  -0.518 129.817  0.00  0.00    +0.000 C 
ATOM      2  C   UNL     1      -7.697  -0.029 128.415  0.00  0.00    +0.000 A 
ATOM      3  C   UNL     1      -7.917  -1.059 127.498  0.00  0.00    +0.000 A 
ATOM      4  C   UNL     1      -8.154  -0.837 126.144  0.00  0.00    +0.000 A 
ATOM      5  C   UNL     1      -8.121   0.481 125.679  0.00  0.00    +0.000 A 
ATOM      6  C   UNL     1      -7.864   1.517 126.610  0.00  0.00    +0.000 A 
ATOM      7  C   UNL     1      -7.613   1.309 127.983  0.00  0.00    +0.000 A 
ATOM      8  C   UNL     1      -8.375   0.824 124.209  0.00  0.00    +0.000 C 
ATOM      9  C   UNL     1      -7.348   1.860 123.703  0.00  0.00    +0.000 C 
ATOM     10  C   UNL     1      -9.796   1.404 124.069  0.00  0.00    +0.000 C 
ATOM     11  C   UNL     1      -8.250  -0.431 123.317  0.00  0.00    +0.000 C 
ATOM     12  C   UNL     1      -9.038  -1.598 123.910  0.00  0.00    +0.000 C 
ATOM     13  C   UNL     1      -8.420  -2.039 125.249  0.00  0.00    +0.000 C 
ATOM     14  C   UNL     1      -9.408  -3.010 125.935  0.00  0.00    +0.000 C 
ATOM     15  C   UNL     1      -7.085  -2.765 124.989  0.00  0.00    +0.000 C 
ENDROOT
BRANCH   7  16
ATOM     16  C   UNL     1      -7.274   2.479 128.894  0.00  0.00    +0.000 C 
ATOM     17  C   UNL     1      -5.996   2.861 129.099  0.00  0.00    +0.000 C 
BRANCH  16  18
ATOM     18  C   UNL     1      -8.277   3.310 129.626  0.00  0.00    +0.000 A 
ATOM     19  C   UNL     1      -9.412   2.714 130.192  0.00  0.00    +0.000 A 
ATOM     20  C   UNL     1     -10.572   3.474 130.425  0.00  0.00    +0.000 A 
ATOM     21  C   UNL     1     -10.531   4.867 130.345  0.00  0.00    +0.000 A 
ATOM     22  C   UNL     1      -9.304   5.473 130.024  0.00  0.00    +0.000 A 
ATOM     23  C   UNL     1      -8.212   4.706 129.592  0.00  0.00    +0.000 A 
BRANCH  21  24
ATOM     24  C   UNL     1     -11.722   5.746 130.549  0.00  0.00    +0.000 C 
ATOM     25  O   UNL     1     -12.374   6.171 129.601  0.00  0.00    +0.000 OA
BRANCH  24  26
ATOM     26  O   UNL     1     -12.071   6.040 131.817  0.00  0.00    +0.000 OA
ATOM     27  H   UNL     1     -12.552   6.865 131.998  0.00  0.00    +0.000 HD
ENDBRANCH  24  26
ENDBRANCH  21  24
ENDBRANCH  16  18
ENDBRANCH   7  16
TORSDOF 4
ENDMDL
MODEL 9
REMARK VINA RESULT:      -7.6      3.982      6.150
REMARK  Name = Bexarotene
REMARK  9 active torsions:
REMARK  status: ('A' for Active; 'I' for Inactive)
REMARK    1  A    between atoms: C_1  and  C_2
REMARK    2  A    between atoms: C_7  and  C_8
REMARK    3  A    between atoms: C_8  and  C_10
REMARK    4  A    between atoms: C_13  and  C_16
REMARK    5  A    between atoms: C_16  and  O_17
REMARK    6  A    between atoms: C_19  and  C_20
REMARK    7  A    between atoms: C_19  and  C_21
REMARK    8  A    between atoms: C_24  and  C_25
REMARK    9  A    between atoms: C_24  and  C_26
REMARK                            x       y       z     vdW  Elec       q    Type
REMARK                         _______ _______ _______ _____ _____    ______ ____
ROOT
ATOM      1  C   UNL     1      -7.382   1.122 131.877  0.00  0.00    +0.000 C 
ATOM      2  C   UNL     1      -7.565   1.058 130.396  0.00  0.00    +0.000 A 
ATOM      3  C   UNL     1      -7.465  -0.239 129.887  0.00  0.00    +0.000 A 
ATOM      4  C   UNL     1      -7.655  -0.547 128.543  0.00  0.00    +0.000 A 
ATOM      5  C   UNL     1      -7.912   0.504 127.658  0.00  0.00    +0.000 A 
ATOM      6  C   UNL     1      -7.979   1.820 128.177  0.00  0.00    +0.000 A 
ATOM      7  C   UNL     1      -7.779   2.152 129.534  0.00  0.00    +0.000 A 
ATOM      8  C   UNL     1      -8.140   0.263 126.164  0.00  0.00    +0.000 C 
ATOM      9  C   UNL     1      -7.364   1.294 125.317  0.00  0.00    +0.000 C 
ATOM     10  C   UNL     1      -9.647   0.386 125.862  0.00  0.00    +0.000 C 
ATOM     11  C   UNL     1      -7.655  -1.144 125.748  0.00  0.00    +0.000 C 
ATOM     12  C   UNL     1      -8.174  -2.205 126.717  0.00  0.00    +0.000 C 
ATOM     13  C   UNL     1      -7.560  -2.005 128.115  0.00  0.00    +0.000 C 
ATOM     14  C   UNL     1      -8.327  -2.907 129.107  0.00  0.00    +0.000 C 
ATOM     15  C   UNL     1      -6.074  -2.414 128.091  0.00  0.00    +0.000 C 
ENDROOT
BRANCH   7  16
ATOM     16  C   UNL     1      -7.796   3.603 129.987  0.00  0.00    +0.000 C 
ATOM     17  C   UNL     1      -6.670   4.347 130.005  0.00  0.00    +0.000 C 
BRANCH  16  18
ATOM     18  C   UNL     1      -9.015   4.343 130.436  0.00  0.00    +0.000 A 
ATOM     19  C   UNL     1     -10.271   3.724 130.402  0.00  0.00    +0.000 A 
ATOM     20  C   UNL     1     -11.444   4.497 130.326  0.00  0.00    +0.000 A 
ATOM     21  C   UNL     1     -11.395   5.875 130.542  0.00  0.00    +0.000 A 
ATOM     22  C   UNL     1     -10.147   6.454 130.833  0.00  0.00    +0.000 A 
ATOM     23  C   UNL     1      -8.963   5.714 130.703  0.00  0.00    +0.000 A 
BRANCH  21  24
ATOM     24  C   UNL     1     -12.586   6.773 130.451  0.00  0.00    +0.000 C 
ATOM     25  O   UNL     1     -13.090   7.060 129.369  0.00  0.00    +0.000 OA
BRANCH  24  26
ATOM     26  O   UNL     1     -13.106   7.240 131.603  0.00  0.00    +0.000 OA
ATOM     27  H   UNL     1     -13.295   6.618 132.325  0.00  0.00    +0.000 HD
ENDBRANCH  24  26
ENDBRANCH  21  24
ENDBRANCH  16  18
ENDBRANCH   7  16
TORSDOF 4
ENDMDL
