MODEL 1
REMARK VINA RESULT:      -7.8      0.000      0.000
REMARK  Name = Bezafibrate
REMARK  10 active torsions:
REMARK  status: ('A' for Active; 'I' for Inactive)
REMARK    1  A    between atoms: C_1  and  C_2
REMARK    2  A    between atoms: C_2  and  C_3
REMARK    3  A    between atoms: C_2  and  O_4
REMARK    4  A    between atoms: C_2  and  C_23
REMARK    5  A    between atoms: O_4  and  C_5
REMARK    6  A    between atoms: C_8  and  C_9
REMARK    7  A    between atoms: C_9  and  C_10
REMARK    8  A    between atoms: C_10  and  N_11
REMARK    9  A    between atoms: C_12  and  C_14
REMARK   10  A    between atoms: C_23  and  O_24
REMARK                            x       y       z     vdW  Elec       q    Type
REMARK                         _______ _______ _______ _____ _____    ______ ____
ROOT
ATOM      1  C   UNL     1     -10.882   5.873 130.116  0.00  0.00    +0.000 A 
ATOM      2  C   UNL     1      -9.587   5.548 129.703  0.00  0.00    +0.000 A 
ATOM      3  C   UNL     1      -8.541   5.447 130.647  0.00  0.00    +0.000 A 
ATOM      4  C   UNL     1      -8.755   5.781 131.991  0.00  0.00    +0.000 A 
ATOM      5  C   UNL     1     -10.055   6.080 132.380  0.00  0.00    +0.000 A 
ATOM      6  C   UNL     1     -11.093   6.053 131.472  0.00  0.00    +0.000 A 
ENDROOT
BRANCH   1   7
ATOM      7  O   UNL     1     -11.907   5.875 129.208  0.00  0.00    +0.000 OA
BRANCH   7   9
ATOM      8  C   UNL     1     -13.731   7.156 128.006  0.00  0.00    +0.000 C 
ATOM      9  C   UNL     1     -12.303   7.123 128.567  0.00  0.00    +0.000 C 
ATOM     10  C   UNL     1     -12.129   8.279 129.561  0.00  0.00    +0.000 C 
BRANCH   9  11
ATOM     11  C   UNL     1     -11.284   7.352 127.409  0.00  0.00    +0.000 C 
ATOM     12  O   UNL     1     -10.402   8.206 127.442  0.00  0.00    +0.000 OA
BRANCH  11  13
ATOM     13  O   UNL     1     -11.409   6.580 126.299  0.00  0.00    +0.000 OA
ATOM     14  H   UNL     1     -12.295   6.396 125.941  0.00  0.00    +0.000 HD
ENDBRANCH  11  13
ENDBRANCH   9  11
ENDBRANCH   7   9
ENDBRANCH   1   7
BRANCH   4  15
ATOM     15  C   UNL     1      -7.628   5.822 132.999  0.00  0.00    +0.000 C 
BRANCH  15  16
ATOM     16  C   UNL     1      -8.027   5.284 134.382  0.00  0.00    +0.000 C 
BRANCH  16  17
ATOM     17  N   UNL     1      -8.421   6.296 135.331  0.00  0.00    +0.000 N 
ATOM     18  C   UNL     1      -7.737   6.416 136.522  0.00  0.00    +0.000 C 
ATOM     19  O   UNL     1      -6.791   5.697 136.845  0.00  0.00    +0.000 OA
ATOM     20  H   UNL     1      -9.130   6.970 135.073  0.00  0.00    +0.000 HD
BRANCH  18  21
ATOM     21  C   UNL     1      -8.195   7.479 137.444  0.00  0.00    +0.000 A 
ATOM     22  C   UNL     1      -9.273   8.295 137.074  0.00  0.00    +0.000 A 
ATOM     23  C   UNL     1      -9.631   9.384 137.875  0.00  0.00    +0.000 A 
ATOM     24  C   UNL     1      -8.952   9.614 139.071  0.00  0.00    +0.000 A 
ATOM     25 CL   UNL     1      -9.462  10.887 140.112  0.00  0.00    +0.000 Cl
ATOM     26  C   UNL     1      -7.881   8.804 139.445  0.00  0.00    +0.000 A 
ATOM     27  C   UNL     1      -7.496   7.738 138.628  0.00  0.00    +0.000 A 
ENDBRANCH  18  21
ENDBRANCH  16  17
ENDBRANCH  15  16
ENDBRANCH   4  15
TORSDOF 8
ENDMDL
MODEL 2
REMARK VINA RESULT:      -7.7      8.192     10.030
REMARK  Name = Bezafibrate
REMARK  10 active torsions:
REMARK  status: ('A' for Active; 'I' for Inactive)
REMARK    1  A    between atoms: C_1  and  C_2
REMARK    2  A    between atoms: C_2  and  C_3
REMARK    3  A    between atoms: C_2  and  O_4
REMARK    4  A    between atoms: C_2  and  C_23
REMARK    5  A    between atoms: O_4  and  C_5
REMARK    6  A    between atoms: C_8  and  C_9
REMARK    7  A    between atoms: C_9  and  C_10
REMARK    8  A    between atoms: C_10  and  N_11
REMARK    9  A    between atoms: C_12  and  C_14
REMARK   10  A    between atoms: C_23  and  O_24
REMARK                            x       y       z     vdW  Elec       q    Type
REMARK                         _______ _______ _______ _____ _____    ______ ____
ROOT
ATOM      1  C   UNL     1      -8.779  -2.572 126.499  0.00  0.00    +0.000 A 
ATOM      2  C   UNL     1      -9.147  -3.656 127.301  0.00  0.00    +0.000 A 
ATOM      3  C   UNL     1      -8.479  -3.901 128.521  0.00  0.00    +0.000 A 
ATOM      4  C   UNL     1      -7.365  -3.135 128.893  0.00  0.00    +0.000 A 
ATOM      5  C   UNL     1      -7.033  -2.050 128.091  0.00  0.00    +0.000 A 
ATOM      6  C   UNL     1      -7.773  -1.745 126.966  0.00  0.00    +0.000 A 
ENDROOT
BRANCH   1   7
ATOM      7  O   UNL     1      -9.495  -2.288 125.367  0.00  0.00    +0.000 OA
BRANCH   7   9
ATOM      8  C   UNL     1      -7.500  -3.151 124.070  0.00  0.00    +0.000 C 
ATOM      9  C   UNL     1      -8.911  -2.548 124.057  0.00  0.00    +0.000 C 
ATOM     10  C   UNL     1      -9.843  -3.473 123.263  0.00  0.00    +0.000 C 
BRANCH   9  11
ATOM     11  C   UNL     1      -8.883  -1.175 123.320  0.00  0.00    +0.000 C 
ATOM     12  O   UNL     1      -7.909  -0.427 123.318  0.00  0.00    +0.000 OA
BRANCH  11  13
ATOM     13  O   UNL     1     -10.012  -0.784 122.675  0.00  0.00    +0.000 OA
ATOM     14  H   UNL     1     -10.585  -1.454 122.264  0.00  0.00    +0.000 HD
ENDBRANCH  11  13
ENDBRANCH   9  11
ENDBRANCH   7   9
ENDBRANCH   1   7
BRANCH   4  15
ATOM     15  C   UNL     1      -6.539  -3.459 130.119  0.00  0.00    +0.000 C 
BRANCH  15  16
ATOM     16  C   UNL     1      -7.099  -2.842 131.411  0.00  0.00    +0.000 C 
BRANCH  16  17
ATOM     17  N   UNL     1      -7.955  -1.699 131.211  0.00  0.00    +0.000 N 
ATOM     18  C   UNL     1      -7.411  -0.432 131.218  0.00  0.00    +0.000 C 
ATOM     19  O   UNL     1      -6.214  -0.201 131.394  0.00  0.00    +0.000 OA
ATOM     20  H   UNL     1      -8.927  -1.842 130.970  0.00  0.00    +0.000 HD
BRANCH  18  21
ATOM     21  C   UNL     1      -8.349   0.692 131.003  0.00  0.00    +0.000 A 
ATOM     22  C   UNL     1      -8.247   1.461 129.836  0.00  0.00    +0.000 A 
ATOM     23  C   UNL     1      -9.039   2.604 129.682  0.00  0.00    +0.000 A 
ATOM     24  C   UNL     1      -9.972   2.935 130.663  0.00  0.00    +0.000 A 
ATOM     25 CL   UNL     1     -11.024   4.276 130.425  0.00  0.00    +0.000 Cl
ATOM     26  C   UNL     1     -10.079   2.171 131.825  0.00  0.00    +0.000 A 
ATOM     27  C   UNL     1      -9.262   1.051 132.000  0.00  0.00    +0.000 A 
ENDBRANCH  18  21
ENDBRANCH  16  17
ENDBRANCH  15  16
ENDBRANCH   4  15
TORSDOF 8
ENDMDL
MODEL 3
REMARK VINA RESULT:      -7.7      9.817     11.958
REMARK  Name = Bezafibrate
REMARK  10 active torsions:
REMARK  status: ('A' for Active; 'I' for Inactive)
REMARK    1  A    between atoms: C_1  and  C_2
REMARK    2  A    between atoms: C_2  and  C_3
REMARK    3  A    between atoms: C_2  and  O_4
REMARK    4  A    between atoms: C_2  and  C_23
REMARK    5  A    between atoms: O_4  and  C_5
REMARK    6  A    between atoms: C_8  and  C_9
REMARK    7  A    between atoms: C_9  and  C_10
REMARK    8  A    between atoms: C_10  and  N_11
REMARK    9  A    between atoms: C_12  and  C_14
REMARK   10  A    between atoms: C_23  and  O_24
REMARK                            x       y       z     vdW  Elec       q    Type
REMARK                         _______ _______ _______ _____ _____    ______ ____
ROOT
ATOM      1  C   UNL     1      -7.872   1.641 123.509  0.00  0.00    +0.000 A 
ATOM      2  C   UNL     1      -9.176   1.243 123.203  0.00  0.00    +0.000 A 
ATOM      3  C   UNL     1      -9.472  -0.119 122.974  0.00  0.00    +0.000 A 
ATOM      4  C   UNL     1      -8.448  -1.077 122.935  0.00  0.00    +0.000 A 
ATOM      5  C   UNL     1      -7.165  -0.660 123.263  0.00  0.00    +0.000 A 
ATOM      6  C   UNL     1      -6.909   0.652 123.609  0.00  0.00    +0.000 A 
ENDROOT
BRANCH   1   7
ATOM      7  O   UNL     1      -7.614   2.949 123.824  0.00  0.00    +0.000 OA
BRANCH   7   9
ATOM      8  C   UNL     1      -7.892   2.445 126.289  0.00  0.00    +0.000 C 
ATOM      9  C   UNL     1      -7.255   3.306 125.191  0.00  0.00    +0.000 C 
ATOM     10  C   UNL     1      -5.728   3.259 125.341  0.00  0.00    +0.000 C 
BRANCH   9  11
ATOM     11  C   UNL     1      -7.693   4.791 125.375  0.00  0.00    +0.000 C 
ATOM     12  O   UNL     1      -8.803   5.125 125.780  0.00  0.00    +0.000 OA
BRANCH  11  13
ATOM     13  O   UNL     1      -6.800   5.756 125.037  0.00  0.00    +0.000 OA
ATOM     14  H   UNL     1      -6.251   5.644 124.241  0.00  0.00    +0.000 HD
ENDBRANCH  11  13
ENDBRANCH   9  11
ENDBRANCH   7   9
ENDBRANCH   1   7
BRANCH   4  15
ATOM     15  C   UNL     1      -8.709  -2.516 122.551  0.00  0.00    +0.000 C 
BRANCH  15  16
ATOM     16  C   UNL     1      -9.383  -3.332 123.666  0.00  0.00    +0.000 C 
BRANCH  16  17
ATOM     17  N   UNL     1      -8.603  -3.463 124.872  0.00  0.00    +0.000 N 
ATOM     18  C   UNL     1      -8.885  -2.660 125.957  0.00  0.00    +0.000 C 
ATOM     19  O   UNL     1      -9.777  -1.812 125.967  0.00  0.00    +0.000 OA
ATOM     20  H   UNL     1      -7.922  -4.207 124.944  0.00  0.00    +0.000 HD
BRANCH  18  21
ATOM     21  C   UNL     1      -8.045  -2.854 127.159  0.00  0.00    +0.000 A 
ATOM     22  C   UNL     1      -8.588  -3.490 128.284  0.00  0.00    +0.000 A 
ATOM     23  C   UNL     1      -7.849  -3.561 129.470  0.00  0.00    +0.000 A 
ATOM     24  C   UNL     1      -6.550  -3.055 129.506  0.00  0.00    +0.000 A 
ATOM     25 CL   UNL     1      -5.600  -3.241 130.928  0.00  0.00    +0.000 Cl
ATOM     26  C   UNL     1      -6.005  -2.425 128.388  0.00  0.00    +0.000 A 
ATOM     27  C   UNL     1      -6.755  -2.317 127.214  0.00  0.00    +0.000 A 
ENDBRANCH  18  21
ENDBRANCH  16  17
ENDBRANCH  15  16
ENDBRANCH   4  15
TORSDOF 8
ENDMDL
MODEL 4
REMARK VINA RESULT:      -7.6      4.701      5.357
REMARK  Name = Bezafibrate
REMARK  10 active torsions:
REMARK  status: ('A' for Active; 'I' for Inactive)
REMARK    1  A    between atoms: C_1  and  C_2
REMARK    2  A    between atoms: C_2  and  C_3
REMARK    3  A    between atoms: C_2  and  O_4
REMARK    4  A    between atoms: C_2  and  C_23
REMARK    5  A    between atoms: O_4  and  C_5
REMARK    6  A    between atoms: C_8  and  C_9
REMARK    7  A    between atoms: C_9  and  C_10
REMARK    8  A    between atoms: C_10  and  N_11
REMARK    9  A    between atoms: C_12  and  C_14
REMARK   10  A    between atoms: C_23  and  O_24
REMARK                            x       y       z     vdW  Elec       q    Type
REMARK                         _______ _______ _______ _____ _____    ______ ____
ROOT
ATOM      1  C   UNL     1     -11.850   6.401 130.683  0.00  0.00    +0.000 A 
ATOM      2  C   UNL     1     -11.684   5.182 130.020  0.00  0.00    +0.000 A 
ATOM      3  C   UNL     1     -10.761   4.227 130.501  0.00  0.00    +0.000 A 
ATOM      4  C   UNL     1      -9.916   4.529 131.579  0.00  0.00    +0.000 A 
ATOM      5  C   UNL     1     -10.116   5.737 132.234  0.00  0.00    +0.000 A 
ATOM      6  C   UNL     1     -11.108   6.609 131.831  0.00  0.00    +0.000 A 
ENDROOT
BRANCH   1   7
ATOM      7  O   UNL     1     -12.815   7.278 130.265  0.00  0.00    +0.000 OA
BRANCH   7   9
ATOM      8  C   UNL     1     -11.081   8.256 128.700  0.00  0.00    +0.000 C 
ATOM      9  C   UNL     1     -12.550   8.159 129.133  0.00  0.00    +0.000 C 
ATOM     10  C   UNL     1     -13.397   7.710 127.934  0.00  0.00    +0.000 C 
BRANCH   9  11
ATOM     11  C   UNL     1     -13.062   9.568 129.558  0.00  0.00    +0.000 C 
ATOM     12  O   UNL     1     -13.140   9.936 130.728  0.00  0.00    +0.000 OA
BRANCH  11  13
ATOM     13  O   UNL     1     -13.467  10.414 128.576  0.00  0.00    +0.000 OA
ATOM     14  H   UNL     1     -14.394  10.394 128.281  0.00  0.00    +0.000 HD
ENDBRANCH  11  13
ENDBRANCH   9  11
ENDBRANCH   7   9
ENDBRANCH   1   7
BRANCH   4  15
ATOM     15  C   UNL     1      -8.820   3.589 132.029  0.00  0.00    +0.000 C 
BRANCH  15  16
ATOM     16  C   UNL     1      -7.605   3.575 131.087  0.00  0.00    +0.000 C 
BRANCH  16  17
ATOM     17  N   UNL     1      -6.500   4.396 131.518  0.00  0.00    +0.000 N 
ATOM     18  C   UNL     1      -6.380   5.683 131.036  0.00  0.00    +0.000 C 
ATOM     19  O   UNL     1      -7.167   6.192 130.238  0.00  0.00    +0.000 OA
ATOM     20  H   UNL     1      -5.881   4.057 132.242  0.00  0.00    +0.000 HD
BRANCH  18  21
ATOM     21  C   UNL     1      -5.225   6.467 131.525  0.00  0.00    +0.000 A 
ATOM     22  C   UNL     1      -4.576   7.354 130.656  0.00  0.00    +0.000 A 
ATOM     23  C   UNL     1      -3.405   8.001 131.065  0.00  0.00    +0.000 A 
ATOM     24  C   UNL     1      -2.925   7.808 132.360  0.00  0.00    +0.000 A 
ATOM     25 CL   UNL     1      -1.549   8.688 132.901  0.00  0.00    +0.000 Cl
ATOM     26  C   UNL     1      -3.570   6.929 133.229  0.00  0.00    +0.000 A 
ATOM     27  C   UNL     1      -4.717   6.250 132.811  0.00  0.00    +0.000 A 
ENDBRANCH  18  21
ENDBRANCH  16  17
ENDBRANCH  15  16
ENDBRANCH   4  15
TORSDOF 8
ENDMDL
MODEL 5
REMARK VINA RESULT:      -7.6      5.064      7.228
REMARK  Name = Bezafibrate
REMARK  10 active torsions:
REMARK  status: ('A' for Active; 'I' for Inactive)
REMARK    1  A    between atoms: C_1  and  C_2
REMARK    2  A    between atoms: C_2  and  C_3
REMARK    3  A    between atoms: C_2  and  O_4
REMARK    4  A    between atoms: C_2  and  C_23
REMARK    5  A    between atoms: O_4  and  C_5
REMARK    6  A    between atoms: C_8  and  C_9
REMARK    7  A    between atoms: C_9  and  C_10
REMARK    8  A    between atoms: C_10  and  N_11
REMARK    9  A    between atoms: C_12  and  C_14
REMARK   10  A    between atoms: C_23  and  O_24
REMARK                            x       y       z     vdW  Elec       q    Type
REMARK                         _______ _______ _______ _____ _____    ______ ____
ROOT
ATOM      1  C   UNL     1     -11.128   6.087 129.812  0.00  0.00    +0.000 A 
ATOM      2  C   UNL     1     -11.573   6.451 131.085  0.00  0.00    +0.000 A 
ATOM      3  C   UNL     1     -10.766   6.208 132.219  0.00  0.00    +0.000 A 
ATOM      4  C   UNL     1      -9.563   5.497 132.102  0.00  0.00    +0.000 A 
ATOM      5  C   UNL     1      -9.134   5.166 130.824  0.00  0.00    +0.000 A 
ATOM      6  C   UNL     1      -9.870   5.520 129.711  0.00  0.00    +0.000 A 
ENDROOT
BRANCH   1   7
ATOM      7  O   UNL     1     -11.874   6.414 128.711  0.00  0.00    +0.000 OA
BRANCH   7   9
ATOM      8  C   UNL     1     -12.833   8.728 128.341  0.00  0.00    +0.000 C 
ATOM      9  C   UNL     1     -11.705   7.719 128.084  0.00  0.00    +0.000 C 
ATOM     10  C   UNL     1     -10.374   8.330 128.541  0.00  0.00    +0.000 C 
BRANCH   9  11
ATOM     11  C   UNL     1     -11.589   7.449 126.553  0.00  0.00    +0.000 C 
ATOM     12  O   UNL     1     -10.812   8.050 125.816  0.00  0.00    +0.000 OA
BRANCH  11  13
ATOM     13  O   UNL     1     -12.417   6.518 126.014  0.00  0.00    +0.000 OA
ATOM     14  H   UNL     1     -13.125   6.801 125.409  0.00  0.00    +0.000 HD
ENDBRANCH  11  13
ENDBRANCH   9  11
ENDBRANCH   7   9
ENDBRANCH   1   7
BRANCH   4  15
ATOM     15  C   UNL     1      -8.747   5.094 133.311  0.00  0.00    +0.000 C 
BRANCH  15  16
ATOM     16  C   UNL     1      -9.045   3.667 133.799  0.00  0.00    +0.000 C 
BRANCH  16  17
ATOM     17  N   UNL     1      -8.435   2.623 133.014  0.00  0.00    +0.000 N 
ATOM     18  C   UNL     1      -9.227   1.805 132.237  0.00  0.00    +0.000 C 
ATOM     19  O   UNL     1     -10.452   1.902 132.168  0.00  0.00    +0.000 OA
ATOM     20  H   UNL     1      -7.426   2.563 132.965  0.00  0.00    +0.000 HD
BRANCH  18  21
ATOM     21  C   UNL     1      -8.531   0.758 131.456  0.00  0.00    +0.000 A 
ATOM     22  C   UNL     1      -8.163   1.018 130.129  0.00  0.00    +0.000 A 
ATOM     23  C   UNL     1      -7.624  -0.005 129.341  0.00  0.00    +0.000 A 
ATOM     24  C   UNL     1      -7.397  -1.262 129.901  0.00  0.00    +0.000 A 
ATOM     25 CL   UNL     1      -6.632  -2.488 128.967  0.00  0.00    +0.000 Cl
ATOM     26  C   UNL     1      -7.758  -1.523 131.222  0.00  0.00    +0.000 A 
ATOM     27  C   UNL     1      -8.333  -0.515 132.001  0.00  0.00    +0.000 A 
ENDBRANCH  18  21
ENDBRANCH  16  17
ENDBRANCH  15  16
ENDBRANCH   4  15
TORSDOF 8
ENDMDL
MODEL 6
REMARK VINA RESULT:      -7.5      7.971      9.527
REMARK  Name = Bezafibrate
REMARK  10 active torsions:
REMARK  status: ('A' for Active; 'I' for Inactive)
REMARK    1  A    between atoms: C_1  and  C_2
REMARK    2  A    between atoms: C_2  and  C_3
REMARK    3  A    between atoms: C_2  and  O_4
REMARK    4  A    between atoms: C_2  and  C_23
REMARK    5  A    between atoms: O_4  and  C_5
REMARK    6  A    between atoms: C_8  and  C_9
REMARK    7  A    between atoms: C_9  and  C_10
REMARK    8  A    between atoms: C_10  and  N_11
REMARK    9  A    between atoms: C_12  and  C_14
REMARK   10  A    between atoms: C_23  and  O_24
REMARK                            x       y       z     vdW  Elec       q    Type
REMARK                         _______ _______ _______ _____ _____    ______ ____
ROOT
ATOM      1  C   UNL     1      -8.775  -2.339 126.461  0.00  0.00    +0.000 A 
ATOM      2  C   UNL     1      -8.988  -3.545 127.134  0.00  0.00    +0.000 A 
ATOM      3  C   UNL     1      -8.330  -3.805 128.357  0.00  0.00    +0.000 A 
ATOM      4  C   UNL     1      -7.370  -2.914 128.858  0.00  0.00    +0.000 A 
ATOM      5  C   UNL     1      -7.194  -1.713 128.182  0.00  0.00    +0.000 A 
ATOM      6  C   UNL     1      -7.935  -1.415 127.056  0.00  0.00    +0.000 A 
ENDROOT
BRANCH   1   7
ATOM      7  O   UNL     1      -9.490  -2.056 125.328  0.00  0.00    +0.000 OA
BRANCH   7   9
ATOM      8  C   UNL     1      -7.442  -2.785 124.030  0.00  0.00    +0.000 C 
ATOM      9  C   UNL     1      -8.904  -2.321 124.019  0.00  0.00    +0.000 C 
ATOM     10  C   UNL     1      -9.756  -3.368 123.288  0.00  0.00    +0.000 C 
BRANCH   9  11
ATOM     11  C   UNL     1      -9.022  -0.989 123.219  0.00  0.00    +0.000 C 
ATOM     12  O   UNL     1      -8.149  -0.125 123.210  0.00  0.00    +0.000 OA
BRANCH  11  13
ATOM     13  O   UNL     1     -10.168  -0.770 122.524  0.00  0.00    +0.000 OA
ATOM     14  H   UNL     1     -10.300   0.083 122.075  0.00  0.00    +0.000 HD
ENDBRANCH  11  13
ENDBRANCH   9  11
ENDBRANCH   7   9
ENDBRANCH   1   7
BRANCH   4  15
ATOM     15  C   UNL     1      -6.545  -3.228 130.086  0.00  0.00    +0.000 C 
BRANCH  15  16
ATOM     16  C   UNL     1      -7.328  -3.079 131.400  0.00  0.00    +0.000 C 
BRANCH  16  17
ATOM     17  N   UNL     1      -7.839  -1.754 131.650  0.00  0.00    +0.000 N 
ATOM     18  C   UNL     1      -7.045  -0.829 132.295  0.00  0.00    +0.000 C 
ATOM     19  O   UNL     1      -5.903  -1.062 132.688  0.00  0.00    +0.000 OA
ATOM     20  H   UNL     1      -8.735  -1.486 131.264  0.00  0.00    +0.000 HD
BRANCH  18  21
ATOM     21  C   UNL     1      -7.635   0.511 132.513  0.00  0.00    +0.000 A 
ATOM     22  C   UNL     1      -6.958   1.440 133.314  0.00  0.00    +0.000 A 
ATOM     23  C   UNL     1      -7.566   2.659 133.634  0.00  0.00    +0.000 A 
ATOM     24  C   UNL     1      -8.817   2.968 133.102  0.00  0.00    +0.000 A 
ATOM     25 CL   UNL     1      -9.517   4.511 133.405  0.00  0.00    +0.000 Cl
ATOM     26  C   UNL     1      -9.493   2.048 132.302  0.00  0.00    +0.000 A 
ATOM     27  C   UNL     1      -8.906   0.813 132.012  0.00  0.00    +0.000 A 
ENDBRANCH  18  21
ENDBRANCH  16  17
ENDBRANCH  15  16
ENDBRANCH   4  15
TORSDOF 8
ENDMDL
MODEL 7
REMARK VINA RESULT:      -7.5      7.227      9.967
REMARK  Name = Bezafibrate
REMARK  10 active torsions:
REMARK  status: ('A' for Active; 'I' for Inactive)
REMARK    1  A    between atoms: C_1  and  C_2
REMARK    2  A    between atoms: C_2  and  C_3
REMARK    3  A    between atoms: C_2  and  O_4
REMARK    4  A    between atoms: C_2  and  C_23
REMARK    5  A    between atoms: O_4  and  C_5
REMARK    6  A    between atoms: C_8  and  C_9
REMARK    7  A    between atoms: C_9  and  C_10
REMARK    8  A    between atoms: C_10  and  N_11
REMARK    9  A    between atoms: C_12  and  C_14
REMARK   10  A    between atoms: C_23  and  O_24
REMARK                            x       y       z     vdW  Elec       q    Type
REMARK                         _______ _______ _______ _____ _____    ______ ____
ROOT
ATOM      1  C   UNL     1      -9.872   4.044 130.449  0.00  0.00    +0.000 A 
ATOM      2  C   UNL     1      -8.528   3.850 130.121  0.00  0.00    +0.000 A 
ATOM      3  C   UNL     1      -7.810   2.763 130.666  0.00  0.00    +0.000 A 
ATOM      4  C   UNL     1      -8.396   1.929 131.629  0.00  0.00    +0.000 A 
ATOM      5  C   UNL     1      -9.739   2.129 131.921  0.00  0.00    +0.000 A 
ATOM      6  C   UNL     1     -10.465   3.117 131.288  0.00  0.00    +0.000 A 
ENDROOT
BRANCH   1   7
ATOM      7  O   UNL     1     -10.585   5.043 129.841  0.00  0.00    +0.000 OA
BRANCH   7   9
ATOM      8  C   UNL     1      -9.092   6.899 130.701  0.00  0.00    +0.000 C 
ATOM      9  C   UNL     1     -10.503   6.405 130.356  0.00  0.00    +0.000 C 
ATOM     10  C   UNL     1     -11.135   7.367 129.340  0.00  0.00    +0.000 C 
BRANCH   9  11
ATOM     11  C   UNL     1     -11.393   6.434 131.635  0.00  0.00    +0.000 C 
ATOM     12  O   UNL     1     -12.611   6.592 131.610  0.00  0.00    +0.000 OA
BRANCH  11  13
ATOM     13  O   UNL     1     -10.772   6.307 132.836  0.00  0.00    +0.000 OA
ATOM     14  H   UNL     1     -10.375   5.453 133.081  0.00  0.00    +0.000 HD
ENDBRANCH  11  13
ENDBRANCH   9  11
ENDBRANCH   7   9
ENDBRANCH   1   7
BRANCH   4  15
ATOM     15  C   UNL     1      -7.613   0.846 132.338  0.00  0.00    +0.000 C 
BRANCH  15  16
ATOM     16  C   UNL     1      -8.223  -0.555 132.172  0.00  0.00    +0.000 C 
BRANCH  16  17
ATOM     17  N   UNL     1      -8.321  -1.011 130.808  0.00  0.00    +0.000 N 
ATOM     18  C   UNL     1      -7.730  -2.203 130.444  0.00  0.00    +0.000 C 
ATOM     19  O   UNL     1      -7.103  -2.922 131.222  0.00  0.00    +0.000 OA
ATOM     20  H   UNL     1      -8.902  -0.503 130.154  0.00  0.00    +0.000 HD
BRANCH  18  21
ATOM     21  C   UNL     1      -7.875  -2.608 129.029  0.00  0.00    +0.000 A 
ATOM     22  C   UNL     1      -7.203  -1.887 128.033  0.00  0.00    +0.000 A 
ATOM     23  C   UNL     1      -7.435  -2.177 126.684  0.00  0.00    +0.000 A 
ATOM     24  C   UNL     1      -8.287  -3.226 126.340  0.00  0.00    +0.000 A 
ATOM     25 CL   UNL     1      -8.487  -3.655 124.685  0.00  0.00    +0.000 Cl
ATOM     26  C   UNL     1      -8.955  -3.948 127.327  0.00  0.00    +0.000 A 
ATOM     27  C   UNL     1      -8.756  -3.636 128.675  0.00  0.00    +0.000 A 
ENDBRANCH  18  21
ENDBRANCH  16  17
ENDBRANCH  15  16
ENDBRANCH   4  15
TORSDOF 8
ENDMDL
MODEL 8
REMARK VINA RESULT:      -7.3      6.704     10.051
REMARK  Name = Bezafibrate
REMARK  10 active torsions:
REMARK  status: ('A' for Active; 'I' for Inactive)
REMARK    1  A    between atoms: C_1  and  C_2
REMARK    2  A    between atoms: C_2  and  C_3
REMARK    3  A    between atoms: C_2  and  O_4
REMARK    4  A    between atoms: C_2  and  C_23
REMARK    5  A    between atoms: O_4  and  C_5
REMARK    6  A    between atoms: C_8  and  C_9
REMARK    7  A    between atoms: C_9  and  C_10
REMARK    8  A    between atoms: C_10  and  N_11
REMARK    9  A    between atoms: C_12  and  C_14
REMARK   10  A    between atoms: C_23  and  O_24
REMARK                            x       y       z     vdW  Elec       q    Type
REMARK                         _______ _______ _______ _____ _____    ______ ____
ROOT
ATOM      1  C   UNL     1     -10.055   5.492 130.166  0.00  0.00    +0.000 A 
ATOM      2  C   UNL     1     -10.534   4.298 130.711  0.00  0.00    +0.000 A 
ATOM      3  C   UNL     1      -9.915   3.069 130.392  0.00  0.00    +0.000 A 
ATOM      4  C   UNL     1      -8.888   3.011 129.439  0.00  0.00    +0.000 A 
ATOM      5  C   UNL     1      -8.416   4.214 128.929  0.00  0.00    +0.000 A 
ATOM      6  C   UNL     1      -8.945   5.420 129.344  0.00  0.00    +0.000 A 
ENDROOT
BRANCH   1   7
ATOM      7  O   UNL     1     -10.601   6.686 130.556  0.00  0.00    +0.000 OA
BRANCH   7   9
ATOM      8  C   UNL     1     -12.575   6.179 129.054  0.00  0.00    +0.000 C 
ATOM      9  C   UNL     1     -11.773   7.207 129.863  0.00  0.00    +0.000 C 
ATOM     10  C   UNL     1     -12.705   7.879 130.880  0.00  0.00    +0.000 C 
BRANCH   9  11
ATOM     11  C   UNL     1     -11.247   8.322 128.910  0.00  0.00    +0.000 C 
ATOM     12  O   UNL     1     -10.056   8.499 128.666  0.00  0.00    +0.000 OA
BRANCH  11  13
ATOM     13  O   UNL     1     -12.161   9.155 128.349  0.00  0.00    +0.000 OA
ATOM     14  H   UNL     1     -13.036   8.807 128.101  0.00  0.00    +0.000 HD
ENDBRANCH  11  13
ENDBRANCH   9  11
ENDBRANCH   7   9
ENDBRANCH   1   7
BRANCH   4  15
ATOM     15  C   UNL     1      -8.301   1.699 128.969  0.00  0.00    +0.000 C 
BRANCH  15  16
ATOM     16  C   UNL     1      -8.681   1.347 127.521  0.00  0.00    +0.000 C 
BRANCH  16  17
ATOM     17  N   UNL     1      -7.810   1.906 126.517  0.00  0.00    +0.000 N 
ATOM     18  C   UNL     1      -8.335   2.304 125.306  0.00  0.00    +0.000 C 
ATOM     19  O   UNL     1      -9.526   2.207 125.010  0.00  0.00    +0.000 OA
ATOM     20  H   UNL     1      -6.843   2.093 126.746  0.00  0.00    +0.000 HD
BRANCH  18  21
ATOM     21  C   UNL     1      -7.382   2.873 124.327  0.00  0.00    +0.000 A 
ATOM     22  C   UNL     1      -6.289   3.622 124.783  0.00  0.00    +0.000 A 
ATOM     23  C   UNL     1      -5.458   4.274 123.866  0.00  0.00    +0.000 A 
ATOM     24  C   UNL     1      -5.684   4.121 122.499  0.00  0.00    +0.000 A 
ATOM     25 CL   UNL     1      -4.598   4.830 121.369  0.00  0.00    +0.000 Cl
ATOM     26  C   UNL     1      -6.768   3.373 122.040  0.00  0.00    +0.000 A 
ATOM     27  C   UNL     1      -7.624   2.753 122.954  0.00  0.00    +0.000 A 
ENDBRANCH  18  21
ENDBRANCH  16  17
ENDBRANCH  15  16
ENDBRANCH   4  15
TORSDOF 8
ENDMDL
MODEL 9
REMARK VINA RESULT:      -7.3      4.191      5.215
REMARK  Name = Bezafibrate
REMARK  10 active torsions:
REMARK  status: ('A' for Active; 'I' for Inactive)
REMARK    1  A    between atoms: C_1  and  C_2
REMARK    2  A    between atoms: C_2  and  C_3
REMARK    3  A    between atoms: C_2  and  O_4
REMARK    4  A    between atoms: C_2  and  C_23
REMARK    5  A    between atoms: O_4  and  C_5
REMARK    6  A    between atoms: C_8  and  C_9
REMARK    7  A    between atoms: C_9  and  C_10
REMARK    8  A    between atoms: C_10  and  N_11
REMARK    9  A    between atoms: C_12  and  C_14
REMARK   10  A    between atoms: C_23  and  O_24
REMARK                            x       y       z     vdW  Elec       q    Type
REMARK                         _______ _______ _______ _____ _____    ______ ____
ROOT
ATOM      1  C   UNL     1     -11.347   6.145 129.957  0.00  0.00    +0.000 A 
ATOM      2  C   UNL     1     -10.034   5.813 129.613  0.00  0.00    +0.000 A 
ATOM      3  C   UNL     1      -9.058   5.626 130.618  0.00  0.00    +0.000 A 
ATOM      4  C   UNL     1      -9.359   5.881 131.963  0.00  0.00    +0.000 A 
ATOM      5  C   UNL     1     -10.676   6.189 132.281  0.00  0.00    +0.000 A 
ATOM      6  C   UNL     1     -11.649   6.245 131.303  0.00  0.00    +0.000 A 
ENDROOT
BRANCH   1   7
ATOM      7  O   UNL     1     -12.306   6.229 128.983  0.00  0.00    +0.000 OA
BRANCH   7   9
ATOM      8  C   UNL     1     -13.887   7.696 127.656  0.00  0.00    +0.000 C 
ATOM      9  C   UNL     1     -12.492   7.480 128.257  0.00  0.00    +0.000 C 
ATOM     10  C   UNL     1     -12.159   8.656 129.186  0.00  0.00    +0.000 C 
BRANCH   9  11
ATOM     11  C   UNL     1     -11.429   7.476 127.117  0.00  0.00    +0.000 C 
ATOM     12  O   UNL     1     -10.582   8.354 126.977  0.00  0.00    +0.000 OA
BRANCH  11  13
ATOM     13  O   UNL     1     -11.472   6.458 126.220  0.00  0.00    +0.000 OA
ATOM     14  H   UNL     1     -11.112   6.592 125.326  0.00  0.00    +0.000 HD
ENDBRANCH  11  13
ENDBRANCH   9  11
ENDBRANCH   7   9
ENDBRANCH   1   7
BRANCH   4  15
ATOM     15  C   UNL     1      -8.304   5.831 133.046  0.00  0.00    +0.000 C 
BRANCH  15  16
ATOM     16  C   UNL     1      -7.117   4.918 132.698  0.00  0.00    +0.000 C 
BRANCH  16  17
ATOM     17  N   UNL     1      -5.820   5.495 132.950  0.00  0.00    +0.000 N 
ATOM     18  C   UNL     1      -5.123   6.083 131.916  0.00  0.00    +0.000 C 
ATOM     19  O   UNL     1      -5.539   6.146 130.759  0.00  0.00    +0.000 OA
ATOM     20  H   UNL     1      -5.477   5.550 133.900  0.00  0.00    +0.000 HD
BRANCH  18  21
ATOM     21  C   UNL     1      -3.801   6.656 132.251  0.00  0.00    +0.000 A 
ATOM     22  C   UNL     1      -2.742   6.527 131.341  0.00  0.00    +0.000 A 
ATOM     23  C   UNL     1      -1.458   6.947 131.701  0.00  0.00    +0.000 A 
ATOM     24  C   UNL     1      -1.251   7.552 132.940  0.00  0.00    +0.000 A 
ATOM     25 CL   UNL     1       0.305   8.171 133.339  0.00  0.00    +0.000 Cl
ATOM     26  C   UNL     1      -2.301   7.687 133.846  0.00  0.00    +0.000 A 
ATOM     27  C   UNL     1      -3.578   7.232 133.506  0.00  0.00    +0.000 A 
ENDBRANCH  18  21
ENDBRANCH  16  17
ENDBRANCH  15  16
ENDBRANCH   4  15
TORSDOF 8
ENDMDL
