MODEL 1
REMARK VINA RESULT:      -8.1      0.000      0.000
REMARK  Name = Bicalutamide
REMARK  9 active torsions:
REMARK  status: ('A' for Active; 'I' for Inactive)
REMARK    1  A    between atoms: C_1  and  C_2
REMARK    2  A    between atoms: C_2  and  O_3
REMARK    3  A    between atoms: C_2  and  C_4
REMARK    4  A    between atoms: C_2  and  C_15
REMARK    5  A    between atoms: C_4  and  S_5
REMARK    6  A    between atoms: S_5  and  C_8
REMARK    7  A    between atoms: N_17  and  C_18
REMARK    8  A    between atoms: C_20  and  C_26
REMARK    9  A    between atoms: C_21  and  C_24
REMARK                            x       y       z     vdW  Elec       q    Type
REMARK                         _______ _______ _______ _____ _____    ______ ____
ROOT
ATOM      1  C   UNL     1      -7.463   2.720 125.826  0.00  0.00    +0.000 C 
ATOM      2  O   UNL     1      -8.642   2.671 126.191  0.00  0.00    +0.000 OA
ATOM      3  N   UNL     1      -6.624   1.606 125.927  0.00  0.00    +0.000 N 
ATOM      4  H   UNL     1      -5.634   1.694 125.735  0.00  0.00    +0.000 HD
ENDROOT
BRANCH   3   5
ATOM      5  C   UNL     1      -7.123   0.340 126.349  0.00  0.00    +0.000 A 
ATOM      6  C   UNL     1      -7.531  -0.600 125.395  0.00  0.00    +0.000 A 
ATOM      7  C   UNL     1      -8.073  -1.854 125.751  0.00  0.00    +0.000 A 
ATOM      8  C   UNL     1      -8.190  -2.185 127.105  0.00  0.00    +0.000 A 
ATOM      9  C   UNL     1      -7.795  -1.247 128.072  0.00  0.00    +0.000 A 
ATOM     10  C   UNL     1      -7.239  -0.003 127.698  0.00  0.00    +0.000 A 
BRANCH   7  11
ATOM     11  C   UNL     1      -8.503  -2.773 124.635  0.00  0.00    +0.000 C 
ATOM     12  F   UNL     1      -8.443  -2.161 123.421  0.00  0.00    +0.000 F 
ATOM     13  F   UNL     1      -7.702  -3.871 124.548  0.00  0.00    +0.000 F 
ATOM     14  F   UNL     1      -9.769  -3.250 124.734  0.00  0.00    +0.000 F 
ENDBRANCH   7  11
BRANCH   8  15
ATOM     15  C   UNL     1      -8.665  -3.480 127.524  0.00  0.00    +0.000 C 
ATOM     16  N   UNL     1      -8.999  -4.533 127.867  0.00  0.00    +0.000 NA
ENDBRANCH   8  15
ENDBRANCH   3   5
BRANCH   1  18
ATOM     17  C   UNL     1      -5.958   4.618 126.423  0.00  0.00    +0.000 C 
ATOM     18  C   UNL     1      -6.863   4.073 125.300  0.00  0.00    +0.000 C 
BRANCH  18  19
ATOM     19  O   UNL     1      -7.950   4.971 125.069  0.00  0.00    +0.000 OA
ATOM     20  H   UNL     1      -8.088   5.519 125.872  0.00  0.00    +0.000 HD
ENDBRANCH  18  19
BRANCH  18  21
ATOM     21  C   UNL     1      -6.058   3.866 124.007  0.00  0.00    +0.000 C 
BRANCH  21  22
ATOM     22  S   UNL     1      -7.062   3.128 122.720  0.00  0.00    +0.000 S 
ATOM     23  O   UNL     1      -6.711   1.721 122.662  0.00  0.00    +0.000 OA
ATOM     24  O   UNL     1      -8.443   3.533 122.897  0.00  0.00    +0.000 OA
BRANCH  22  25
ATOM     25  C   UNL     1      -6.627   3.830 121.156  0.00  0.00    +0.000 A 
ATOM     26  C   UNL     1      -5.395   4.437 120.922  0.00  0.00    +0.000 A 
ATOM     27  C   UNL     1      -5.198   5.122 119.720  0.00  0.00    +0.000 A 
ATOM     28  C   UNL     1      -6.219   5.179 118.773  0.00  0.00    +0.000 A 
ATOM     29  F   UNL     1      -6.023   5.853 117.633  0.00  0.00    +0.000 F 
ATOM     30  C   UNL     1      -7.440   4.557 118.996  0.00  0.00    +0.000 A 
ATOM     31  C   UNL     1      -7.649   3.879 120.194  0.00  0.00    +0.000 A 
ENDBRANCH  22  25
ENDBRANCH  21  22
ENDBRANCH  18  21
ENDBRANCH   1  18
TORSDOF 8
ENDMDL
MODEL 2
REMARK VINA RESULT:      -8.1      8.936     11.416
REMARK  Name = Bicalutamide
REMARK  9 active torsions:
REMARK  status: ('A' for Active; 'I' for Inactive)
REMARK    1  A    between atoms: C_1  and  C_2
REMARK    2  A    between atoms: C_2  and  O_3
REMARK    3  A    between atoms: C_2  and  C_4
REMARK    4  A    between atoms: C_2  and  C_15
REMARK    5  A    between atoms: C_4  and  S_5
REMARK    6  A    between atoms: S_5  and  C_8
REMARK    7  A    between atoms: N_17  and  C_18
REMARK    8  A    between atoms: C_20  and  C_26
REMARK    9  A    between atoms: C_21  and  C_24
REMARK                            x       y       z     vdW  Elec       q    Type
REMARK                         _______ _______ _______ _____ _____    ______ ____
ROOT
ATOM      1  C   UNL     1      -9.375   5.234 132.637  0.00  0.00    +0.000 C 
ATOM      2  O   UNL     1      -9.001   6.397 132.815  0.00  0.00    +0.000 OA
ATOM      3  N   UNL     1     -10.495   4.942 131.853  0.00  0.00    +0.000 N 
ATOM      4  H   UNL     1     -10.859   3.998 131.814  0.00  0.00    +0.000 HD
ENDROOT
BRANCH   3   5
ATOM      5  C   UNL     1     -11.184   5.964 131.136  0.00  0.00    +0.000 A 
ATOM      6  C   UNL     1     -10.837   6.235 129.807  0.00  0.00    +0.000 A 
ATOM      7  C   UNL     1     -11.452   7.262 129.059  0.00  0.00    +0.000 A 
ATOM      8  C   UNL     1     -12.460   8.028 129.655  0.00  0.00    +0.000 A 
ATOM      9  C   UNL     1     -12.809   7.774 130.990  0.00  0.00    +0.000 A 
ATOM     10  C   UNL     1     -12.196   6.731 131.720  0.00  0.00    +0.000 A 
BRANCH   7  11
ATOM     11  C   UNL     1     -10.976   7.478 127.644  0.00  0.00    +0.000 C 
ATOM     12  F   UNL     1      -9.970   6.624 127.311  0.00  0.00    +0.000 F 
ATOM     13  F   UNL     1     -11.970   7.267 126.739  0.00  0.00    +0.000 F 
ATOM     14  F   UNL     1     -10.496   8.719 127.379  0.00  0.00    +0.000 F 
ENDBRANCH   7  11
BRANCH   8  15
ATOM     15  C   UNL     1     -13.174   9.038 128.913  0.00  0.00    +0.000 C 
ATOM     16  N   UNL     1     -13.786   9.838 128.346  0.00  0.00    +0.000 NA
ENDBRANCH   8  15
ENDBRANCH   3   5
BRANCH   1  18
ATOM     17  C   UNL     1      -9.420   2.771 133.034  0.00  0.00    +0.000 C 
ATOM     18  C   UNL     1      -8.628   4.054 133.356  0.00  0.00    +0.000 C 
BRANCH  18  19
ATOM     19  O   UNL     1      -8.662   4.309 134.762  0.00  0.00    +0.000 OA
ATOM     20  H   UNL     1      -7.864   4.822 135.013  0.00  0.00    +0.000 HD
ENDBRANCH  18  19
BRANCH  18  21
ATOM     21  C   UNL     1      -7.175   3.930 132.872  0.00  0.00    +0.000 C 
BRANCH  21  22
ATOM     22  S   UNL     1      -6.016   4.455 134.132  0.00  0.00    +0.000 S 
ATOM     23  O   UNL     1      -6.413   5.789 134.545  0.00  0.00    +0.000 OA
ATOM     24  O   UNL     1      -5.863   3.398 135.113  0.00  0.00    +0.000 OA
BRANCH  22  25
ATOM     25  C   UNL     1      -4.400   4.596 133.427  0.00  0.00    +0.000 A 
ATOM     26  C   UNL     1      -3.504   3.530 133.383  0.00  0.00    +0.000 A 
ATOM     27  C   UNL     1      -2.190   3.771 132.973  0.00  0.00    +0.000 A 
ATOM     28  C   UNL     1      -1.796   5.056 132.605  0.00  0.00    +0.000 A 
ATOM     29  F   UNL     1      -0.530   5.275 132.231  0.00  0.00    +0.000 F 
ATOM     30  C   UNL     1      -2.694   6.115 132.628  0.00  0.00    +0.000 A 
ATOM     31  C   UNL     1      -4.004   5.888 133.043  0.00  0.00    +0.000 A 
ENDBRANCH  22  25
ENDBRANCH  21  22
ENDBRANCH  18  21
ENDBRANCH   1  18
TORSDOF 8
ENDMDL
MODEL 3
REMARK VINA RESULT:      -7.9      4.882      7.943
REMARK  Name = Bicalutamide
REMARK  9 active torsions:
REMARK  status: ('A' for Active; 'I' for Inactive)
REMARK    1  A    between atoms: C_1  and  C_2
REMARK    2  A    between atoms: C_2  and  O_3
REMARK    3  A    between atoms: C_2  and  C_4
REMARK    4  A    between atoms: C_2  and  C_15
REMARK    5  A    between atoms: C_4  and  S_5
REMARK    6  A    between atoms: S_5  and  C_8
REMARK    7  A    between atoms: N_17  and  C_18
REMARK    8  A    between atoms: C_20  and  C_26
REMARK    9  A    between atoms: C_21  and  C_24
REMARK                            x       y       z     vdW  Elec       q    Type
REMARK                         _______ _______ _______ _____ _____    ______ ____
ROOT
ATOM      1  C   UNL     1      -6.255   3.983 125.797  0.00  0.00    +0.000 C 
ATOM      2  O   UNL     1      -6.942   4.663 126.565  0.00  0.00    +0.000 OA
ATOM      3  N   UNL     1      -4.961   3.580 126.142  0.00  0.00    +0.000 N 
ATOM      4  H   UNL     1      -4.369   3.126 125.458  0.00  0.00    +0.000 HD
ENDROOT
BRANCH   3   5
ATOM      5  C   UNL     1      -4.424   3.843 127.436  0.00  0.00    +0.000 A 
ATOM      6  C   UNL     1      -3.715   5.027 127.667  0.00  0.00    +0.000 A 
ATOM      7  C   UNL     1      -3.123   5.324 128.914  0.00  0.00    +0.000 A 
ATOM      8  C   UNL     1      -3.265   4.415 129.968  0.00  0.00    +0.000 A 
ATOM      9  C   UNL     1      -3.965   3.219 129.746  0.00  0.00    +0.000 A 
ATOM     10  C   UNL     1      -4.566   2.945 128.497  0.00  0.00    +0.000 A 
BRANCH   7  11
ATOM     11  C   UNL     1      -2.359   6.618 129.035  0.00  0.00    +0.000 C 
ATOM     12  F   UNL     1      -2.055   7.146 127.818  0.00  0.00    +0.000 F 
ATOM     13  F   UNL     1      -3.077   7.569 129.693  0.00  0.00    +0.000 F 
ATOM     14  F   UNL     1      -1.176   6.532 129.694  0.00  0.00    +0.000 F 
ENDBRANCH   7  11
BRANCH   8  15
ATOM     15  C   UNL     1      -2.746   4.702 131.283  0.00  0.00    +0.000 C 
ATOM     16  N   UNL     1      -2.346   4.978 132.331  0.00  0.00    +0.000 NA
ENDBRANCH   8  15
ENDBRANCH   3   5
BRANCH   1  18
ATOM     17  C   UNL     1      -5.759   4.103 123.355  0.00  0.00    +0.000 C 
ATOM     18  C   UNL     1      -6.807   3.613 124.374  0.00  0.00    +0.000 C 
BRANCH  18  19
ATOM     19  O   UNL     1      -8.037   4.316 124.187  0.00  0.00    +0.000 OA
ATOM     20  H   UNL     1      -7.840   5.246 123.944  0.00  0.00    +0.000 HD
ENDBRANCH  18  19
BRANCH  18  21
ATOM     21  C   UNL     1      -7.032   2.099 124.235  0.00  0.00    +0.000 C 
BRANCH  21  22
ATOM     22  S   UNL     1      -8.775   1.688 124.271  0.00  0.00    +0.000 S 
ATOM     23  O   UNL     1      -9.315   2.240 125.501  0.00  0.00    +0.000 OA
ATOM     24  O   UNL     1      -9.374   2.020 122.994  0.00  0.00    +0.000 OA
BRANCH  22  25
ATOM     25  C   UNL     1      -8.967  -0.068 124.370  0.00  0.00    +0.000 A 
ATOM     26  C   UNL     1      -9.014  -0.751 125.584  0.00  0.00    +0.000 A 
ATOM     27  C   UNL     1      -8.987  -2.148 125.572  0.00  0.00    +0.000 A 
ATOM     28  C   UNL     1      -8.928  -2.836 124.362  0.00  0.00    +0.000 A 
ATOM     29  F   UNL     1      -8.885  -4.174 124.366  0.00  0.00    +0.000 F 
ATOM     30  C   UNL     1      -8.902  -2.157 123.151  0.00  0.00    +0.000 A 
ATOM     31  C   UNL     1      -8.920  -0.764 123.152  0.00  0.00    +0.000 A 
ENDBRANCH  22  25
ENDBRANCH  21  22
ENDBRANCH  18  21
ENDBRANCH   1  18
TORSDOF 8
ENDMDL
MODEL 4
REMARK VINA RESULT:      -7.8      6.820     10.153
REMARK  Name = Bicalutamide
REMARK  9 active torsions:
REMARK  status: ('A' for Active; 'I' for Inactive)
REMARK    1  A    between atoms: C_1  and  C_2
REMARK    2  A    between atoms: C_2  and  O_3
REMARK    3  A    between atoms: C_2  and  C_4
REMARK    4  A    between atoms: C_2  and  C_15
REMARK    5  A    between atoms: C_4  and  S_5
REMARK    6  A    between atoms: S_5  and  C_8
REMARK    7  A    between atoms: N_17  and  C_18
REMARK    8  A    between atoms: C_20  and  C_26
REMARK    9  A    between atoms: C_21  and  C_24
REMARK                            x       y       z     vdW  Elec       q    Type
REMARK                         _______ _______ _______ _____ _____    ______ ____
ROOT
ATOM      1  C   UNL     1      -9.144   5.028 131.956  0.00  0.00    +0.000 C 
ATOM      2  O   UNL     1      -8.515   6.066 131.727  0.00  0.00    +0.000 OA
ATOM      3  N   UNL     1     -10.506   4.923 131.660  0.00  0.00    +0.000 N 
ATOM      4  H   UNL     1     -11.032   4.112 131.961  0.00  0.00    +0.000 HD
ENDROOT
BRANCH   3   5
ATOM      5  C   UNL     1     -11.199   5.967 130.982  0.00  0.00    +0.000 A 
ATOM      6  C   UNL     1     -10.940   6.209 129.628  0.00  0.00    +0.000 A 
ATOM      7  C   UNL     1     -11.562   7.255 128.912  0.00  0.00    +0.000 A 
ATOM      8  C   UNL     1     -12.489   8.071 129.570  0.00  0.00    +0.000 A 
ATOM      9  C   UNL     1     -12.750   7.846 130.930  0.00  0.00    +0.000 A 
ATOM     10  C   UNL     1     -12.131   6.784 131.627  0.00  0.00    +0.000 A 
BRANCH   7  11
ATOM     11  C   UNL     1     -11.182   7.435 127.464  0.00  0.00    +0.000 C 
ATOM     12  F   UNL     1     -10.108   6.671 127.122  0.00  0.00    +0.000 F 
ATOM     13  F   UNL     1     -12.191   7.069 126.628  0.00  0.00    +0.000 F 
ATOM     14  F   UNL     1     -10.850   8.701 127.107  0.00  0.00    +0.000 F 
ENDBRANCH   7  11
BRANCH   8  15
ATOM     15  C   UNL     1     -13.210   9.104 128.869  0.00  0.00    +0.000 C 
ATOM     16  N   UNL     1     -13.830   9.913 128.322  0.00  0.00    +0.000 NA
ENDBRANCH   8  15
ENDBRANCH   3   5
BRANCH   1  18
ATOM     17  C   UNL     1      -8.842   3.858 134.139  0.00  0.00    +0.000 C 
ATOM     18  C   UNL     1      -8.426   3.818 132.655  0.00  0.00    +0.000 C 
BRANCH  18  19
ATOM     19  O   UNL     1      -7.016   4.019 132.536  0.00  0.00    +0.000 OA
ATOM     20  H   UNL     1      -6.550   3.323 133.047  0.00  0.00    +0.000 HD
ENDBRANCH  18  19
BRANCH  18  21
ATOM     21  C   UNL     1      -8.829   2.480 132.015  0.00  0.00    +0.000 C 
BRANCH  21  22
ATOM     22  S   UNL     1      -8.396   2.426 130.278  0.00  0.00    +0.000 S 
ATOM     23  O   UNL     1      -9.534   2.943 129.540  0.00  0.00    +0.000 OA
ATOM     24  O   UNL     1      -7.079   3.004 130.094  0.00  0.00    +0.000 OA
BRANCH  22  25
ATOM     25  C   UNL     1      -8.180   0.744 129.775  0.00  0.00    +0.000 A 
ATOM     26  C   UNL     1      -8.244  -0.322 130.670  0.00  0.00    +0.000 A 
ATOM     27  C   UNL     1      -7.887  -1.597 130.226  0.00  0.00    +0.000 A 
ATOM     28  C   UNL     1      -7.487  -1.792 128.905  0.00  0.00    +0.000 A 
ATOM     29  F   UNL     1      -7.132  -3.016 128.498  0.00  0.00    +0.000 F 
ATOM     30  C   UNL     1      -7.443  -0.734 128.006  0.00  0.00    +0.000 A 
ATOM     31  C   UNL     1      -7.789   0.543 128.441  0.00  0.00    +0.000 A 
ENDBRANCH  22  25
ENDBRANCH  21  22
ENDBRANCH  18  21
ENDBRANCH   1  18
TORSDOF 8
ENDMDL
MODEL 5
REMARK VINA RESULT:      -7.7      5.704      7.150
REMARK  Name = Bicalutamide
REMARK  9 active torsions:
REMARK  status: ('A' for Active; 'I' for Inactive)
REMARK    1  A    between atoms: C_1  and  C_2
REMARK    2  A    between atoms: C_2  and  O_3
REMARK    3  A    between atoms: C_2  and  C_4
REMARK    4  A    between atoms: C_2  and  C_15
REMARK    5  A    between atoms: C_4  and  S_5
REMARK    6  A    between atoms: S_5  and  C_8
REMARK    7  A    between atoms: N_17  and  C_18
REMARK    8  A    between atoms: C_20  and  C_26
REMARK    9  A    between atoms: C_21  and  C_24
REMARK                            x       y       z     vdW  Elec       q    Type
REMARK                         _______ _______ _______ _____ _____    ______ ____
ROOT
ATOM      1  C   UNL     1      -7.887   3.275 128.268  0.00  0.00    +0.000 C 
ATOM      2  O   UNL     1      -8.916   2.595 128.328  0.00  0.00    +0.000 OA
ATOM      3  N   UNL     1      -7.869   4.605 128.699  0.00  0.00    +0.000 N 
ATOM      4  H   UNL     1      -7.054   5.184 128.534  0.00  0.00    +0.000 HD
ENDROOT
BRANCH   3   5
ATOM      5  C   UNL     1      -9.004   5.196 129.327  0.00  0.00    +0.000 A 
ATOM      6  C   UNL     1      -9.739   6.178 128.654  0.00  0.00    +0.000 A 
ATOM      7  C   UNL     1     -10.846   6.830 129.239  0.00  0.00    +0.000 A 
ATOM      8  C   UNL     1     -11.240   6.472 130.533  0.00  0.00    +0.000 A 
ATOM      9  C   UNL     1     -10.504   5.496 131.224  0.00  0.00    +0.000 A 
ATOM     10  C   UNL     1      -9.409   4.841 130.616  0.00  0.00    +0.000 A 
BRANCH   7  11
ATOM     11  C   UNL     1     -11.544   7.891 128.426  0.00  0.00    +0.000 C 
ATOM     12  F   UNL     1     -11.695   9.049 129.126  0.00  0.00    +0.000 F 
ATOM     13  F   UNL     1     -10.841   8.212 127.306  0.00  0.00    +0.000 F 
ATOM     14  F   UNL     1     -12.789   7.565 127.998  0.00  0.00    +0.000 F 
ENDBRANCH   7  11
BRANCH   8  15
ATOM     15  C   UNL     1     -12.408   7.050 131.150  0.00  0.00    +0.000 C 
ATOM     16  N   UNL     1     -13.330   7.495 131.688  0.00  0.00    +0.000 NA
ENDBRANCH   8  15
ENDBRANCH   3   5
BRANCH   1  18
ATOM     17  C   UNL     1      -6.410   1.265 128.248  0.00  0.00    +0.000 C 
ATOM     18  C   UNL     1      -6.585   2.668 127.634  0.00  0.00    +0.000 C 
BRANCH  18  19
ATOM     19  O   UNL     1      -5.488   3.505 128.006  0.00  0.00    +0.000 OA
ATOM     20  H   UNL     1      -5.510   3.648 128.977  0.00  0.00    +0.000 HD
ENDBRANCH  18  19
BRANCH  18  21
ATOM     21  C   UNL     1      -6.693   2.581 126.103  0.00  0.00    +0.000 C 
BRANCH  21  22
ATOM     22  S   UNL     1      -5.929   3.993 125.309  0.00  0.00    +0.000 S 
ATOM     23  O   UNL     1      -6.691   5.164 125.702  0.00  0.00    +0.000 OA
ATOM     24  O   UNL     1      -4.496   3.946 125.522  0.00  0.00    +0.000 OA
BRANCH  22  25
ATOM     25  C   UNL     1      -6.088   3.842 123.555  0.00  0.00    +0.000 A 
ATOM     26  C   UNL     1      -5.140   4.349 122.668  0.00  0.00    +0.000 A 
ATOM     27  C   UNL     1      -5.427   4.346 121.301  0.00  0.00    +0.000 A 
ATOM     28  C   UNL     1      -6.637   3.832 120.841  0.00  0.00    +0.000 A 
ATOM     29  F   UNL     1      -6.906   3.851 119.530  0.00  0.00    +0.000 F 
ATOM     30  C   UNL     1      -7.575   3.308 121.722  0.00  0.00    +0.000 A 
ATOM     31  C   UNL     1      -7.302   3.313 123.087  0.00  0.00    +0.000 A 
ENDBRANCH  22  25
ENDBRANCH  21  22
ENDBRANCH  18  21
ENDBRANCH   1  18
TORSDOF 8
ENDMDL
MODEL 6
REMARK VINA RESULT:      -7.6      4.032      7.423
REMARK  Name = Bicalutamide
REMARK  9 active torsions:
REMARK  status: ('A' for Active; 'I' for Inactive)
REMARK    1  A    between atoms: C_1  and  C_2
REMARK    2  A    between atoms: C_2  and  O_3
REMARK    3  A    between atoms: C_2  and  C_4
REMARK    4  A    between atoms: C_2  and  C_15
REMARK    5  A    between atoms: C_4  and  S_5
REMARK    6  A    between atoms: S_5  and  C_8
REMARK    7  A    between atoms: N_17  and  C_18
REMARK    8  A    between atoms: C_20  and  C_26
REMARK    9  A    between atoms: C_21  and  C_24
REMARK                            x       y       z     vdW  Elec       q    Type
REMARK                         _______ _______ _______ _____ _____    ______ ____
ROOT
ATOM      1  C   UNL     1      -6.114   3.788 124.053  0.00  0.00    +0.000 C 
ATOM      2  O   UNL     1      -5.781   4.976 124.002  0.00  0.00    +0.000 OA
ATOM      3  N   UNL     1      -5.713   2.965 125.109  0.00  0.00    +0.000 N 
ATOM      4  H   UNL     1      -5.893   1.969 125.077  0.00  0.00    +0.000 HD
ENDROOT
BRANCH   3   5
ATOM      5  C   UNL     1      -4.998   3.489 126.226  0.00  0.00    +0.000 A 
ATOM      6  C   UNL     1      -5.690   3.837 127.392  0.00  0.00    +0.000 A 
ATOM      7  C   UNL     1      -5.045   4.400 128.515  0.00  0.00    +0.000 A 
ATOM      8  C   UNL     1      -3.661   4.601 128.475  0.00  0.00    +0.000 A 
ATOM      9  C   UNL     1      -2.958   4.266 127.307  0.00  0.00    +0.000 A 
ATOM     10  C   UNL     1      -3.616   3.687 126.199  0.00  0.00    +0.000 A 
BRANCH   7  11
ATOM     11  C   UNL     1      -5.899   4.761 129.705  0.00  0.00    +0.000 C 
ATOM     12  F   UNL     1      -5.737   6.062 130.070  0.00  0.00    +0.000 F 
ATOM     13  F   UNL     1      -7.224   4.601 129.442  0.00  0.00    +0.000 F 
ATOM     14  F   UNL     1      -5.658   4.040 130.829  0.00  0.00    +0.000 F 
ENDBRANCH   7  11
BRANCH   8  15
ATOM     15  C   UNL     1      -2.940   5.101 129.620  0.00  0.00    +0.000 C 
ATOM     16  N   UNL     1      -2.405   5.512 130.559  0.00  0.00    +0.000 NA
ENDBRANCH   8  15
ENDBRANCH   3   5
BRANCH   1  18
ATOM     17  C   UNL     1      -6.173   3.460 121.581  0.00  0.00    +0.000 C 
ATOM     18  C   UNL     1      -6.948   3.159 122.880  0.00  0.00    +0.000 C 
BRANCH  18  19
ATOM     19  O   UNL     1      -8.220   3.809 122.852  0.00  0.00    +0.000 OA
ATOM     20  H   UNL     1      -8.462   4.077 123.765  0.00  0.00    +0.000 HD
ENDBRANCH  18  19
BRANCH  18  21
ATOM     21  C   UNL     1      -7.127   1.644 123.066  0.00  0.00    +0.000 C 
BRANCH  21  22
ATOM     22  S   UNL     1      -8.741   1.252 123.737  0.00  0.00    +0.000 S 
ATOM     23  O   UNL     1      -8.866   1.973 124.990  0.00  0.00    +0.000 OA
ATOM     24  O   UNL     1      -9.741   1.405 122.699  0.00  0.00    +0.000 OA
BRANCH  22  25
ATOM     25  C   UNL     1      -8.815  -0.471 124.127  0.00  0.00    +0.000 A 
ATOM     26  C   UNL     1      -8.744  -0.949 125.435  0.00  0.00    +0.000 A 
ATOM     27  C   UNL     1      -8.630  -2.326 125.644  0.00  0.00    +0.000 A 
ATOM     28  C   UNL     1      -8.603  -3.199 124.557  0.00  0.00    +0.000 A 
ATOM     29  F   UNL     1      -8.477  -4.513 124.772  0.00  0.00    +0.000 F 
ATOM     30  C   UNL     1      -8.695  -2.725 123.255  0.00  0.00    +0.000 A 
ATOM     31  C   UNL     1      -8.800  -1.354 123.035  0.00  0.00    +0.000 A 
ENDBRANCH  22  25
ENDBRANCH  21  22
ENDBRANCH  18  21
ENDBRANCH   1  18
TORSDOF 8
ENDMDL
MODEL 7
REMARK VINA RESULT:      -7.6      3.268      3.994
REMARK  Name = Bicalutamide
REMARK  9 active torsions:
REMARK  status: ('A' for Active; 'I' for Inactive)
REMARK    1  A    between atoms: C_1  and  C_2
REMARK    2  A    between atoms: C_2  and  O_3
REMARK    3  A    between atoms: C_2  and  C_4
REMARK    4  A    between atoms: C_2  and  C_15
REMARK    5  A    between atoms: C_4  and  S_5
REMARK    6  A    between atoms: S_5  and  C_8
REMARK    7  A    between atoms: N_17  and  C_18
REMARK    8  A    between atoms: C_20  and  C_26
REMARK    9  A    between atoms: C_21  and  C_24
REMARK                            x       y       z     vdW  Elec       q    Type
REMARK                         _______ _______ _______ _____ _____    ______ ____
ROOT
ATOM      1  C   UNL     1      -7.378   0.155 126.834  0.00  0.00    +0.000 C 
ATOM      2  O   UNL     1      -7.698  -0.858 126.204  0.00  0.00    +0.000 OA
ATOM      3  N   UNL     1      -6.886   0.074 128.140  0.00  0.00    +0.000 N 
ATOM      4  H   UNL     1      -6.741   0.916 128.684  0.00  0.00    +0.000 HD
ENDROOT
BRANCH   3   5
ATOM      5  C   UNL     1      -6.627  -1.185 128.757  0.00  0.00    +0.000 A 
ATOM      6  C   UNL     1      -5.307  -1.615 128.933  0.00  0.00    +0.000 A 
ATOM      7  C   UNL     1      -4.988  -2.869 129.498  0.00  0.00    +0.000 A 
ATOM      8  C   UNL     1      -6.024  -3.709 129.918  0.00  0.00    +0.000 A 
ATOM      9  C   UNL     1      -7.353  -3.294 129.738  0.00  0.00    +0.000 A 
ATOM     10  C   UNL     1      -7.655  -2.029 129.186  0.00  0.00    +0.000 A 
BRANCH   7  11
ATOM     11  C   UNL     1      -3.529  -3.234 129.612  0.00  0.00    +0.000 C 
ATOM     12  F   UNL     1      -3.159  -4.146 128.672  0.00  0.00    +0.000 F 
ATOM     13  F   UNL     1      -2.722  -2.153 129.431  0.00  0.00    +0.000 F 
ATOM     14  F   UNL     1      -3.159  -3.774 130.800  0.00  0.00    +0.000 F 
ENDBRANCH   7  11
BRANCH   8  15
ATOM     15  C   UNL     1      -5.755  -4.966 130.571  0.00  0.00    +0.000 C 
ATOM     16  N   UNL     1      -5.555  -5.954 131.136  0.00  0.00    +0.000 NA
ENDBRANCH   8  15
ENDBRANCH   3   5
BRANCH   1  18
ATOM     17  C   UNL     1      -6.573   2.516 126.869  0.00  0.00    +0.000 C 
ATOM     18  C   UNL     1      -7.587   1.573 126.192  0.00  0.00    +0.000 C 
BRANCH  18  19
ATOM     19  O   UNL     1      -8.920   1.994 126.490  0.00  0.00    +0.000 OA
ATOM     20  H   UNL     1      -8.995   2.959 126.327  0.00  0.00    +0.000 HD
ENDBRANCH  18  19
BRANCH  18  21
ATOM     21  C   UNL     1      -7.366   1.540 124.672  0.00  0.00    +0.000 C 
BRANCH  21  22
ATOM     22  S   UNL     1      -8.497   2.637 123.819  0.00  0.00    +0.000 S 
ATOM     23  O   UNL     1      -9.692   1.868 123.525  0.00  0.00    +0.000 OA
ATOM     24  O   UNL     1      -8.590   3.888 124.545  0.00  0.00    +0.000 OA
BRANCH  22  25
ATOM     25  C   UNL     1      -7.799   3.115 122.266  0.00  0.00    +0.000 A 
ATOM     26  C   UNL     1      -6.426   3.256 122.072  0.00  0.00    +0.000 A 
ATOM     27  C   UNL     1      -5.969   3.807 120.872  0.00  0.00    +0.000 A 
ATOM     28  C   UNL     1      -6.877   4.193 119.888  0.00  0.00    +0.000 A 
ATOM     29  F   UNL     1      -6.426   4.735 118.751  0.00  0.00    +0.000 F 
ATOM     30  C   UNL     1      -8.245   4.033 120.073  0.00  0.00    +0.000 A 
ATOM     31  C   UNL     1      -8.711   3.493 121.268  0.00  0.00    +0.000 A 
ENDBRANCH  22  25
ENDBRANCH  21  22
ENDBRANCH  18  21
ENDBRANCH   1  18
TORSDOF 8
ENDMDL
MODEL 8
REMARK VINA RESULT:      -7.5      3.785      5.509
REMARK  Name = Bicalutamide
REMARK  9 active torsions:
REMARK  status: ('A' for Active; 'I' for Inactive)
REMARK    1  A    between atoms: C_1  and  C_2
REMARK    2  A    between atoms: C_2  and  O_3
REMARK    3  A    between atoms: C_2  and  C_4
REMARK    4  A    between atoms: C_2  and  C_15
REMARK    5  A    between atoms: C_4  and  S_5
REMARK    6  A    between atoms: S_5  and  C_8
REMARK    7  A    between atoms: N_17  and  C_18
REMARK    8  A    between atoms: C_20  and  C_26
REMARK    9  A    between atoms: C_21  and  C_24
REMARK                            x       y       z     vdW  Elec       q    Type
REMARK                         _______ _______ _______ _____ _____    ______ ____
ROOT
ATOM      1  C   UNL     1      -7.446   1.430 125.629  0.00  0.00    +0.000 C 
ATOM      2  O   UNL     1      -6.326   0.945 125.441  0.00  0.00    +0.000 OA
ATOM      3  N   UNL     1      -8.147   1.201 126.816  0.00  0.00    +0.000 N 
ATOM      4  H   UNL     1      -9.109   1.505 126.908  0.00  0.00    +0.000 HD
ENDROOT
BRANCH   3   5
ATOM      5  C   UNL     1      -7.554   0.493 127.902  0.00  0.00    +0.000 A 
ATOM      6  C   UNL     1      -7.822  -0.870 128.073  0.00  0.00    +0.000 A 
ATOM      7  C   UNL     1      -7.300  -1.615 129.152  0.00  0.00    +0.000 A 
ATOM      8  C   UNL     1      -6.466  -0.979 130.078  0.00  0.00    +0.000 A 
ATOM      9  C   UNL     1      -6.198   0.391 129.924  0.00  0.00    +0.000 A 
ATOM     10  C   UNL     1      -6.715   1.118 128.829  0.00  0.00    +0.000 A 
BRANCH   7  11
ATOM     11  C   UNL     1      -7.681  -3.071 129.246  0.00  0.00    +0.000 C 
ATOM     12  F   UNL     1      -8.356  -3.347 130.396  0.00  0.00    +0.000 F 
ATOM     13  F   UNL     1      -8.499  -3.446 128.226  0.00  0.00    +0.000 F 
ATOM     14  F   UNL     1      -6.642  -3.943 129.223  0.00  0.00    +0.000 F 
ENDBRANCH   7  11
BRANCH   8  15
ATOM     15  C   UNL     1      -5.844  -1.708 131.155  0.00  0.00    +0.000 C 
ATOM     16  N   UNL     1      -5.304  -2.293 131.993  0.00  0.00    +0.000 NA
ENDBRANCH   8  15
ENDBRANCH   3   5
BRANCH   1  18
ATOM     17  C   UNL     1      -7.204   3.458 124.196  0.00  0.00    +0.000 C 
ATOM     18  C   UNL     1      -8.136   2.266 124.492  0.00  0.00    +0.000 C 
BRANCH  18  19
ATOM     19  O   UNL     1      -9.387   2.737 124.997  0.00  0.00    +0.000 OA
ATOM     20  H   UNL     1      -9.245   3.591 125.460  0.00  0.00    +0.000 HD
ENDBRANCH  18  19
BRANCH  18  21
ATOM     21  C   UNL     1      -8.354   1.421 123.227  0.00  0.00    +0.000 C 
BRANCH  21  22
ATOM     22  S   UNL     1      -9.297  -0.061 123.582  0.00  0.00    +0.000 S 
ATOM     23  O   UNL     1      -9.879   0.113 124.901  0.00  0.00    +0.000 OA
ATOM     24  O   UNL     1     -10.138  -0.378 122.445  0.00  0.00    +0.000 OA
BRANCH  22  25
ATOM     25  C   UNL     1      -8.203  -1.446 123.683  0.00  0.00    +0.000 A 
ATOM     26  C   UNL     1      -8.421  -2.514 124.551  0.00  0.00    +0.000 A 
ATOM     27  C   UNL     1      -7.421  -3.479 124.698  0.00  0.00    +0.000 A 
ATOM     28  C   UNL     1      -6.235  -3.373 123.973  0.00  0.00    +0.000 A 
ATOM     29  F   UNL     1      -5.280  -4.295 124.136  0.00  0.00    +0.000 F 
ATOM     30  C   UNL     1      -6.026  -2.321 123.091  0.00  0.00    +0.000 A 
ATOM     31  C   UNL     1      -7.012  -1.350 122.944  0.00  0.00    +0.000 A 
ENDBRANCH  22  25
ENDBRANCH  21  22
ENDBRANCH  18  21
ENDBRANCH   1  18
TORSDOF 8
ENDMDL
MODEL 9
REMARK VINA RESULT:      -7.5      5.294      7.234
REMARK  Name = Bicalutamide
REMARK  9 active torsions:
REMARK  status: ('A' for Active; 'I' for Inactive)
REMARK    1  A    between atoms: C_1  and  C_2
REMARK    2  A    between atoms: C_2  and  O_3
REMARK    3  A    between atoms: C_2  and  C_4
REMARK    4  A    between atoms: C_2  and  C_15
REMARK    5  A    between atoms: C_4  and  S_5
REMARK    6  A    between atoms: S_5  and  C_8
REMARK    7  A    between atoms: N_17  and  C_18
REMARK    8  A    between atoms: C_20  and  C_26
REMARK    9  A    between atoms: C_21  and  C_24
REMARK                            x       y       z     vdW  Elec       q    Type
REMARK                         _______ _______ _______ _____ _____    ______ ____
ROOT
ATOM      1  C   UNL     1      -7.519   2.733 128.445  0.00  0.00    +0.000 C 
ATOM      2  O   UNL     1      -6.588   2.780 127.635  0.00  0.00    +0.000 OA
ATOM      3  N   UNL     1      -8.614   1.888 128.245  0.00  0.00    +0.000 N 
ATOM      4  H   UNL     1      -9.421   1.946 128.853  0.00  0.00    +0.000 HD
ENDROOT
BRANCH   3   5
ATOM      5  C   UNL     1      -8.649   0.966 127.158  0.00  0.00    +0.000 A 
ATOM      6  C   UNL     1      -8.117  -0.319 127.318  0.00  0.00    +0.000 A 
ATOM      7  C   UNL     1      -8.084  -1.261 126.267  0.00  0.00    +0.000 A 
ATOM      8  C   UNL     1      -8.620  -0.911 125.023  0.00  0.00    +0.000 A 
ATOM      9  C   UNL     1      -9.147   0.378 124.847  0.00  0.00    +0.000 A 
ATOM     10  C   UNL     1      -9.188   1.303 125.914  0.00  0.00    +0.000 A 
BRANCH   7  11
ATOM     11  C   UNL     1      -7.460  -2.604 126.551  0.00  0.00    +0.000 C 
ATOM     12  F   UNL     1      -6.389  -2.848 125.747  0.00  0.00    +0.000 F 
ATOM     13  F   UNL     1      -7.002  -2.688 127.830  0.00  0.00    +0.000 F 
ATOM     14  F   UNL     1      -8.283  -3.670 126.385  0.00  0.00    +0.000 F 
ENDBRANCH   7  11
BRANCH   8  15
ATOM     15  C   UNL     1      -8.682  -1.859 123.938  0.00  0.00    +0.000 C 
ATOM     16  N   UNL     1      -8.775  -2.601 123.057  0.00  0.00    +0.000 NA
ENDBRANCH   8  15
ENDBRANCH   3   5
BRANCH   1  18
ATOM     17  C   UNL     1      -6.057   4.131 129.905  0.00  0.00    +0.000 C 
ATOM     18  C   UNL     1      -7.517   3.685 129.695  0.00  0.00    +0.000 C 
BRANCH  18  19
ATOM     19  O   UNL     1      -7.964   2.927 130.821  0.00  0.00    +0.000 OA
ATOM     20  H   UNL     1      -8.609   3.463 131.331  0.00  0.00    +0.000 HD
ENDBRANCH  18  19
BRANCH  18  21
ATOM     21  C   UNL     1      -8.430   4.902 129.474  0.00  0.00    +0.000 C 
BRANCH  21  22
ATOM     22  S   UNL     1      -9.947   4.764 130.417  0.00  0.00    +0.000 S 
ATOM     23  O   UNL     1     -10.652   3.598 129.917  0.00  0.00    +0.000 OA
ATOM     24  O   UNL     1      -9.647   4.890 131.830  0.00  0.00    +0.000 OA
BRANCH  22  25
ATOM     25  C   UNL     1     -10.975   6.165 130.090  0.00  0.00    +0.000 A 
ATOM     26  C   UNL     1     -10.716   7.061 129.055  0.00  0.00    +0.000 A 
ATOM     27  C   UNL     1     -11.470   8.235 128.975  0.00  0.00    +0.000 A 
ATOM     28  C   UNL     1     -12.471   8.488 129.912  0.00  0.00    +0.000 A 
ATOM     29  F   UNL     1     -13.174   9.624 129.834  0.00  0.00    +0.000 F 
ATOM     30  C   UNL     1     -12.744   7.586 130.932  0.00  0.00    +0.000 A 
ATOM     31  C   UNL     1     -11.992   6.417 131.025  0.00  0.00    +0.000 A 
ENDBRANCH  22  25
ENDBRANCH  21  22
ENDBRANCH  18  21
ENDBRANCH   1  18
TORSDOF 8
ENDMDL
