MODEL 1
REMARK VINA RESULT:      -4.6      0.000      0.000
REMARK  Name = Bicisate
REMARK  17 active torsions:
REMARK  status: ('A' for Active; 'I' for Inactive)
REMARK    1  A    between atoms: C_1  and  C_2
REMARK    2  A    between atoms: C_2  and  O_3
REMARK    3  A    between atoms: O_3  and  C_4
REMARK    4  A    between atoms: C_4  and  C_6
REMARK    5  A    between atoms: C_6  and  C_7
REMARK    6  A    between atoms: C_6  and  N_9
REMARK    7  A    between atoms: C_7  and  S_8
REMARK    8  A    between atoms: N_9  and  C_10
REMARK    9  A    between atoms: C_10  and  C_11
REMARK   10  A    between atoms: C_11  and  N_12
REMARK   11  A    between atoms: N_12  and  C_13
REMARK   12  A    between atoms: C_13  and  C_14
REMARK   13  A    between atoms: C_13  and  C_16
REMARK   14  A    between atoms: C_14  and  S_15
REMARK   15  A    between atoms: C_16  and  O_18
REMARK   16  A    between atoms: O_18  and  C_19
REMARK   17  A    between atoms: C_19  and  C_20
REMARK                            x       y       z     vdW  Elec       q    Type
REMARK                         _______ _______ _______ _____ _____    ______ ____
ROOT
ATOM      1  C   UNL     1      -8.650   2.688 123.989  0.00  0.00    +0.000 C 
ENDROOT
BRANCH   1   2
ATOM      2  N   UNL     1      -7.903   3.835 123.454  0.00  0.00    +0.000 NA
ATOM      3  H   UNL     1      -8.014   3.845 122.437  0.00  0.00    +0.000 HD
BRANCH   2   4
ATOM      4  C   UNL     1      -6.459   3.752 123.784  0.00  0.00    +0.000 C 
BRANCH   4   5
ATOM      5  C   UNL     1      -6.059   4.623 125.010  0.00  0.00    +0.000 C 
ATOM      6  O   UNL     1      -6.237   5.839 125.054  0.00  0.00    +0.000 OA
BRANCH   5   7
ATOM      7  O   UNL     1      -5.454   3.925 126.011  0.00  0.00    +0.000 OA
BRANCH   7   9
ATOM      8  C   UNL     1      -3.118   3.531 126.467  0.00  0.00    +0.000 C 
ATOM      9  C   UNL     1      -4.287   4.498 126.614  0.00  0.00    +0.000 C 
ENDBRANCH   7   9
ENDBRANCH   5   7
ENDBRANCH   4   5
BRANCH   4  10
ATOM     10  C   UNL     1      -5.607   4.208 122.576  0.00  0.00    +0.000 C 
BRANCH  10  11
ATOM     11  S   UNL     1      -6.305   3.776 120.935  0.00  0.00    +0.000 S 
ATOM     12  H   UNL     1      -5.227   4.006 120.175  0.00  0.00    +0.000 HD
ENDBRANCH  10  11
ENDBRANCH   4  10
ENDBRANCH   2   4
ENDBRANCH   1   2
BRANCH   1  13
ATOM     13  C   UNL     1      -8.196   1.443 123.251  0.00  0.00    +0.000 C 
BRANCH  13  14
ATOM     14  N   UNL     1      -8.910   0.262 123.701  0.00  0.00    +0.000 NA
ATOM     15  H   UNL     1      -9.842   0.221 123.276  0.00  0.00    +0.000 HD
BRANCH  14  16
ATOM     16  C   UNL     1      -8.190  -1.004 123.418  0.00  0.00    +0.000 C 
BRANCH  16  17
ATOM     17  C   UNL     1      -9.102  -2.167 123.926  0.00  0.00    +0.000 C 
ATOM     18  O   UNL     1      -9.380  -3.170 123.275  0.00  0.00    +0.000 OA
BRANCH  17  19
ATOM     19  O   UNL     1      -9.504  -1.975 125.220  0.00  0.00    +0.000 OA
BRANCH  19  20
ATOM     20  C   UNL     1      -9.342  -3.136 126.058  0.00  0.00    +0.000 C 
ATOM     21  C   UNL     1      -8.407  -2.806 127.209  0.00  0.00    +0.000 C 
ENDBRANCH  19  20
ENDBRANCH  17  19
ENDBRANCH  16  17
BRANCH  16  22
ATOM     22  C   UNL     1      -6.806  -1.104 124.108  0.00  0.00    +0.000 C 
BRANCH  22  23
ATOM     23  S   UNL     1      -5.870  -2.698 124.127  0.00  0.00    +0.000 S 
ATOM     24  H   UNL     1      -5.787  -2.869 125.455  0.00  0.00    +0.000 HD
ENDBRANCH  22  23
ENDBRANCH  16  22
ENDBRANCH  14  16
ENDBRANCH  13  14
ENDBRANCH   1  13
TORSDOF 15
ENDMDL
MODEL 2
REMARK VINA RESULT:      -4.6      6.030      7.961
REMARK  Name = Bicisate
REMARK  17 active torsions:
REMARK  status: ('A' for Active; 'I' for Inactive)
REMARK    1  A    between atoms: C_1  and  C_2
REMARK    2  A    between atoms: C_2  and  O_3
REMARK    3  A    between atoms: O_3  and  C_4
REMARK    4  A    between atoms: C_4  and  C_6
REMARK    5  A    between atoms: C_6  and  C_7
REMARK    6  A    between atoms: C_6  and  N_9
REMARK    7  A    between atoms: C_7  and  S_8
REMARK    8  A    between atoms: N_9  and  C_10
REMARK    9  A    between atoms: C_10  and  C_11
REMARK   10  A    between atoms: C_11  and  N_12
REMARK   11  A    between atoms: N_12  and  C_13
REMARK   12  A    between atoms: C_13  and  C_14
REMARK   13  A    between atoms: C_13  and  C_16
REMARK   14  A    between atoms: C_14  and  S_15
REMARK   15  A    between atoms: C_16  and  O_18
REMARK   16  A    between atoms: O_18  and  C_19
REMARK   17  A    between atoms: C_19  and  C_20
REMARK                            x       y       z     vdW  Elec       q    Type
REMARK                         _______ _______ _______ _____ _____    ______ ____
ROOT
ATOM      1  C   UNL     1      -8.926   2.795 130.042  0.00  0.00    +0.000 C 
ENDROOT
BRANCH   1   2
ATOM      2  N   UNL     1      -9.071   2.439 128.623  0.00  0.00    +0.000 NA
ATOM      3  H   UNL     1      -9.273   1.439 128.562  0.00  0.00    +0.000 HD
BRANCH   2   4
ATOM      4  C   UNL     1      -7.836   2.734 127.854  0.00  0.00    +0.000 C 
BRANCH   4   5
ATOM      5  C   UNL     1      -7.575   4.257 127.674  0.00  0.00    +0.000 C 
ATOM      6  O   UNL     1      -8.464   5.062 127.401  0.00  0.00    +0.000 OA
BRANCH   5   7
ATOM      7  O   UNL     1      -6.266   4.613 127.800  0.00  0.00    +0.000 OA
BRANCH   7   9
ATOM      8  C   UNL     1      -4.172   3.874 128.744  0.00  0.00    +0.000 C 
ATOM      9  C   UNL     1      -5.606   4.303 129.034  0.00  0.00    +0.000 C 
ENDBRANCH   7   9
ENDBRANCH   5   7
ENDBRANCH   4   5
BRANCH   4  10
ATOM     10  C   UNL     1      -7.917   2.093 126.449  0.00  0.00    +0.000 C 
BRANCH  10  11
ATOM     11  S   UNL     1      -6.294   1.682 125.695  0.00  0.00    +0.000 S 
ATOM     12  H   UNL     1      -6.706   1.354 124.464  0.00  0.00    +0.000 HD
ENDBRANCH  10  11
ENDBRANCH   4  10
ENDBRANCH   2   4
ENDBRANCH   1   2
BRANCH   1  13
ATOM     13  C   UNL     1     -10.202   3.482 130.490  0.00  0.00    +0.000 C 
BRANCH  13  14
ATOM     14  N   UNL     1     -10.519   4.624 129.654  0.00  0.00    +0.000 NA
ATOM     15  H   UNL     1     -11.312   4.413 129.040  0.00  0.00    +0.000 HD
BRANCH  14  16
ATOM     16  C   UNL     1     -10.817   5.855 130.428  0.00  0.00    +0.000 C 
BRANCH  16  17
ATOM     17  C   UNL     1     -12.119   6.468 129.821  0.00  0.00    +0.000 C 
ATOM     18  O   UNL     1     -12.915   7.169 130.439  0.00  0.00    +0.000 OA
BRANCH  17  19
ATOM     19  O   UNL     1     -12.240   6.194 128.485  0.00  0.00    +0.000 OA
BRANCH  19  20
ATOM     20  C   UNL     1     -12.479   7.358 127.671  0.00  0.00    +0.000 C 
ATOM     21  C   UNL     1     -11.153   7.917 127.181  0.00  0.00    +0.000 C 
ENDBRANCH  19  20
ENDBRANCH  17  19
ENDBRANCH  16  17
BRANCH  16  22
ATOM     22  C   UNL     1      -9.686   6.913 130.381  0.00  0.00    +0.000 C 
BRANCH  22  23
ATOM     23  S   UNL     1      -8.020   6.552 131.094  0.00  0.00    +0.000 S 
ATOM     24  H   UNL     1      -7.286   7.361 130.315  0.00  0.00    +0.000 HD
ENDBRANCH  22  23
ENDBRANCH  16  22
ENDBRANCH  14  16
ENDBRANCH  13  14
ENDBRANCH   1  13
TORSDOF 15
ENDMDL
MODEL 3
REMARK VINA RESULT:      -4.6      6.382      8.165
REMARK  Name = Bicisate
REMARK  17 active torsions:
REMARK  status: ('A' for Active; 'I' for Inactive)
REMARK    1  A    between atoms: C_1  and  C_2
REMARK    2  A    between atoms: C_2  and  O_3
REMARK    3  A    between atoms: O_3  and  C_4
REMARK    4  A    between atoms: C_4  and  C_6
REMARK    5  A    between atoms: C_6  and  C_7
REMARK    6  A    between atoms: C_6  and  N_9
REMARK    7  A    between atoms: C_7  and  S_8
REMARK    8  A    between atoms: N_9  and  C_10
REMARK    9  A    between atoms: C_10  and  C_11
REMARK   10  A    between atoms: C_11  and  N_12
REMARK   11  A    between atoms: N_12  and  C_13
REMARK   12  A    between atoms: C_13  and  C_14
REMARK   13  A    between atoms: C_13  and  C_16
REMARK   14  A    between atoms: C_14  and  S_15
REMARK   15  A    between atoms: C_16  and  O_18
REMARK   16  A    between atoms: O_18  and  C_19
REMARK   17  A    between atoms: C_19  and  C_20
REMARK                            x       y       z     vdW  Elec       q    Type
REMARK                         _______ _______ _______ _____ _____    ______ ____
ROOT
ATOM      1  C   UNL     1      -9.925   3.541 130.130  0.00  0.00    +0.000 C 
ENDROOT
BRANCH   1   2
ATOM      2  N   UNL     1     -10.482   4.867 129.826  0.00  0.00    +0.000 NA
ATOM      3  H   UNL     1      -9.813   5.370 129.239  0.00  0.00    +0.000 HD
BRANCH   2   4
ATOM      4  C   UNL     1     -10.733   5.653 131.060  0.00  0.00    +0.000 C 
BRANCH   4   5
ATOM      5  C   UNL     1     -11.880   6.693 130.902  0.00  0.00    +0.000 C 
ATOM      6  O   UNL     1     -12.781   6.827 131.728  0.00  0.00    +0.000 OA
BRANCH   5   7
ATOM      7  O   UNL     1     -11.821   7.410 129.745  0.00  0.00    +0.000 OA
BRANCH   7   9
ATOM      8  C   UNL     1     -13.456   6.964 128.028  0.00  0.00    +0.000 C 
ATOM      9  C   UNL     1     -13.055   7.874 129.184  0.00  0.00    +0.000 C 
ENDBRANCH   7   9
ENDBRANCH   5   7
ENDBRANCH   4   5
BRANCH   4  10
ATOM     10  C   UNL     1      -9.453   6.413 131.478  0.00  0.00    +0.000 C 
BRANCH  10  11
ATOM     11  S   UNL     1      -8.599   5.731 132.953  0.00  0.00    +0.000 S 
ATOM     12  H   UNL     1      -7.800   4.844 132.348  0.00  0.00    +0.000 HD
ENDBRANCH  10  11
ENDBRANCH   4  10
ENDBRANCH   2   4
ENDBRANCH   1   2
BRANCH   1  13
ATOM     13  C   UNL     1      -8.544   3.455 129.507  0.00  0.00    +0.000 C 
BRANCH  13  14
ATOM     14  N   UNL     1      -8.432   4.298 128.331  0.00  0.00    +0.000 NA
ATOM     15  H   UNL     1      -8.125   5.241 128.592  0.00  0.00    +0.000 HD
BRANCH  14  16
ATOM     16  C   UNL     1      -7.513   3.752 127.302  0.00  0.00    +0.000 C 
BRANCH  16  17
ATOM     17  C   UNL     1      -7.966   4.346 125.930  0.00  0.00    +0.000 C 
ATOM     18  O   UNL     1      -8.936   3.955 125.287  0.00  0.00    +0.000 OA
BRANCH  17  19
ATOM     19  O   UNL     1      -7.195   5.411 125.552  0.00  0.00    +0.000 OA
BRANCH  19  20
ATOM     20  C   UNL     1      -5.807   5.082 125.345  0.00  0.00    +0.000 C 
ATOM     21  C   UNL     1      -5.651   4.344 124.026  0.00  0.00    +0.000 C 
ENDBRANCH  19  20
ENDBRANCH  17  19
ENDBRANCH  16  17
BRANCH  16  22
ATOM     22  C   UNL     1      -7.520   2.205 127.214  0.00  0.00    +0.000 C 
BRANCH  22  23
ATOM     23  S   UNL     1      -6.131   1.296 126.401  0.00  0.00    +0.000 S 
ATOM     24  H   UNL     1      -6.147   0.186 127.154  0.00  0.00    +0.000 HD
ENDBRANCH  22  23
ENDBRANCH  16  22
ENDBRANCH  14  16
ENDBRANCH  13  14
ENDBRANCH   1  13
TORSDOF 15
ENDMDL
MODEL 4
REMARK VINA RESULT:      -4.6      6.116      8.125
REMARK  Name = Bicisate
REMARK  17 active torsions:
REMARK  status: ('A' for Active; 'I' for Inactive)
REMARK    1  A    between atoms: C_1  and  C_2
REMARK    2  A    between atoms: C_2  and  O_3
REMARK    3  A    between atoms: O_3  and  C_4
REMARK    4  A    between atoms: C_4  and  C_6
REMARK    5  A    between atoms: C_6  and  C_7
REMARK    6  A    between atoms: C_6  and  N_9
REMARK    7  A    between atoms: C_7  and  S_8
REMARK    8  A    between atoms: N_9  and  C_10
REMARK    9  A    between atoms: C_10  and  C_11
REMARK   10  A    between atoms: C_11  and  N_12
REMARK   11  A    between atoms: N_12  and  C_13
REMARK   12  A    between atoms: C_13  and  C_14
REMARK   13  A    between atoms: C_13  and  C_16
REMARK   14  A    between atoms: C_14  and  S_15
REMARK   15  A    between atoms: C_16  and  O_18
REMARK   16  A    between atoms: O_18  and  C_19
REMARK   17  A    between atoms: C_19  and  C_20
REMARK                            x       y       z     vdW  Elec       q    Type
REMARK                         _______ _______ _______ _____ _____    ______ ____
ROOT
ATOM      1  C   UNL     1      -8.379   2.813 129.376  0.00  0.00    +0.000 C 
ENDROOT
BRANCH   1   2
ATOM      2  N   UNL     1      -8.655   3.212 127.989  0.00  0.00    +0.000 NA
ATOM      3  H   UNL     1      -8.809   2.366 127.435  0.00  0.00    +0.000 HD
BRANCH   2   4
ATOM      4  C   UNL     1      -7.526   3.976 127.402  0.00  0.00    +0.000 C 
BRANCH   4   5
ATOM      5  C   UNL     1      -7.834   4.532 125.981  0.00  0.00    +0.000 C 
ATOM      6  O   UNL     1      -7.282   5.529 125.519  0.00  0.00    +0.000 OA
BRANCH   5   7
ATOM      7  O   UNL     1      -8.800   3.842 125.314  0.00  0.00    +0.000 OA
BRANCH   7   9
ATOM      8  C   UNL     1      -9.436   2.006 123.885  0.00  0.00    +0.000 C 
ATOM      9  C   UNL     1      -8.411   3.102 124.151  0.00  0.00    +0.000 C 
ENDBRANCH   7   9
ENDBRANCH   5   7
ENDBRANCH   4   5
BRANCH   4  10
ATOM     10  C   UNL     1      -6.269   3.081 127.303  0.00  0.00    +0.000 C 
BRANCH  10  11
ATOM     11  S   UNL     1      -4.683   3.938 127.648  0.00  0.00    +0.000 S 
ATOM     12  H   UNL     1      -4.948   5.120 127.078  0.00  0.00    +0.000 HD
ENDBRANCH  10  11
ENDBRANCH   4  10
ENDBRANCH   2   4
ENDBRANCH   1   2
BRANCH   1  13
ATOM     13  C   UNL     1      -9.546   3.259 130.237  0.00  0.00    +0.000 C 
BRANCH  13  14
ATOM     14  N   UNL     1     -10.203   4.428 129.685  0.00  0.00    +0.000 NA
ATOM     15  H   UNL     1     -11.116   4.177 129.291  0.00  0.00    +0.000 HD
BRANCH  14  16
ATOM     16  C   UNL     1     -10.384   5.522 130.672  0.00  0.00    +0.000 C 
BRANCH  16  17
ATOM     17  C   UNL     1     -11.858   6.021 130.529  0.00  0.00    +0.000 C 
ATOM     18  O   UNL     1     -12.506   6.548 131.429  0.00  0.00    +0.000 OA
BRANCH  17  19
ATOM     19  O   UNL     1     -12.330   5.869 129.254  0.00  0.00    +0.000 OA
BRANCH  19  20
ATOM     20  C   UNL     1     -13.156   6.961 128.804  0.00  0.00    +0.000 C 
ATOM     21  C   UNL     1     -12.274   8.117 128.362  0.00  0.00    +0.000 C 
ENDBRANCH  19  20
ENDBRANCH  17  19
ENDBRANCH  16  17
BRANCH  16  22
ATOM     22  C   UNL     1      -9.420   6.717 130.465  0.00  0.00    +0.000 C 
BRANCH  22  23
ATOM     23  S   UNL     1      -7.708   6.685 131.161  0.00  0.00    +0.000 S 
ATOM     24  H   UNL     1      -7.035   6.424 130.030  0.00  0.00    +0.000 HD
ENDBRANCH  22  23
ENDBRANCH  16  22
ENDBRANCH  14  16
ENDBRANCH  13  14
ENDBRANCH   1  13
TORSDOF 15
ENDMDL
MODEL 5
REMARK VINA RESULT:      -4.5      6.848      9.299
REMARK  Name = Bicisate
REMARK  17 active torsions:
REMARK  status: ('A' for Active; 'I' for Inactive)
REMARK    1  A    between atoms: C_1  and  C_2
REMARK    2  A    between atoms: C_2  and  O_3
REMARK    3  A    between atoms: O_3  and  C_4
REMARK    4  A    between atoms: C_4  and  C_6
REMARK    5  A    between atoms: C_6  and  C_7
REMARK    6  A    between atoms: C_6  and  N_9
REMARK    7  A    between atoms: C_7  and  S_8
REMARK    8  A    between atoms: N_9  and  C_10
REMARK    9  A    between atoms: C_10  and  C_11
REMARK   10  A    between atoms: C_11  and  N_12
REMARK   11  A    between atoms: N_12  and  C_13
REMARK   12  A    between atoms: C_13  and  C_14
REMARK   13  A    between atoms: C_13  and  C_16
REMARK   14  A    between atoms: C_14  and  S_15
REMARK   15  A    between atoms: C_16  and  O_18
REMARK   16  A    between atoms: O_18  and  C_19
REMARK   17  A    between atoms: C_19  and  C_20
REMARK                            x       y       z     vdW  Elec       q    Type
REMARK                         _______ _______ _______ _____ _____    ______ ____
ROOT
ATOM      1  C   UNL     1      -8.084   6.576 131.565  0.00  0.00    +0.000 C 
ENDROOT
BRANCH   1   2
ATOM      2  N   UNL     1      -8.417   7.276 130.317  0.00  0.00    +0.000 NA
ATOM      3  H   UNL     1      -8.491   8.276 130.519  0.00  0.00    +0.000 HD
BRANCH   2   4
ATOM      4  C   UNL     1      -9.701   6.800 129.746  0.00  0.00    +0.000 C 
BRANCH   4   5
ATOM      5  C   UNL     1     -10.552   7.940 129.114  0.00  0.00    +0.000 C 
ATOM      6  O   UNL     1     -10.173   8.601 128.148  0.00  0.00    +0.000 OA
BRANCH   5   7
ATOM      7  O   UNL     1     -11.732   8.169 129.753  0.00  0.00    +0.000 OA
BRANCH   7   9
ATOM      8  C   UNL     1     -13.460   7.075 128.474  0.00  0.00    +0.000 C 
ATOM      9  C   UNL     1     -12.893   8.408 128.947  0.00  0.00    +0.000 C 
ENDBRANCH   7   9
ENDBRANCH   5   7
ENDBRANCH   4   5
BRANCH   4  10
ATOM     10  C   UNL     1     -10.554   6.119 130.841  0.00  0.00    +0.000 C 
BRANCH  10  11
ATOM     11  S   UNL     1     -10.923   4.346 130.540  0.00  0.00    +0.000 S 
ATOM     12  H   UNL     1      -9.676   3.858 130.577  0.00  0.00    +0.000 HD
ENDBRANCH  10  11
ENDBRANCH   4  10
ENDBRANCH   2   4
ENDBRANCH   1   2
BRANCH   1  13
ATOM     13  C   UNL     1      -6.614   6.203 131.521  0.00  0.00    +0.000 C 
BRANCH  13  14
ATOM     14  N   UNL     1      -6.111   6.166 130.160  0.00  0.00    +0.000 NA
ATOM     15  H   UNL     1      -5.453   6.936 129.998  0.00  0.00    +0.000 HD
BRANCH  14  16
ATOM     16  C   UNL     1      -5.455   4.882 129.811  0.00  0.00    +0.000 C 
BRANCH  16  17
ATOM     17  C   UNL     1      -4.555   5.158 128.563  0.00  0.00    +0.000 C 
ATOM     18  O   UNL     1      -4.194   4.303 127.760  0.00  0.00    +0.000 OA
BRANCH  17  19
ATOM     19  O   UNL     1      -4.268   6.489 128.422  0.00  0.00    +0.000 OA
BRANCH  19  20
ATOM     20  C   UNL     1      -2.891   6.757 128.095  0.00  0.00    +0.000 C 
ATOM     21  C   UNL     1      -2.016   6.478 129.306  0.00  0.00    +0.000 C 
ENDBRANCH  19  20
ENDBRANCH  17  19
ENDBRANCH  16  17
BRANCH  16  22
ATOM     22  C   UNL     1      -6.449   3.741 129.478  0.00  0.00    +0.000 C 
BRANCH  22  23
ATOM     23  S   UNL     1      -7.759   3.970 128.196  0.00  0.00    +0.000 S 
ATOM     24  H   UNL     1      -7.120   3.420 127.152  0.00  0.00    +0.000 HD
ENDBRANCH  22  23
ENDBRANCH  16  22
ENDBRANCH  14  16
ENDBRANCH  13  14
ENDBRANCH   1  13
TORSDOF 15
ENDMDL
MODEL 6
REMARK VINA RESULT:      -4.5      5.304      7.802
REMARK  Name = Bicisate
REMARK  17 active torsions:
REMARK  status: ('A' for Active; 'I' for Inactive)
REMARK    1  A    between atoms: C_1  and  C_2
REMARK    2  A    between atoms: C_2  and  O_3
REMARK    3  A    between atoms: O_3  and  C_4
REMARK    4  A    between atoms: C_4  and  C_6
REMARK    5  A    between atoms: C_6  and  C_7
REMARK    6  A    between atoms: C_6  and  N_9
REMARK    7  A    between atoms: C_7  and  S_8
REMARK    8  A    between atoms: N_9  and  C_10
REMARK    9  A    between atoms: C_10  and  C_11
REMARK   10  A    between atoms: C_11  and  N_12
REMARK   11  A    between atoms: N_12  and  C_13
REMARK   12  A    between atoms: C_13  and  C_14
REMARK   13  A    between atoms: C_13  and  C_16
REMARK   14  A    between atoms: C_14  and  S_15
REMARK   15  A    between atoms: C_16  and  O_18
REMARK   16  A    between atoms: O_18  and  C_19
REMARK   17  A    between atoms: C_19  and  C_20
REMARK                            x       y       z     vdW  Elec       q    Type
REMARK                         _______ _______ _______ _____ _____    ______ ____
ROOT
ATOM      1  C   UNL     1      -7.336   2.695 128.318  0.00  0.00    +0.000 C 
ENDROOT
BRANCH   1   2
ATOM      2  N   UNL     1      -8.566   2.458 127.550  0.00  0.00    +0.000 NA
ATOM      3  H   UNL     1      -9.111   1.738 128.030  0.00  0.00    +0.000 HD
BRANCH   2   4
ATOM      4  C   UNL     1      -8.272   2.003 126.168  0.00  0.00    +0.000 C 
BRANCH   4   5
ATOM      5  C   UNL     1      -8.203   3.168 125.139  0.00  0.00    +0.000 C 
ATOM      6  O   UNL     1      -8.781   4.242 125.305  0.00  0.00    +0.000 OA
BRANCH   5   7
ATOM      7  O   UNL     1      -7.484   2.878 124.020  0.00  0.00    +0.000 OA
BRANCH   7   9
ATOM      8  C   UNL     1      -7.103   3.419 121.700  0.00  0.00    +0.000 C 
ATOM      9  C   UNL     1      -8.134   3.024 122.752  0.00  0.00    +0.000 C 
ENDBRANCH   7   9
ENDBRANCH   5   7
ENDBRANCH   4   5
BRANCH   4  10
ATOM     10  C   UNL     1      -9.355   1.008 125.691  0.00  0.00    +0.000 C 
BRANCH  10  11
ATOM     11  S   UNL     1      -8.847  -0.756 125.717  0.00  0.00    +0.000 S 
ATOM     12  H   UNL     1      -9.943  -1.304 125.176  0.00  0.00    +0.000 HD
ENDBRANCH  10  11
ENDBRANCH   4  10
ENDBRANCH   2   4
ENDBRANCH   1   2
BRANCH   1  13
ATOM     13  C   UNL     1      -7.361   4.126 128.821  0.00  0.00    +0.000 C 
BRANCH  13  14
ATOM     14  N   UNL     1      -8.565   4.820 128.403  0.00  0.00    +0.000 NA
ATOM     15  H   UNL     1      -9.086   4.259 127.722  0.00  0.00    +0.000 HD
BRANCH  14  16
ATOM     16  C   UNL     1      -9.461   5.173 129.532  0.00  0.00    +0.000 C 
BRANCH  16  17
ATOM     17  C   UNL     1     -10.207   6.485 129.124  0.00  0.00    +0.000 C 
ATOM     18  O   UNL     1      -9.671   7.582 129.002  0.00  0.00    +0.000 OA
BRANCH  17  19
ATOM     19  O   UNL     1     -11.528   6.258 128.847  0.00  0.00    +0.000 OA
BRANCH  19  20
ATOM     20  C   UNL     1     -12.099   7.205 127.922  0.00  0.00    +0.000 C 
ATOM     21  C   UNL     1     -13.612   7.065 127.921  0.00  0.00    +0.000 C 
ENDBRANCH  19  20
ENDBRANCH  17  19
ENDBRANCH  16  17
BRANCH  16  22
ATOM     22  C   UNL     1      -8.718   5.406 130.872  0.00  0.00    +0.000 C 
BRANCH  22  23
ATOM     23  S   UNL     1      -9.647   5.858 132.404  0.00  0.00    +0.000 S 
ATOM     24  H   UNL     1      -8.701   5.565 133.309  0.00  0.00    +0.000 HD
ENDBRANCH  22  23
ENDBRANCH  16  22
ENDBRANCH  14  16
ENDBRANCH  13  14
ENDBRANCH   1  13
TORSDOF 15
ENDMDL
MODEL 7
REMARK VINA RESULT:      -4.5      7.329      9.630
REMARK  Name = Bicisate
REMARK  17 active torsions:
REMARK  status: ('A' for Active; 'I' for Inactive)
REMARK    1  A    between atoms: C_1  and  C_2
REMARK    2  A    between atoms: C_2  and  O_3
REMARK    3  A    between atoms: O_3  and  C_4
REMARK    4  A    between atoms: C_4  and  C_6
REMARK    5  A    between atoms: C_6  and  C_7
REMARK    6  A    between atoms: C_6  and  N_9
REMARK    7  A    between atoms: C_7  and  S_8
REMARK    8  A    between atoms: N_9  and  C_10
REMARK    9  A    between atoms: C_10  and  C_11
REMARK   10  A    between atoms: C_11  and  N_12
REMARK   11  A    between atoms: N_12  and  C_13
REMARK   12  A    between atoms: C_13  and  C_14
REMARK   13  A    between atoms: C_13  and  C_16
REMARK   14  A    between atoms: C_14  and  S_15
REMARK   15  A    between atoms: C_16  and  O_18
REMARK   16  A    between atoms: O_18  and  C_19
REMARK   17  A    between atoms: C_19  and  C_20
REMARK                            x       y       z     vdW  Elec       q    Type
REMARK                         _______ _______ _______ _____ _____    ______ ____
ROOT
ATOM      1  C   UNL     1      -7.474   6.328 131.249  0.00  0.00    +0.000 C 
ENDROOT
BRANCH   1   2
ATOM      2  N   UNL     1      -8.453   7.059 130.433  0.00  0.00    +0.000 NA
ATOM      3  H   UNL     1      -8.994   7.670 131.050  0.00  0.00    +0.000 HD
BRANCH   2   4
ATOM      4  C   UNL     1      -9.380   6.137 129.729  0.00  0.00    +0.000 C 
BRANCH   4   5
ATOM      5  C   UNL     1     -10.291   6.856 128.692  0.00  0.00    +0.000 C 
ATOM      6  O   UNL     1     -10.109   6.783 127.478  0.00  0.00    +0.000 OA
BRANCH   5   7
ATOM      7  O   UNL     1     -11.279   7.609 129.251  0.00  0.00    +0.000 OA
BRANCH   7   9
ATOM      8  C   UNL     1     -12.890   9.402 129.171  0.00  0.00    +0.000 C 
ATOM      9  C   UNL     1     -12.133   8.349 128.371  0.00  0.00    +0.000 C 
ENDBRANCH   7   9
ENDBRANCH   5   7
ENDBRANCH   4   5
BRANCH   4  10
ATOM     10  C   UNL     1     -10.293   5.417 130.748  0.00  0.00    +0.000 C 
BRANCH  10  11
ATOM     11  S   UNL     1     -10.321   3.587 130.598  0.00  0.00    +0.000 S 
ATOM     12  H   UNL     1     -10.819   3.280 131.803  0.00  0.00    +0.000 HD
ENDBRANCH  10  11
ENDBRANCH   4  10
ENDBRANCH   2   4
ENDBRANCH   1   2
BRANCH   1  13
ATOM     13  C   UNL     1      -6.140   7.042 131.139  0.00  0.00    +0.000 C 
BRANCH  13  14
ATOM     14  N   UNL     1      -5.376   6.577 129.996  0.00  0.00    +0.000 NA
ATOM     15  H   UNL     1      -5.944   6.612 129.144  0.00  0.00    +0.000 HD
BRANCH  14  16
ATOM     16  C   UNL     1      -4.123   7.342 129.778  0.00  0.00    +0.000 C 
BRANCH  16  17
ATOM     17  C   UNL     1      -3.514   6.837 128.430  0.00  0.00    +0.000 C 
ATOM     18  O   UNL     1      -2.371   7.073 128.049  0.00  0.00    +0.000 OA
BRANCH  17  19
ATOM     19  O   UNL     1      -4.383   6.033 127.744  0.00  0.00    +0.000 OA
BRANCH  19  20
ATOM     20  C   UNL     1      -3.770   4.856 127.183  0.00  0.00    +0.000 C 
ATOM     21  C   UNL     1      -3.673   3.777 128.248  0.00  0.00    +0.000 C 
ENDBRANCH  19  20
ENDBRANCH  17  19
ENDBRANCH  16  17
BRANCH  16  22
ATOM     22  C   UNL     1      -3.076   7.164 130.906  0.00  0.00    +0.000 C 
BRANCH  22  23
ATOM     23  S   UNL     1      -2.521   5.480 131.427  0.00  0.00    +0.000 S 
ATOM     24  H   UNL     1      -2.754   5.587 132.744  0.00  0.00    +0.000 HD
ENDBRANCH  22  23
ENDBRANCH  16  22
ENDBRANCH  14  16
ENDBRANCH  13  14
ENDBRANCH   1  13
TORSDOF 15
ENDMDL
MODEL 8
REMARK VINA RESULT:      -4.5      5.296      7.379
REMARK  Name = Bicisate
REMARK  17 active torsions:
REMARK  status: ('A' for Active; 'I' for Inactive)
REMARK    1  A    between atoms: C_1  and  C_2
REMARK    2  A    between atoms: C_2  and  O_3
REMARK    3  A    between atoms: O_3  and  C_4
REMARK    4  A    between atoms: C_4  and  C_6
REMARK    5  A    between atoms: C_6  and  C_7
REMARK    6  A    between atoms: C_6  and  N_9
REMARK    7  A    between atoms: C_7  and  S_8
REMARK    8  A    between atoms: N_9  and  C_10
REMARK    9  A    between atoms: C_10  and  C_11
REMARK   10  A    between atoms: C_11  and  N_12
REMARK   11  A    between atoms: N_12  and  C_13
REMARK   12  A    between atoms: C_13  and  C_14
REMARK   13  A    between atoms: C_13  and  C_16
REMARK   14  A    between atoms: C_14  and  S_15
REMARK   15  A    between atoms: C_16  and  O_18
REMARK   16  A    between atoms: O_18  and  C_19
REMARK   17  A    between atoms: C_19  and  C_20
REMARK                            x       y       z     vdW  Elec       q    Type
REMARK                         _______ _______ _______ _____ _____    ______ ____
ROOT
ATOM      1  C   UNL     1      -7.457   3.052 128.465  0.00  0.00    +0.000 C 
ENDROOT
BRANCH   1   2
ATOM      2  N   UNL     1      -8.645   2.636 127.706  0.00  0.00    +0.000 NA
ATOM      3  H   UNL     1      -9.144   1.930 128.251  0.00  0.00    +0.000 HD
BRANCH   2   4
ATOM      4  C   UNL     1      -8.280   2.063 126.386  0.00  0.00    +0.000 C 
BRANCH   4   5
ATOM      5  C   UNL     1      -8.267   3.118 125.242  0.00  0.00    +0.000 C 
ATOM      6  O   UNL     1      -8.806   4.219 125.340  0.00  0.00    +0.000 OA
BRANCH   5   7
ATOM      7  O   UNL     1      -7.644   2.696 124.106  0.00  0.00    +0.000 OA
BRANCH   7   9
ATOM      8  C   UNL     1      -7.262   3.368 121.821  0.00  0.00    +0.000 C 
ATOM      9  C   UNL     1      -8.298   2.941 122.855  0.00  0.00    +0.000 C 
ENDBRANCH   7   9
ENDBRANCH   5   7
ENDBRANCH   4   5
BRANCH   4  10
ATOM     10  C   UNL     1      -9.276   0.947 125.995  0.00  0.00    +0.000 C 
BRANCH  10  11
ATOM     11  S   UNL     1      -8.510  -0.689 125.668  0.00  0.00    +0.000 S 
ATOM     12  H   UNL     1      -8.639  -0.725 124.336  0.00  0.00    +0.000 HD
ENDBRANCH  10  11
ENDBRANCH   4  10
ENDBRANCH   2   4
ENDBRANCH   1   2
BRANCH   1  13
ATOM     13  C   UNL     1      -7.575   4.537 128.750  0.00  0.00    +0.000 C 
BRANCH  13  14
ATOM     14  N   UNL     1      -8.880   5.053 128.382  0.00  0.00    +0.000 NA
ATOM     15  H   UNL     1      -9.464   4.308 127.988  0.00  0.00    +0.000 HD
BRANCH  14  16
ATOM     16  C   UNL     1      -9.601   5.690 129.512  0.00  0.00    +0.000 C 
BRANCH  16  17
ATOM     17  C   UNL     1     -10.110   4.535 130.433  0.00  0.00    +0.000 C 
ATOM     18  O   UNL     1     -10.692   3.530 130.034  0.00  0.00    +0.000 OA
BRANCH  17  19
ATOM     19  O   UNL     1      -9.769   4.735 131.743  0.00  0.00    +0.000 OA
BRANCH  19  20
ATOM     20  C   UNL     1      -8.902   3.718 132.281  0.00  0.00    +0.000 C 
ATOM     21  C   UNL     1      -9.141   3.585 133.776  0.00  0.00    +0.000 C 
ENDBRANCH  19  20
ENDBRANCH  17  19
ENDBRANCH  16  17
BRANCH  16  22
ATOM     22  C   UNL     1     -10.806   6.560 129.074  0.00  0.00    +0.000 C 
BRANCH  22  23
ATOM     23  S   UNL     1     -10.626   7.825 127.740  0.00  0.00    +0.000 S 
ATOM     24  H   UNL     1      -9.428   7.452 127.266  0.00  0.00    +0.000 HD
ENDBRANCH  22  23
ENDBRANCH  16  22
ENDBRANCH  14  16
ENDBRANCH  13  14
ENDBRANCH   1  13
TORSDOF 15
ENDMDL
MODEL 9
REMARK VINA RESULT:      -4.4      5.676      8.218
REMARK  Name = Bicisate
REMARK  17 active torsions:
REMARK  status: ('A' for Active; 'I' for Inactive)
REMARK    1  A    between atoms: C_1  and  C_2
REMARK    2  A    between atoms: C_2  and  O_3
REMARK    3  A    between atoms: O_3  and  C_4
REMARK    4  A    between atoms: C_4  and  C_6
REMARK    5  A    between atoms: C_6  and  C_7
REMARK    6  A    between atoms: C_6  and  N_9
REMARK    7  A    between atoms: C_7  and  S_8
REMARK    8  A    between atoms: N_9  and  C_10
REMARK    9  A    between atoms: C_10  and  C_11
REMARK   10  A    between atoms: C_11  and  N_12
REMARK   11  A    between atoms: N_12  and  C_13
REMARK   12  A    between atoms: C_13  and  C_14
REMARK   13  A    between atoms: C_13  and  C_16
REMARK   14  A    between atoms: C_14  and  S_15
REMARK   15  A    between atoms: C_16  and  O_18
REMARK   16  A    between atoms: O_18  and  C_19
REMARK   17  A    between atoms: C_19  and  C_20
REMARK                            x       y       z     vdW  Elec       q    Type
REMARK                         _______ _______ _______ _____ _____    ______ ____
ROOT
ATOM      1  C   UNL     1      -7.839   3.961 128.132  0.00  0.00    +0.000 C 
ENDROOT
BRANCH   1   2
ATOM      2  N   UNL     1      -8.095   4.514 126.795  0.00  0.00    +0.000 NA
ATOM      3  H   UNL     1      -8.899   4.026 126.394  0.00  0.00    +0.000 HD
BRANCH   2   4
ATOM      4  C   UNL     1      -6.926   4.343 125.896  0.00  0.00    +0.000 C 
BRANCH   4   5
ATOM      5  C   UNL     1      -7.317   3.878 124.463  0.00  0.00    +0.000 C 
ATOM      6  O   UNL     1      -6.529   3.889 123.518  0.00  0.00    +0.000 OA
BRANCH   5   7
ATOM      7  O   UNL     1      -8.620   3.501 124.339  0.00  0.00    +0.000 OA
BRANCH   7   9
ATOM      8  C   UNL     1      -9.945   1.516 123.989  0.00  0.00    +0.000 C 
ATOM      9  C   UNL     1      -8.931   2.480 123.384  0.00  0.00    +0.000 C 
ENDBRANCH   7   9
ENDBRANCH   5   7
ENDBRANCH   4   5
BRANCH   4  10
ATOM     10  C   UNL     1      -5.947   3.302 126.486  0.00  0.00    +0.000 C 
BRANCH  10  11
ATOM     11  S   UNL     1      -6.265   1.569 125.974  0.00  0.00    +0.000 S 
ATOM     12  H   UNL     1      -6.696   1.789 124.725  0.00  0.00    +0.000 HD
ENDBRANCH  10  11
ENDBRANCH   4  10
ENDBRANCH   2   4
ENDBRANCH   1   2
BRANCH   1  13
ATOM     13  C   UNL     1      -8.394   4.930 129.159  0.00  0.00    +0.000 C 
BRANCH  13  14
ATOM     14  N   UNL     1      -9.367   5.833 128.572  0.00  0.00    +0.000 NA
ATOM     15  H   UNL     1      -9.943   5.343 127.881  0.00  0.00    +0.000 HD
BRANCH  14  16
ATOM     16  C   UNL     1     -10.252   6.476 129.576  0.00  0.00    +0.000 C 
BRANCH  16  17
ATOM     17  C   UNL     1     -10.734   7.826 128.956  0.00  0.00    +0.000 C 
ATOM     18  O   UNL     1     -10.159   8.423 128.050  0.00  0.00    +0.000 OA
BRANCH  17  19
ATOM     19  O   UNL     1     -11.923   8.242 129.492  0.00  0.00    +0.000 OA
BRANCH  19  20
ATOM     20  C   UNL     1     -12.955   7.237 129.469  0.00  0.00    +0.000 C 
ATOM     21  C   UNL     1     -13.656   7.259 128.121  0.00  0.00    +0.000 C 
ENDBRANCH  19  20
ENDBRANCH  17  19
ENDBRANCH  16  17
BRANCH  16  22
ATOM     22  C   UNL     1      -9.558   6.758 130.932  0.00  0.00    +0.000 C 
BRANCH  22  23
ATOM     23  S   UNL     1     -10.103   5.894 132.473  0.00  0.00    +0.000 S 
ATOM     24  H   UNL     1     -10.323   4.676 131.955  0.00  0.00    +0.000 HD
ENDBRANCH  22  23
ENDBRANCH  16  22
ENDBRANCH  14  16
ENDBRANCH  13  14
ENDBRANCH   1  13
TORSDOF 15
ENDMDL
