MODEL 1
REMARK VINA RESULT:      -9.5      0.000      0.000
REMARK  Name = Bictegravir
REMARK  4 active torsions:
REMARK  status: ('A' for Active; 'I' for Inactive)
REMARK    1  A    between atoms: O_1  and  C_2
REMARK    2  A    between atoms: C_17  and  C_18
REMARK    3  A    between atoms: N_20  and  C_21
REMARK    4  A    between atoms: C_21  and  C_22
REMARK                            x       y       z     vdW  Elec       q    Type
REMARK                         _______ _______ _______ _____ _____    ______ ____
ROOT
ATOM      1  C   UNL     1      -7.570   4.716 129.939  0.00  0.00    +0.000 A 
ATOM      2  C   UNL     1      -8.851   5.131 130.097  0.00  0.00    +0.000 A 
ATOM      3  N   UNL     1      -9.924   4.239 130.282  0.00  0.00    +0.000 N 
ATOM      4  C   UNL     1     -11.314   4.712 130.268  0.00  0.00    +0.000 C 
ATOM      5  C   UNL     1     -11.442   6.212 130.520  0.00  0.00    +0.000 C 
ATOM      6  O   UNL     1     -12.819   6.536 130.221  0.00  0.00    +0.000 OA
ATOM      7  C   UNL     1     -13.176   7.165 128.977  0.00  0.00    +0.000 C 
ATOM      8  C   UNL     1     -12.645   8.394 129.411  0.00  0.00    +0.000 C 
ATOM      9  C   UNL     1     -11.290   7.686 128.067  0.00  0.00    +0.000 C 
ATOM     10  C   UNL     1     -10.772   8.309 129.180  0.00  0.00    +0.000 C 
ATOM     11  C   UNL     1     -12.383   8.435 128.132  0.00  0.00    +0.000 C 
ATOM     12  N   UNL     1     -10.424   7.009 129.849  0.00  0.00    +0.000 N 
ATOM     13  C   UNL     1      -9.111   6.642 130.123  0.00  0.00    +0.000 C 
ATOM     14  O   UNL     1      -8.235   7.436 130.363  0.00  0.00    +0.000 OA
ATOM     15  C   UNL     1      -9.659   2.882 130.414  0.00  0.00    +0.000 A 
ATOM     16  C   UNL     1      -8.433   2.336 130.379  0.00  0.00    +0.000 A 
ATOM     17  C   UNL     1      -7.291   3.242 130.113  0.00  0.00    +0.000 A 
ATOM     18  O   UNL     1      -6.144   2.801 130.068  0.00  0.00    +0.000 OA
ENDROOT
BRANCH  16  19
ATOM     19  C   UNL     1      -8.290   0.873 130.587  0.00  0.00    +0.000 C 
ATOM     20  O   UNL     1      -8.935   0.286 131.450  0.00  0.00    +0.000 OA
ATOM     21  N   UNL     1      -7.358   0.264 129.790  0.00  0.00    +0.000 N 
ATOM     22  H   UNL     1      -6.939   0.806 129.038  0.00  0.00    +0.000 HD
BRANCH  21  23
ATOM     23  C   UNL     1      -7.149  -1.172 129.796  0.00  0.00    +0.000 C 
BRANCH  23  24
ATOM     24  C   UNL     1      -7.594  -1.876 128.540  0.00  0.00    +0.000 A 
ATOM     25  C   UNL     1      -8.343  -3.057 128.639  0.00  0.00    +0.000 A 
ATOM     26  F   UNL     1      -8.648  -3.555 129.846  0.00  0.00    +0.000 F 
ATOM     27  C   UNL     1      -8.782  -3.745 127.509  0.00  0.00    +0.000 A 
ATOM     28  C   UNL     1      -8.479  -3.240 126.253  0.00  0.00    +0.000 A 
ATOM     29  F   UNL     1      -8.892  -3.891 125.159  0.00  0.00    +0.000 F 
ATOM     30  C   UNL     1      -7.753  -2.070 126.113  0.00  0.00    +0.000 A 
ATOM     31  C   UNL     1      -7.323  -1.403 127.253  0.00  0.00    +0.000 A 
ATOM     32  F   UNL     1      -6.612  -0.279 127.078  0.00  0.00    +0.000 F 
ENDBRANCH  23  24
ENDBRANCH  21  23
ENDBRANCH  16  19
BRANCH   1  33
ATOM     33  O   UNL     1      -6.479   5.523 129.659  0.00  0.00    +0.000 OA
ATOM     34  H   UNL     1      -6.634   6.421 130.014  0.00  0.00    +0.000 HD
ENDBRANCH   1  33
TORSDOF 4
ENDMDL
MODEL 2
REMARK VINA RESULT:      -9.5      4.548      9.082
REMARK  Name = Bictegravir
REMARK  4 active torsions:
REMARK  status: ('A' for Active; 'I' for Inactive)
REMARK    1  A    between atoms: O_1  and  C_2
REMARK    2  A    between atoms: C_17  and  C_18
REMARK    3  A    between atoms: N_20  and  C_21
REMARK    4  A    between atoms: C_21  and  C_22
REMARK                            x       y       z     vdW  Elec       q    Type
REMARK                         _______ _______ _______ _____ _____    ______ ____
ROOT
ATOM      1  C   UNL     1      -8.193   3.158 124.605  0.00  0.00    +0.000 A 
ATOM      2  C   UNL     1      -8.472   1.877 124.949  0.00  0.00    +0.000 A 
ATOM      3  N   UNL     1      -8.346   1.397 126.267  0.00  0.00    +0.000 N 
ATOM      4  C   UNL     1      -8.480  -0.034 126.569  0.00  0.00    +0.000 C 
ATOM      5  C   UNL     1      -9.212  -0.814 125.479  0.00  0.00    +0.000 C 
ATOM      6  O   UNL     1      -9.028  -2.208 125.813  0.00  0.00    +0.000 OA
ATOM      7  C   UNL     1      -8.060  -3.012 125.118  0.00  0.00    +0.000 C 
ATOM      8  C   UNL     1      -8.878  -3.063 123.974  0.00  0.00    +0.000 C 
ATOM      9  C   UNL     1      -7.384  -1.768 123.489  0.00  0.00    +0.000 C 
ATOM     10  C   UNL     1      -8.644  -1.436 123.044  0.00  0.00    +0.000 C 
ATOM     11  C   UNL     1      -7.687  -3.059 123.440  0.00  0.00    +0.000 C 
ATOM     12  N   UNL     1      -8.848  -0.414 124.126  0.00  0.00    +0.000 N 
ATOM     13  C   UNL     1      -8.994   0.942 123.851  0.00  0.00    +0.000 C 
ATOM     14  O   UNL     1      -9.488   1.364 122.835  0.00  0.00    +0.000 OA
ATOM     15  C   UNL     1      -8.024   2.288 127.282  0.00  0.00    +0.000 A 
ATOM     16  C   UNL     1      -7.818   3.603 127.108  0.00  0.00    +0.000 A 
ATOM     17  C   UNL     1      -7.873   4.123 125.721  0.00  0.00    +0.000 A 
ATOM     18  O   UNL     1      -7.692   5.318 125.497  0.00  0.00    +0.000 OA
ENDROOT
BRANCH  16  19
ATOM     19  C   UNL     1      -7.532   4.450 128.292  0.00  0.00    +0.000 C 
ATOM     20  O   UNL     1      -6.389   4.803 128.564  0.00  0.00    +0.000 OA
ATOM     21  N   UNL     1      -8.622   4.749 129.066  0.00  0.00    +0.000 N 
ATOM     22  H   UNL     1      -9.544   4.498 128.717  0.00  0.00    +0.000 HD
BRANCH  21  23
ATOM     23  C   UNL     1      -8.543   5.638 130.211  0.00  0.00    +0.000 C 
BRANCH  23  24
ATOM     24  C   UNL     1      -9.852   6.273 130.603  0.00  0.00    +0.000 A 
ATOM     25  C   UNL     1     -10.422   5.967 131.846  0.00  0.00    +0.000 A 
ATOM     26  F   UNL     1      -9.806   5.106 132.670  0.00  0.00    +0.000 F 
ATOM     27  C   UNL     1     -11.630   6.528 132.259  0.00  0.00    +0.000 A 
ATOM     28  C   UNL     1     -12.277   7.424 131.421  0.00  0.00    +0.000 A 
ATOM     29  F   UNL     1     -13.438   7.970 131.803  0.00  0.00    +0.000 F 
ATOM     30  C   UNL     1     -11.740   7.763 130.191  0.00  0.00    +0.000 A 
ATOM     31  C   UNL     1     -10.538   7.188 129.799  0.00  0.00    +0.000 A 
ATOM     32  F   UNL     1     -10.054   7.531 128.596  0.00  0.00    +0.000 F 
ENDBRANCH  23  24
ENDBRANCH  21  23
ENDBRANCH  16  19
BRANCH   1  33
ATOM     33  O   UNL     1      -8.202   3.678 123.321  0.00  0.00    +0.000 OA
ATOM     34  H   UNL     1      -7.517   4.371 123.241  0.00  0.00    +0.000 HD
ENDBRANCH   1  33
TORSDOF 4
ENDMDL
MODEL 3
REMARK VINA RESULT:      -9.3      5.926      9.464
REMARK  Name = Bictegravir
REMARK  4 active torsions:
REMARK  status: ('A' for Active; 'I' for Inactive)
REMARK    1  A    between atoms: O_1  and  C_2
REMARK    2  A    between atoms: C_17  and  C_18
REMARK    3  A    between atoms: N_20  and  C_21
REMARK    4  A    between atoms: C_21  and  C_22
REMARK                            x       y       z     vdW  Elec       q    Type
REMARK                         _______ _______ _______ _____ _____    ______ ____
ROOT
ATOM      1  C   UNL     1      -8.534  -2.423 125.817  0.00  0.00    +0.000 A 
ATOM      2  C   UNL     1      -8.004  -1.876 126.939  0.00  0.00    +0.000 A 
ATOM      3  N   UNL     1      -7.874  -0.487 127.121  0.00  0.00    +0.000 N 
ATOM      4  C   UNL     1      -7.133   0.062 128.264  0.00  0.00    +0.000 C 
ATOM      5  C   UNL     1      -6.968  -0.934 129.409  0.00  0.00    +0.000 C 
ATOM      6  O   UNL     1      -6.018  -0.326 130.314  0.00  0.00    +0.000 OA
ATOM      7  C   UNL     1      -4.645  -0.751 130.336  0.00  0.00    +0.000 C 
ATOM      8  C   UNL     1      -4.993  -1.946 130.993  0.00  0.00    +0.000 C 
ATOM      9  C   UNL     1      -4.593  -2.502 129.077  0.00  0.00    +0.000 C 
ATOM     10  C   UNL     1      -5.655  -3.134 129.683  0.00  0.00    +0.000 C 
ATOM     11  C   UNL     1      -3.995  -2.340 130.250  0.00  0.00    +0.000 C 
ATOM     12  N   UNL     1      -6.673  -2.291 128.969  0.00  0.00    +0.000 N 
ATOM     13  C   UNL     1      -7.582  -2.829 128.064  0.00  0.00    +0.000 C 
ATOM     14  O   UNL     1      -8.012  -3.953 128.143  0.00  0.00    +0.000 OA
ATOM     15  C   UNL     1      -8.402   0.372 126.165  0.00  0.00    +0.000 A 
ATOM     16  C   UNL     1      -9.042  -0.023 125.054  0.00  0.00    +0.000 A 
ATOM     17  C   UNL     1      -9.129  -1.480 124.799  0.00  0.00    +0.000 A 
ATOM     18  O   UNL     1      -9.703  -1.904 123.798  0.00  0.00    +0.000 OA
ENDROOT
BRANCH  16  19
ATOM     19  C   UNL     1      -9.604   1.006 124.142  0.00  0.00    +0.000 C 
ATOM     20  O   UNL     1     -10.810   1.222 124.092  0.00  0.00    +0.000 OA
ATOM     21  N   UNL     1      -8.685   1.635 123.343  0.00  0.00    +0.000 N 
ATOM     22  H   UNL     1      -7.698   1.463 123.518  0.00  0.00    +0.000 HD
BRANCH  21  23
ATOM     23  C   UNL     1      -9.045   2.726 122.457  0.00  0.00    +0.000 C 
BRANCH  23  24
ATOM     24  C   UNL     1      -7.889   3.318 121.691  0.00  0.00    +0.000 A 
ATOM     25  C   UNL     1      -8.101   3.814 120.397  0.00  0.00    +0.000 A 
ATOM     26  F   UNL     1      -9.323   3.750 119.849  0.00  0.00    +0.000 F 
ATOM     27  C   UNL     1      -7.068   4.373 119.647  0.00  0.00    +0.000 A 
ATOM     28  C   UNL     1      -5.798   4.451 120.202  0.00  0.00    +0.000 A 
ATOM     29  F   UNL     1      -4.796   4.984 119.492  0.00  0.00    +0.000 F 
ATOM     30  C   UNL     1      -5.551   3.985 121.481  0.00  0.00    +0.000 A 
ATOM     31  C   UNL     1      -6.595   3.428 122.209  0.00  0.00    +0.000 A 
ATOM     32  F   UNL     1      -6.316   2.976 123.440  0.00  0.00    +0.000 F 
ENDBRANCH  23  24
ENDBRANCH  21  23
ENDBRANCH  16  19
BRANCH   1  33
ATOM     33  O   UNL     1      -8.608  -3.776 125.525  0.00  0.00    +0.000 OA
ATOM     34  H   UNL     1      -8.296  -4.296 126.292  0.00  0.00    +0.000 HD
ENDBRANCH   1  33
TORSDOF 4
ENDMDL
MODEL 4
REMARK VINA RESULT:      -9.2      3.720      8.932
REMARK  Name = Bictegravir
REMARK  4 active torsions:
REMARK  status: ('A' for Active; 'I' for Inactive)
REMARK    1  A    between atoms: O_1  and  C_2
REMARK    2  A    between atoms: C_17  and  C_18
REMARK    3  A    between atoms: N_20  and  C_21
REMARK    4  A    between atoms: C_21  and  C_22
REMARK                            x       y       z     vdW  Elec       q    Type
REMARK                         _______ _______ _______ _____ _____    ______ ____
ROOT
ATOM      1  C   UNL     1      -7.628  -0.189 129.097  0.00  0.00    +0.000 A 
ATOM      2  C   UNL     1      -7.632  -0.284 127.744  0.00  0.00    +0.000 A 
ATOM      3  N   UNL     1      -7.899   0.814 126.904  0.00  0.00    +0.000 N 
ATOM      4  C   UNL     1      -8.074   0.636 125.457  0.00  0.00    +0.000 C 
ATOM      5  C   UNL     1      -7.483  -0.672 124.935  0.00  0.00    +0.000 C 
ATOM      6  O   UNL     1      -7.962  -0.795 123.577  0.00  0.00    +0.000 OA
ATOM      7  C   UNL     1      -9.053  -1.677 123.257  0.00  0.00    +0.000 C 
ATOM      8  C   UNL     1      -8.225  -2.806 123.408  0.00  0.00    +0.000 C 
ATOM      9  C   UNL     1      -9.401  -2.796 125.069  0.00  0.00    +0.000 C 
ATOM     10  C   UNL     1      -8.086  -3.156 125.259  0.00  0.00    +0.000 C 
ATOM     11  C   UNL     1      -9.372  -3.267 123.829  0.00  0.00    +0.000 C 
ATOM     12  N   UNL     1      -7.710  -1.811 125.814  0.00  0.00    +0.000 N 
ATOM     13  C   UNL     1      -7.279  -1.641 127.125  0.00  0.00    +0.000 C 
ATOM     14  O   UNL     1      -6.674  -2.485 127.739  0.00  0.00    +0.000 OA
ATOM     15  C   UNL     1      -8.063   2.072 127.469  0.00  0.00    +0.000 A 
ATOM     16  C   UNL     1      -7.986   2.336 128.782  0.00  0.00    +0.000 A 
ATOM     17  C   UNL     1      -7.778   1.188 129.697  0.00  0.00    +0.000 A 
ATOM     18  O   UNL     1      -7.700   1.366 130.911  0.00  0.00    +0.000 OA
ENDROOT
BRANCH  16  19
ATOM     19  C   UNL     1      -8.129   3.739 129.245  0.00  0.00    +0.000 C 
ATOM     20  O   UNL     1      -7.648   4.672 128.610  0.00  0.00    +0.000 OA
ATOM     21  N   UNL     1      -8.780   3.891 130.441  0.00  0.00    +0.000 N 
ATOM     22  H   UNL     1      -9.230   3.075 130.850  0.00  0.00    +0.000 HD
BRANCH  21  23
ATOM     23  C   UNL     1      -9.087   5.195 130.999  0.00  0.00    +0.000 C 
BRANCH  23  24
ATOM     24  C   UNL     1     -10.182   5.942 130.282  0.00  0.00    +0.000 A 
ATOM     25  C   UNL     1      -9.961   7.262 129.868  0.00  0.00    +0.000 A 
ATOM     26  F   UNL     1      -8.784   7.852 130.121  0.00  0.00    +0.000 F 
ATOM     27  C   UNL     1     -10.939   7.997 129.199  0.00  0.00    +0.000 A 
ATOM     28  C   UNL     1     -12.160   7.398 128.925  0.00  0.00    +0.000 A 
ATOM     29  F   UNL     1     -13.110   8.092 128.285  0.00  0.00    +0.000 F 
ATOM     30  C   UNL     1     -12.414   6.092 129.305  0.00  0.00    +0.000 A 
ATOM     31  C   UNL     1     -11.426   5.381 129.974  0.00  0.00    +0.000 A 
ATOM     32  F   UNL     1     -11.711   4.122 130.337  0.00  0.00    +0.000 F 
ENDBRANCH  23  24
ENDBRANCH  21  23
ENDBRANCH  16  19
BRANCH   1  33
ATOM     33  O   UNL     1      -7.468  -1.238 129.988  0.00  0.00    +0.000 OA
ATOM     34  H   UNL     1      -7.506  -0.901 130.904  0.00  0.00    +0.000 HD
ENDBRANCH   1  33
TORSDOF 4
ENDMDL
MODEL 5
REMARK VINA RESULT:      -9.2      6.280      9.446
REMARK  Name = Bictegravir
REMARK  4 active torsions:
REMARK  status: ('A' for Active; 'I' for Inactive)
REMARK    1  A    between atoms: O_1  and  C_2
REMARK    2  A    between atoms: C_17  and  C_18
REMARK    3  A    between atoms: N_20  and  C_21
REMARK    4  A    between atoms: C_21  and  C_22
REMARK                            x       y       z     vdW  Elec       q    Type
REMARK                         _______ _______ _______ _____ _____    ______ ____
ROOT
ATOM      1  C   UNL     1      -7.154   3.199 123.993  0.00  0.00    +0.000 A 
ATOM      2  C   UNL     1      -7.354   1.947 124.472  0.00  0.00    +0.000 A 
ATOM      3  N   UNL     1      -6.480   1.332 125.388  0.00  0.00    +0.000 N 
ATOM      4  C   UNL     1      -6.628  -0.085 125.743  0.00  0.00    +0.000 C 
ATOM      5  C   UNL     1      -8.016  -0.642 125.434  0.00  0.00    +0.000 C 
ATOM      6  O   UNL     1      -7.902  -2.073 125.602  0.00  0.00    +0.000 OA
ATOM      7  C   UNL     1      -7.786  -2.943 124.462  0.00  0.00    +0.000 C 
ATOM      8  C   UNL     1      -9.147  -2.764 124.149  0.00  0.00    +0.000 C 
ATOM      9  C   UNL     1      -8.144  -1.665 122.760  0.00  0.00    +0.000 C 
ATOM     10  C   UNL     1      -9.304  -1.110 123.252  0.00  0.00    +0.000 C 
ATOM     11  C   UNL     1      -8.621  -2.887 122.960  0.00  0.00    +0.000 C 
ATOM     12  N   UNL     1      -8.567  -0.175 124.169  0.00  0.00    +0.000 N 
ATOM     13  C   UNL     1      -8.619   1.207 124.021  0.00  0.00    +0.000 C 
ATOM     14  O   UNL     1      -9.576   1.791 123.576  0.00  0.00    +0.000 OA
ATOM     15  C   UNL     1      -5.423   2.067 125.910  0.00  0.00    +0.000 A 
ATOM     16  C   UNL     1      -5.159   3.347 125.606  0.00  0.00    +0.000 A 
ATOM     17  C   UNL     1      -6.019   3.997 124.589  0.00  0.00    +0.000 A 
ATOM     18  O   UNL     1      -5.827   5.168 124.268  0.00  0.00    +0.000 OA
ENDROOT
BRANCH  16  19
ATOM     19  C   UNL     1      -4.025   4.028 126.280  0.00  0.00    +0.000 C 
ATOM     20  O   UNL     1      -2.876   3.612 126.172  0.00  0.00    +0.000 OA
ATOM     21  N   UNL     1      -4.374   5.100 127.057  0.00  0.00    +0.000 N 
ATOM     22  H   UNL     1      -5.334   5.434 127.013  0.00  0.00    +0.000 HD
BRANCH  21  23
ATOM     23  C   UNL     1      -3.388   5.936 127.717  0.00  0.00    +0.000 C 
BRANCH  23  24
ATOM     24  C   UNL     1      -3.531   6.010 129.215  0.00  0.00    +0.000 A 
ATOM     25  C   UNL     1      -3.872   7.229 129.817  0.00  0.00    +0.000 A 
ATOM     26  F   UNL     1      -4.059   8.318 129.058  0.00  0.00    +0.000 F 
ATOM     27  C   UNL     1      -4.019   7.352 131.198  0.00  0.00    +0.000 A 
ATOM     28  C   UNL     1      -3.835   6.232 131.996  0.00  0.00    +0.000 A 
ATOM     29  F   UNL     1      -3.971   6.335 133.324  0.00  0.00    +0.000 F 
ATOM     30  C   UNL     1      -3.510   5.007 131.440  0.00  0.00    +0.000 A 
ATOM     31  C   UNL     1      -3.364   4.910 130.062  0.00  0.00    +0.000 A 
ATOM     32  F   UNL     1      -3.038   3.710 129.560  0.00  0.00    +0.000 F 
ENDBRANCH  23  24
ENDBRANCH  21  23
ENDBRANCH  16  19
BRANCH   1  33
ATOM     33  O   UNL     1      -7.913   3.833 123.023  0.00  0.00    +0.000 OA
ATOM     34  H   UNL     1      -7.425   3.842 122.176  0.00  0.00    +0.000 HD
ENDBRANCH   1  33
TORSDOF 4
ENDMDL
MODEL 6
REMARK VINA RESULT:      -9.2      4.344      5.384
REMARK  Name = Bictegravir
REMARK  4 active torsions:
REMARK  status: ('A' for Active; 'I' for Inactive)
REMARK    1  A    between atoms: O_1  and  C_2
REMARK    2  A    between atoms: C_17  and  C_18
REMARK    3  A    between atoms: N_20  and  C_21
REMARK    4  A    between atoms: C_21  and  C_22
REMARK                            x       y       z     vdW  Elec       q    Type
REMARK                         _______ _______ _______ _____ _____    ______ ____
ROOT
ATOM      1  C   UNL     1      -9.347   5.981 132.531  0.00  0.00    +0.000 A 
ATOM      2  C   UNL     1     -10.057   6.005 131.376  0.00  0.00    +0.000 A 
ATOM      3  N   UNL     1      -9.561   5.484 130.166  0.00  0.00    +0.000 N 
ATOM      4  C   UNL     1     -10.278   5.690 128.901  0.00  0.00    +0.000 C 
ATOM      5  C   UNL     1     -11.747   6.058 129.095  0.00  0.00    +0.000 C 
ATOM      6  O   UNL     1     -12.217   6.466 127.790  0.00  0.00    +0.000 OA
ATOM      7  C   UNL     1     -12.372   7.858 127.464  0.00  0.00    +0.000 C 
ATOM      8  C   UNL     1     -13.528   7.948 128.263  0.00  0.00    +0.000 C 
ATOM      9  C   UNL     1     -12.078   8.894 129.334  0.00  0.00    +0.000 C 
ATOM     10  C   UNL     1     -12.958   8.119 130.056  0.00  0.00    +0.000 C 
ATOM     11  C   UNL     1     -13.010   9.136 128.421  0.00  0.00    +0.000 C 
ATOM     12  N   UNL     1     -11.980   6.986 130.192  0.00  0.00    +0.000 N 
ATOM     13  C   UNL     1     -11.475   6.584 131.424  0.00  0.00    +0.000 C 
ATOM     14  O   UNL     1     -12.092   6.677 132.457  0.00  0.00    +0.000 OA
ATOM     15  C   UNL     1      -8.340   4.822 130.165  0.00  0.00    +0.000 A 
ATOM     16  C   UNL     1      -7.574   4.632 131.251  0.00  0.00    +0.000 A 
ATOM     17  C   UNL     1      -8.035   5.233 132.524  0.00  0.00    +0.000 A 
ATOM     18  O   UNL     1      -7.376   5.094 133.553  0.00  0.00    +0.000 OA
ENDROOT
BRANCH  16  19
ATOM     19  C   UNL     1      -6.314   3.858 131.117  0.00  0.00    +0.000 C 
ATOM     20  O   UNL     1      -6.327   2.647 130.924  0.00  0.00    +0.000 OA
ATOM     21  N   UNL     1      -5.166   4.588 131.278  0.00  0.00    +0.000 N 
ATOM     22  H   UNL     1      -5.244   5.601 131.338  0.00  0.00    +0.000 HD
BRANCH  21  23
ATOM     23  C   UNL     1      -3.847   4.013 131.094  0.00  0.00    +0.000 C 
BRANCH  23  24
ATOM     24  C   UNL     1      -3.389   3.943 129.660  0.00  0.00    +0.000 A 
ATOM     25  C   UNL     1      -2.875   5.092 129.042  0.00  0.00    +0.000 A 
ATOM     26  F   UNL     1      -2.804   6.243 129.727  0.00  0.00    +0.000 F 
ATOM     27  C   UNL     1      -2.436   5.081 127.719  0.00  0.00    +0.000 A 
ATOM     28  C   UNL     1      -2.497   3.897 126.999  0.00  0.00    +0.000 A 
ATOM     29  F   UNL     1      -2.080   3.872 125.727  0.00  0.00    +0.000 F 
ATOM     30  C   UNL     1      -2.985   2.738 127.576  0.00  0.00    +0.000 A 
ATOM     31  C   UNL     1      -3.421   2.773 128.895  0.00  0.00    +0.000 A 
ATOM     32  F   UNL     1      -3.899   1.634 129.417  0.00  0.00    +0.000 F 
ENDBRANCH  23  24
ENDBRANCH  21  23
ENDBRANCH  16  19
BRANCH   1  33
ATOM     33  O   UNL     1      -9.726   6.555 133.734  0.00  0.00    +0.000 OA
ATOM     34  H   UNL     1      -9.787   7.525 133.630  0.00  0.00    +0.000 HD
ENDBRANCH   1  33
TORSDOF 4
ENDMDL
MODEL 7
REMARK VINA RESULT:      -9.2      5.691      7.680
REMARK  Name = Bictegravir
REMARK  4 active torsions:
REMARK  status: ('A' for Active; 'I' for Inactive)
REMARK    1  A    between atoms: O_1  and  C_2
REMARK    2  A    between atoms: C_17  and  C_18
REMARK    3  A    between atoms: N_20  and  C_21
REMARK    4  A    between atoms: C_21  and  C_22
REMARK                            x       y       z     vdW  Elec       q    Type
REMARK                         _______ _______ _______ _____ _____    ______ ____
ROOT
ATOM      1  C   UNL     1      -9.110   6.136 132.477  0.00  0.00    +0.000 A 
ATOM      2  C   UNL     1      -9.774   6.160 131.295  0.00  0.00    +0.000 A 
ATOM      3  N   UNL     1      -9.147   5.892 130.063  0.00  0.00    +0.000 N 
ATOM      4  C   UNL     1      -9.851   6.105 128.792  0.00  0.00    +0.000 C 
ATOM      5  C   UNL     1     -11.369   6.156 128.945  0.00  0.00    +0.000 C 
ATOM      6  O   UNL     1     -11.869   6.617 127.669  0.00  0.00    +0.000 OA
ATOM      7  C   UNL     1     -12.286   7.982 127.492  0.00  0.00    +0.000 C 
ATOM      8  C   UNL     1     -13.461   7.752 128.231  0.00  0.00    +0.000 C 
ATOM      9  C   UNL     1     -12.263   8.825 129.477  0.00  0.00    +0.000 C 
ATOM     10  C   UNL     1     -12.994   7.815 130.060  0.00  0.00    +0.000 C 
ATOM     11  C   UNL     1     -13.195   8.990 128.547  0.00  0.00    +0.000 C 
ATOM     12  N   UNL     1     -11.816   6.885 130.124  0.00  0.00    +0.000 N 
ATOM     13  C   UNL     1     -11.280   6.444 131.330  0.00  0.00    +0.000 C 
ATOM     14  O   UNL     1     -11.935   6.293 132.331  0.00  0.00    +0.000 OA
ATOM     15  C   UNL     1      -7.819   5.483 130.056  0.00  0.00    +0.000 A 
ATOM     16  C   UNL     1      -7.065   5.318 131.154  0.00  0.00    +0.000 A 
ATOM     17  C   UNL     1      -7.677   5.662 132.459  0.00  0.00    +0.000 A 
ATOM     18  O   UNL     1      -7.036   5.532 133.500  0.00  0.00    +0.000 OA
ENDROOT
BRANCH  16  19
ATOM     19  C   UNL     1      -5.674   4.823 131.004  0.00  0.00    +0.000 C 
ATOM     20  O   UNL     1      -5.441   3.665 130.673  0.00  0.00    +0.000 OA
ATOM     21  N   UNL     1      -4.699   5.734 131.314  0.00  0.00    +0.000 N 
ATOM     22  H   UNL     1      -4.978   6.697 131.485  0.00  0.00    +0.000 HD
BRANCH  21  23
ATOM     23  C   UNL     1      -3.286   5.451 131.139  0.00  0.00    +0.000 C 
BRANCH  23  24
ATOM     24  C   UNL     1      -2.364   6.379 131.888  0.00  0.00    +0.000 A 
ATOM     25  C   UNL     1      -1.224   5.860 132.517  0.00  0.00    +0.000 A 
ATOM     26  F   UNL     1      -0.969   4.545 132.456  0.00  0.00    +0.000 F 
ATOM     27  C   UNL     1      -0.338   6.674 133.220  0.00  0.00    +0.000 A 
ATOM     28  C   UNL     1      -0.585   8.037 133.288  0.00  0.00    +0.000 A 
ATOM     29  F   UNL     1       0.256   8.832 133.961  0.00  0.00    +0.000 F 
ATOM     30  C   UNL     1      -1.693   8.591 132.669  0.00  0.00    +0.000 A 
ATOM     31  C   UNL     1      -2.565   7.760 131.978  0.00  0.00    +0.000 A 
ATOM     32  F   UNL     1      -3.633   8.330 131.401  0.00  0.00    +0.000 F 
ENDBRANCH  23  24
ENDBRANCH  21  23
ENDBRANCH  16  19
BRANCH   1  33
ATOM     33  O   UNL     1      -9.633   6.479 133.713  0.00  0.00    +0.000 OA
ATOM     34  H   UNL     1      -9.503   5.742 134.342  0.00  0.00    +0.000 HD
ENDBRANCH   1  33
TORSDOF 4
ENDMDL
MODEL 8
REMARK VINA RESULT:      -9.2      1.679      2.507
REMARK  Name = Bictegravir
REMARK  4 active torsions:
REMARK  status: ('A' for Active; 'I' for Inactive)
REMARK    1  A    between atoms: O_1  and  C_2
REMARK    2  A    between atoms: C_17  and  C_18
REMARK    3  A    between atoms: N_20  and  C_21
REMARK    4  A    between atoms: C_21  and  C_22
REMARK                            x       y       z     vdW  Elec       q    Type
REMARK                         _______ _______ _______ _____ _____    ______ ____
ROOT
ATOM      1  C   UNL     1      -7.846   4.560 130.174  0.00  0.00    +0.000 A 
ATOM      2  C   UNL     1      -9.089   5.096 130.245  0.00  0.00    +0.000 A 
ATOM      3  N   UNL     1     -10.243   4.317 130.457  0.00  0.00    +0.000 N 
ATOM      4  C   UNL     1     -11.585   4.904 130.347  0.00  0.00    +0.000 C 
ATOM      5  C   UNL     1     -11.588   6.426 130.470  0.00  0.00    +0.000 C 
ATOM      6  O   UNL     1     -12.920   6.840 130.089  0.00  0.00    +0.000 OA
ATOM      7  C   UNL     1     -13.177   7.388 128.785  0.00  0.00    +0.000 C 
ATOM      8  C   UNL     1     -12.554   8.600 129.139  0.00  0.00    +0.000 C 
ATOM      9  C   UNL     1     -11.223   7.668 127.914  0.00  0.00    +0.000 C 
ATOM     10  C   UNL     1     -10.690   8.336 128.993  0.00  0.00    +0.000 C 
ATOM     11  C   UNL     1     -12.247   8.510 127.873  0.00  0.00    +0.000 C 
ATOM     12  N   UNL     1     -10.481   7.073 129.780  0.00  0.00    +0.000 N 
ATOM     13  C   UNL     1      -9.216   6.620 130.137  0.00  0.00    +0.000 C 
ATOM     14  O   UNL     1      -8.282   7.354 130.348  0.00  0.00    +0.000 OA
ATOM     15  C   UNL     1     -10.104   2.958 130.710  0.00  0.00    +0.000 A 
ATOM     16  C   UNL     1      -8.931   2.309 130.770  0.00  0.00    +0.000 A 
ATOM     17  C   UNL     1      -7.705   3.089 130.479  0.00  0.00    +0.000 A 
ATOM     18  O   UNL     1      -6.600   2.549 130.518  0.00  0.00    +0.000 OA
ENDROOT
BRANCH  16  19
ATOM     19  C   UNL     1      -8.925   0.862 131.103  0.00  0.00    +0.000 C 
ATOM     20  O   UNL     1      -9.678   0.400 131.954  0.00  0.00    +0.000 OA
ATOM     21  N   UNL     1      -7.990   0.118 130.432  0.00  0.00    +0.000 N 
ATOM     22  H   UNL     1      -7.474   0.562 129.676  0.00  0.00    +0.000 HD
BRANCH  21  23
ATOM     23  C   UNL     1      -7.902  -1.324 130.567  0.00  0.00    +0.000 C 
BRANCH  23  24
ATOM     24  C   UNL     1      -6.582  -1.914 130.142  0.00  0.00    +0.000 A 
ATOM     25  C   UNL     1      -6.274  -2.005 128.778  0.00  0.00    +0.000 A 
ATOM     26  F   UNL     1      -7.157  -1.578 127.864  0.00  0.00    +0.000 F 
ATOM     27  C   UNL     1      -5.066  -2.540 128.331  0.00  0.00    +0.000 A 
ATOM     28  C   UNL     1      -4.139  -2.981 129.265  0.00  0.00    +0.000 A 
ATOM     29  F   UNL     1      -2.976  -3.499 128.850  0.00  0.00    +0.000 F 
ATOM     30  C   UNL     1      -4.400  -2.896 130.621  0.00  0.00    +0.000 A 
ATOM     31  C   UNL     1      -5.611  -2.364 131.043  0.00  0.00    +0.000 A 
ATOM     32  F   UNL     1      -5.834  -2.308 132.364  0.00  0.00    +0.000 F 
ENDBRANCH  23  24
ENDBRANCH  21  23
ENDBRANCH  16  19
BRANCH   1  33
ATOM     33  O   UNL     1      -6.679   5.245 129.875  0.00  0.00    +0.000 OA
ATOM     34  H   UNL     1      -6.834   6.208 129.947  0.00  0.00    +0.000 HD
ENDBRANCH   1  33
TORSDOF 4
ENDMDL
MODEL 9
REMARK VINA RESULT:      -9.0      1.865      2.674
REMARK  Name = Bictegravir
REMARK  4 active torsions:
REMARK  status: ('A' for Active; 'I' for Inactive)
REMARK    1  A    between atoms: O_1  and  C_2
REMARK    2  A    between atoms: C_17  and  C_18
REMARK    3  A    between atoms: N_20  and  C_21
REMARK    4  A    between atoms: C_21  and  C_22
REMARK                            x       y       z     vdW  Elec       q    Type
REMARK                         _______ _______ _______ _____ _____    ______ ____
ROOT
ATOM      1  C   UNL     1      -6.181   4.027 128.941  0.00  0.00    +0.000 A 
ATOM      2  C   UNL     1      -7.410   4.211 129.481  0.00  0.00    +0.000 A 
ATOM      3  N   UNL     1      -8.352   3.172 129.604  0.00  0.00    +0.000 N 
ATOM      4  C   UNL     1      -9.733   3.446 130.024  0.00  0.00    +0.000 C 
ATOM      5  C   UNL     1      -9.890   4.785 130.741  0.00  0.00    +0.000 C 
ATOM      6  O   UNL     1     -11.316   4.999 130.847  0.00  0.00    +0.000 OA
ATOM      7  C   UNL     1     -11.995   5.901 129.956  0.00  0.00    +0.000 C 
ATOM      8  C   UNL     1     -11.453   7.016 130.623  0.00  0.00    +0.000 C 
ATOM      9  C   UNL     1     -10.414   6.897 128.877  0.00  0.00    +0.000 C 
ATOM     10  C   UNL     1      -9.687   7.242 129.994  0.00  0.00    +0.000 C 
ATOM     11  C   UNL     1     -11.505   7.450 129.392  0.00  0.00    +0.000 C 
ATOM     12  N   UNL     1      -9.111   5.863 130.148  0.00  0.00    +0.000 N 
ATOM     13  C   UNL     1      -7.750   5.606 130.019  0.00  0.00    +0.000 C 
ATOM     14  O   UNL     1      -6.893   6.407 130.302  0.00  0.00    +0.000 OA
ATOM     15  C   UNL     1      -7.980   1.879 129.259  0.00  0.00    +0.000 A 
ATOM     16  C   UNL     1      -6.767   1.529 128.806  0.00  0.00    +0.000 A 
ATOM     17  C   UNL     1      -5.778   2.613 128.597  0.00  0.00    +0.000 A 
ATOM     18  O   UNL     1      -4.649   2.355 128.184  0.00  0.00    +0.000 OA
ENDROOT
BRANCH  16  19
ATOM     19  C   UNL     1      -6.489   0.098 128.525  0.00  0.00    +0.000 C 
ATOM     20  O   UNL     1      -6.492  -0.740 129.421  0.00  0.00    +0.000 OA
ATOM     21  N   UNL     1      -6.181  -0.186 127.221  0.00  0.00    +0.000 N 
ATOM     22  H   UNL     1      -6.295   0.550 126.528  0.00  0.00    +0.000 HD
BRANCH  21  23
ATOM     23  C   UNL     1      -5.968  -1.543 126.750  0.00  0.00    +0.000 C 
BRANCH  23  24
ATOM     24  C   UNL     1      -7.072  -2.084 125.879  0.00  0.00    +0.000 A 
ATOM     25  C   UNL     1      -6.867  -2.198 124.497  0.00  0.00    +0.000 A 
ATOM     26  F   UNL     1      -5.698  -1.817 123.961  0.00  0.00    +0.000 F 
ATOM     27  C   UNL     1      -7.854  -2.695 123.646  0.00  0.00    +0.000 A 
ATOM     28  C   UNL     1      -9.067  -3.099 124.186  0.00  0.00    +0.000 A 
ATOM     29  F   UNL     1     -10.024  -3.576 123.381  0.00  0.00    +0.000 F 
ATOM     30  C   UNL     1      -9.303  -3.014 125.547  0.00  0.00    +0.000 A 
ATOM     31  C   UNL     1      -8.307  -2.512 126.374  0.00  0.00    +0.000 A 
ATOM     32  F   UNL     1      -8.576  -2.434 127.686  0.00  0.00    +0.000 F 
ENDBRANCH  23  24
ENDBRANCH  21  23
ENDBRANCH  16  19
BRANCH   1  33
ATOM     33  O   UNL     1      -5.239   5.014 128.701  0.00  0.00    +0.000 OA
ATOM     34  H   UNL     1      -4.705   4.776 127.917  0.00  0.00    +0.000 HD
ENDBRANCH   1  33
TORSDOF 4
ENDMDL
