MODEL 1
REMARK VINA RESULT:      -8.1      0.000      0.000
REMARK  Name = Bifonazole
REMARK  4 active torsions:
REMARK  status: ('A' for Active; 'I' for Inactive)
REMARK    1  A    between atoms: N_3  and  C_6
REMARK    2  A    between atoms: C_6  and  C_7
REMARK    3  A    between atoms: C_6  and  C_13
REMARK    4  A    between atoms: C_16  and  C_19
REMARK                            x       y       z     vdW  Elec       q    Type
REMARK                         _______ _______ _______ _____ _____    ______ ____
ROOT
ATOM      1  C   UNL     1      -6.611   0.464 126.002  0.00  0.00    +0.000 C 
ENDROOT
BRANCH   1   2
ATOM      2  C   UNL     1      -7.055  -0.961 125.681  0.00  0.00    +0.000 A 
ATOM      3  C   UNL     1      -6.153  -1.890 125.141  0.00  0.00    +0.000 A 
ATOM      4  C   UNL     1      -6.627  -3.100 124.635  0.00  0.00    +0.000 A 
ATOM      5  C   UNL     1      -7.988  -3.404 124.693  0.00  0.00    +0.000 A 
ATOM      6  C   UNL     1      -8.883  -2.509 125.270  0.00  0.00    +0.000 A 
ATOM      7  C   UNL     1      -8.418  -1.308 125.786  0.00  0.00    +0.000 A 
ENDBRANCH   1   2
BRANCH   1   8
ATOM      8  C   UNL     1      -6.621   1.390 124.777  0.00  0.00    +0.000 A 
ATOM      9  C   UNL     1      -5.994   2.650 124.786  0.00  0.00    +0.000 A 
ATOM     10  C   UNL     1      -5.971   3.453 123.657  0.00  0.00    +0.000 A 
ATOM     11  C   UNL     1      -6.536   3.006 122.463  0.00  0.00    +0.000 A 
ATOM     12  C   UNL     1      -7.200   1.775 122.446  0.00  0.00    +0.000 A 
ATOM     13  C   UNL     1      -7.268   0.989 123.596  0.00  0.00    +0.000 A 
BRANCH  11  14
ATOM     14  C   UNL     1      -6.434   3.847 121.277  0.00  0.00    +0.000 A 
ATOM     15  C   UNL     1      -7.467   3.865 120.327  0.00  0.00    +0.000 A 
ATOM     16  C   UNL     1      -7.313   4.558 119.130  0.00  0.00    +0.000 A 
ATOM     17  C   UNL     1      -6.147   5.283 118.899  0.00  0.00    +0.000 A 
ATOM     18  C   UNL     1      -5.128   5.302 119.851  0.00  0.00    +0.000 A 
ATOM     19  C   UNL     1      -5.267   4.580 121.032  0.00  0.00    +0.000 A 
ENDBRANCH  11  14
ENDBRANCH   1   8
BRANCH   1  22
ATOM     20  C   UNL     1      -8.166   1.311 129.156  0.00  0.00    +0.000 A 
ATOM     21  C   UNL     1      -7.170   0.668 128.456  0.00  0.00    +0.000 A 
ATOM     22  N   UNL     1      -7.404   0.975 127.137  0.00  0.00    +0.000 N 
ATOM     23  C   UNL     1      -8.515   1.773 127.102  0.00  0.00    +0.000 A 
ATOM     24  N   UNL     1      -8.980   2.012 128.313  0.00  0.00    +0.000 NA
ENDBRANCH   1  22
TORSDOF 4
ENDMDL
MODEL 2
REMARK VINA RESULT:      -8.1      3.378      6.638
REMARK  Name = Bifonazole
REMARK  4 active torsions:
REMARK  status: ('A' for Active; 'I' for Inactive)
REMARK    1  A    between atoms: N_3  and  C_6
REMARK    2  A    between atoms: C_6  and  C_7
REMARK    3  A    between atoms: C_6  and  C_13
REMARK    4  A    between atoms: C_16  and  C_19
REMARK                            x       y       z     vdW  Elec       q    Type
REMARK                         _______ _______ _______ _____ _____    ______ ____
ROOT
ATOM      1  C   UNL     1      -6.793   2.102 123.527  0.00  0.00    +0.000 C 
ENDROOT
BRANCH   1   2
ATOM      2  C   UNL     1      -6.990   2.983 122.296  0.00  0.00    +0.000 A 
ATOM      3  C   UNL     1      -8.277   3.276 121.822  0.00  0.00    +0.000 A 
ATOM      4  C   UNL     1      -8.433   3.876 120.572  0.00  0.00    +0.000 A 
ATOM      5  C   UNL     1      -7.315   4.214 119.808  0.00  0.00    +0.000 A 
ATOM      6  C   UNL     1      -6.034   3.971 120.291  0.00  0.00    +0.000 A 
ATOM      7  C   UNL     1      -5.870   3.385 121.539  0.00  0.00    +0.000 A 
ENDBRANCH   1   2
BRANCH   1   8
ATOM      8  C   UNL     1      -6.124   2.839 124.696  0.00  0.00    +0.000 A 
ATOM      9  C   UNL     1      -5.402   2.160 125.695  0.00  0.00    +0.000 A 
ATOM     10  C   UNL     1      -4.765   2.844 126.717  0.00  0.00    +0.000 A 
ATOM     11  C   UNL     1      -4.789   4.238 126.754  0.00  0.00    +0.000 A 
ATOM     12  C   UNL     1      -5.537   4.929 125.795  0.00  0.00    +0.000 A 
ATOM     13  C   UNL     1      -6.222   4.237 124.795  0.00  0.00    +0.000 A 
BRANCH  11  14
ATOM     14  C   UNL     1      -4.052   4.928 127.804  0.00  0.00    +0.000 A 
ATOM     15  C   UNL     1      -3.658   6.266 127.636  0.00  0.00    +0.000 A 
ATOM     16  C   UNL     1      -2.836   6.883 128.574  0.00  0.00    +0.000 A 
ATOM     17  C   UNL     1      -2.449   6.185 129.716  0.00  0.00    +0.000 A 
ATOM     18  C   UNL     1      -2.864   4.868 129.912  0.00  0.00    +0.000 A 
ATOM     19  C   UNL     1      -3.656   4.239 128.956  0.00  0.00    +0.000 A 
ENDBRANCH  11  14
ENDBRANCH   1   8
BRANCH   1  22
ATOM     20  C   UNL     1     -10.011   1.074 124.819  0.00  0.00    +0.000 A 
ATOM     21  C   UNL     1      -9.006   2.011 124.739  0.00  0.00    +0.000 A 
ATOM     22  N   UNL     1      -8.078   1.469 123.882  0.00  0.00    +0.000 N 
ATOM     23  C   UNL     1      -8.556   0.248 123.495  0.00  0.00    +0.000 A 
ATOM     24  N   UNL     1      -9.736  -0.003 124.028  0.00  0.00    +0.000 NA
ENDBRANCH   1  22
TORSDOF 4
ENDMDL
MODEL 3
REMARK VINA RESULT:      -8.0      3.688      8.569
REMARK  Name = Bifonazole
REMARK  4 active torsions:
REMARK  status: ('A' for Active; 'I' for Inactive)
REMARK    1  A    between atoms: N_3  and  C_6
REMARK    2  A    between atoms: C_6  and  C_7
REMARK    3  A    between atoms: C_6  and  C_13
REMARK    4  A    between atoms: C_16  and  C_19
REMARK                            x       y       z     vdW  Elec       q    Type
REMARK                         _______ _______ _______ _____ _____    ______ ____
ROOT
ATOM      1  C   UNL     1      -8.280  -1.641 125.637  0.00  0.00    +0.000 C 
ENDROOT
BRANCH   1   2
ATOM      2  C   UNL     1      -7.302  -2.132 124.572  0.00  0.00    +0.000 A 
ATOM      3  C   UNL     1      -6.212  -2.944 124.917  0.00  0.00    +0.000 A 
ATOM      4  C   UNL     1      -5.205  -3.183 123.981  0.00  0.00    +0.000 A 
ATOM      5  C   UNL     1      -5.294  -2.644 122.697  0.00  0.00    +0.000 A 
ATOM      6  C   UNL     1      -6.396  -1.878 122.330  0.00  0.00    +0.000 A 
ATOM      7  C   UNL     1      -7.407  -1.646 123.252  0.00  0.00    +0.000 A 
ENDBRANCH   1   2
BRANCH   1   8
ATOM      8  C   UNL     1      -7.928  -2.129 127.050  0.00  0.00    +0.000 A 
ATOM      9  C   UNL     1      -8.567  -3.235 127.641  0.00  0.00    +0.000 A 
ATOM     10  C   UNL     1      -8.204  -3.691 128.898  0.00  0.00    +0.000 A 
ATOM     11  C   UNL     1      -7.157  -3.085 129.593  0.00  0.00    +0.000 A 
ATOM     12  C   UNL     1      -6.539  -1.959 129.040  0.00  0.00    +0.000 A 
ATOM     13  C   UNL     1      -6.939  -1.467 127.797  0.00  0.00    +0.000 A 
BRANCH  11  14
ATOM     14  C   UNL     1      -6.757  -3.633 130.882  0.00  0.00    +0.000 A 
ATOM     15  C   UNL     1      -7.287  -3.111 132.073  0.00  0.00    +0.000 A 
ATOM     16  C   UNL     1      -6.805  -3.537 133.307  0.00  0.00    +0.000 A 
ATOM     17  C   UNL     1      -5.829  -4.529 133.359  0.00  0.00    +0.000 A 
ATOM     18  C   UNL     1      -5.321  -5.081 132.184  0.00  0.00    +0.000 A 
ATOM     19  C   UNL     1      -5.777  -4.630 130.950  0.00  0.00    +0.000 A 
ENDBRANCH  11  14
ENDBRANCH   1   8
BRANCH   1  22
ATOM     20  C   UNL     1      -7.942   1.956 125.464  0.00  0.00    +0.000 A 
ATOM     21  C   UNL     1      -7.363   0.709 125.521  0.00  0.00    +0.000 A 
ATOM     22  N   UNL     1      -8.415  -0.175 125.533  0.00  0.00    +0.000 N 
ATOM     23  C   UNL     1      -9.562   0.568 125.488  0.00  0.00    +0.000 A 
ATOM     24  N   UNL     1      -9.303   1.859 125.420  0.00  0.00    +0.000 NA
ENDBRANCH   1  22
TORSDOF 4
ENDMDL
MODEL 4
REMARK VINA RESULT:      -7.6      4.786      7.696
REMARK  Name = Bifonazole
REMARK  4 active torsions:
REMARK  status: ('A' for Active; 'I' for Inactive)
REMARK    1  A    between atoms: N_3  and  C_6
REMARK    2  A    between atoms: C_6  and  C_7
REMARK    3  A    between atoms: C_6  and  C_13
REMARK    4  A    between atoms: C_16  and  C_19
REMARK                            x       y       z     vdW  Elec       q    Type
REMARK                         _______ _______ _______ _____ _____    ______ ____
ROOT
ATOM      1  C   UNL     1      -7.813  -1.531 131.524  0.00  0.00    +0.000 C 
ENDROOT
BRANCH   1   2
ATOM      2  C   UNL     1      -8.069  -0.073 131.897  0.00  0.00    +0.000 A 
ATOM      3  C   UNL     1      -7.089   0.682 132.558  0.00  0.00    +0.000 A 
ATOM      4  C   UNL     1      -7.421   1.924 133.100  0.00  0.00    +0.000 A 
ATOM      5  C   UNL     1      -8.714   2.431 132.959  0.00  0.00    +0.000 A 
ATOM      6  C   UNL     1      -9.679   1.711 132.263  0.00  0.00    +0.000 A 
ATOM      7  C   UNL     1      -9.353   0.480 131.712  0.00  0.00    +0.000 A 
ENDBRANCH   1   2
BRANCH   1   8
ATOM      8  C   UNL     1      -7.843  -1.781 130.009  0.00  0.00    +0.000 A 
ATOM      9  C   UNL     1      -8.210  -3.025 129.462  0.00  0.00    +0.000 A 
ATOM     10  C   UNL     1      -8.279  -3.219 128.093  0.00  0.00    +0.000 A 
ATOM     11  C   UNL     1      -8.025  -2.164 127.217  0.00  0.00    +0.000 A 
ATOM     12  C   UNL     1      -7.617  -0.932 127.740  0.00  0.00    +0.000 A 
ATOM     13  C   UNL     1      -7.498  -0.750 129.119  0.00  0.00    +0.000 A 
BRANCH  11  14
ATOM     14  C   UNL     1      -8.172  -2.385 125.785  0.00  0.00    +0.000 A 
ATOM     15  C   UNL     1      -7.321  -1.739 124.873  0.00  0.00    +0.000 A 
ATOM     16  C   UNL     1      -7.546  -1.840 123.504  0.00  0.00    +0.000 A 
ATOM     17  C   UNL     1      -8.591  -2.632 123.034  0.00  0.00    +0.000 A 
ATOM     18  C   UNL     1      -9.420  -3.307 123.928  0.00  0.00    +0.000 A 
ATOM     19  C   UNL     1      -9.217  -3.178 125.299  0.00  0.00    +0.000 A 
ENDBRANCH  11  14
ENDBRANCH   1   8
BRANCH   1  22
ATOM     20  C   UNL     1      -4.490  -2.563 132.510  0.00  0.00    +0.000 A 
ATOM     21  C   UNL     1      -5.339  -2.034 131.565  0.00  0.00    +0.000 A 
ATOM     22  N   UNL     1      -6.570  -1.988 132.175  0.00  0.00    +0.000 N 
ATOM     23  C   UNL     1      -6.410  -2.488 133.437  0.00  0.00    +0.000 A 
ATOM     24  N   UNL     1      -5.155  -2.820 133.674  0.00  0.00    +0.000 NA
ENDBRANCH   1  22
TORSDOF 4
ENDMDL
MODEL 5
REMARK VINA RESULT:      -7.5      8.672      9.925
REMARK  Name = Bifonazole
REMARK  4 active torsions:
REMARK  status: ('A' for Active; 'I' for Inactive)
REMARK    1  A    between atoms: N_3  and  C_6
REMARK    2  A    between atoms: C_6  and  C_7
REMARK    3  A    between atoms: C_6  and  C_13
REMARK    4  A    between atoms: C_16  and  C_19
REMARK                            x       y       z     vdW  Elec       q    Type
REMARK                         _______ _______ _______ _____ _____    ______ ____
ROOT
ATOM      1  C   UNL     1      -5.982   5.521 133.107  0.00  0.00    +0.000 C 
ENDROOT
BRANCH   1   2
ATOM      2  C   UNL     1      -4.667   5.734 132.362  0.00  0.00    +0.000 A 
ATOM      3  C   UNL     1      -4.243   4.828 131.379  0.00  0.00    +0.000 A 
ATOM      4  C   UNL     1      -2.942   4.904 130.883  0.00  0.00    +0.000 A 
ATOM      5  C   UNL     1      -2.072   5.896 131.337  0.00  0.00    +0.000 A 
ATOM      6  C   UNL     1      -2.498   6.829 132.276  0.00  0.00    +0.000 A 
ATOM      7  C   UNL     1      -3.796   6.767 132.766  0.00  0.00    +0.000 A 
ENDBRANCH   1   2
BRANCH   1   8
ATOM      8  C   UNL     1      -7.202   6.055 132.343  0.00  0.00    +0.000 A 
ATOM      9  C   UNL     1      -7.075   6.812 131.163  0.00  0.00    +0.000 A 
ATOM     10  C   UNL     1      -8.186   7.245 130.460  0.00  0.00    +0.000 A 
ATOM     11  C   UNL     1      -9.469   6.901 130.887  0.00  0.00    +0.000 A 
ATOM     12  C   UNL     1      -9.617   6.186 132.079  0.00  0.00    +0.000 A 
ATOM     13  C   UNL     1      -8.499   5.793 132.816  0.00  0.00    +0.000 A 
BRANCH  11  14
ATOM     14  C   UNL     1     -10.613   7.316 130.086  0.00  0.00    +0.000 A 
ATOM     15  C   UNL     1     -10.422   7.975 128.860  0.00  0.00    +0.000 A 
ATOM     16  C   UNL     1     -11.508   8.494 128.162  0.00  0.00    +0.000 A 
ATOM     17  C   UNL     1     -12.797   8.310 128.656  0.00  0.00    +0.000 A 
ATOM     18  C   UNL     1     -13.002   7.626 129.853  0.00  0.00    +0.000 A 
ATOM     19  C   UNL     1     -11.913   7.137 130.570  0.00  0.00    +0.000 A 
ENDBRANCH  11  14
ENDBRANCH   1   8
BRANCH   1  22
ATOM     20  C   UNL     1      -5.919   2.224 134.593  0.00  0.00    +0.000 A 
ATOM     21  C   UNL     1      -5.660   3.573 134.681  0.00  0.00    +0.000 A 
ATOM     22  N   UNL     1      -6.098   4.100 133.490  0.00  0.00    +0.000 N 
ATOM     23  C   UNL     1      -6.589   3.061 132.749  0.00  0.00    +0.000 A 
ATOM     24  N   UNL     1      -6.516   1.919 133.404  0.00  0.00    +0.000 NA
ENDBRANCH   1  22
TORSDOF 4
ENDMDL
MODEL 6
REMARK VINA RESULT:      -7.3      3.867      8.994
REMARK  Name = Bifonazole
REMARK  4 active torsions:
REMARK  status: ('A' for Active; 'I' for Inactive)
REMARK    1  A    between atoms: N_3  and  C_6
REMARK    2  A    between atoms: C_6  and  C_7
REMARK    3  A    between atoms: C_6  and  C_13
REMARK    4  A    between atoms: C_16  and  C_19
REMARK                            x       y       z     vdW  Elec       q    Type
REMARK                         _______ _______ _______ _____ _____    ______ ____
ROOT
ATOM      1  C   UNL     1      -6.965  -1.335 125.582  0.00  0.00    +0.000 C 
ENDROOT
BRANCH   1   2
ATOM      2  C   UNL     1      -7.226   0.164 125.714  0.00  0.00    +0.000 A 
ATOM      3  C   UNL     1      -6.490   1.090 124.962  0.00  0.00    +0.000 A 
ATOM      4  C   UNL     1      -6.572   2.449 125.266  0.00  0.00    +0.000 A 
ATOM      5  C   UNL     1      -7.408   2.892 126.293  0.00  0.00    +0.000 A 
ATOM      6  C   UNL     1      -8.179   1.985 127.012  0.00  0.00    +0.000 A 
ATOM      7  C   UNL     1      -8.111   0.633 126.707  0.00  0.00    +0.000 A 
ENDBRANCH   1   2
BRANCH   1   8
ATOM      8  C   UNL     1      -6.789  -2.039 126.935  0.00  0.00    +0.000 A 
ATOM      9  C   UNL     1      -5.533  -2.163 127.557  0.00  0.00    +0.000 A 
ATOM     10  C   UNL     1      -5.399  -2.758 128.800  0.00  0.00    +0.000 A 
ATOM     11  C   UNL     1      -6.523  -3.213 129.489  0.00  0.00    +0.000 A 
ATOM     12  C   UNL     1      -7.775  -3.137 128.869  0.00  0.00    +0.000 A 
ATOM     13  C   UNL     1      -7.903  -2.584 127.595  0.00  0.00    +0.000 A 
BRANCH  11  14
ATOM     14  C   UNL     1      -6.353  -3.773 130.824  0.00  0.00    +0.000 A 
ATOM     15  C   UNL     1      -7.005  -3.195 131.925  0.00  0.00    +0.000 A 
ATOM     16  C   UNL     1      -6.737  -3.639 133.216  0.00  0.00    +0.000 A 
ATOM     17  C   UNL     1      -5.857  -4.702 133.411  0.00  0.00    +0.000 A 
ATOM     18  C   UNL     1      -5.232  -5.307 132.322  0.00  0.00    +0.000 A 
ATOM     19  C   UNL     1      -5.473  -4.839 131.033  0.00  0.00    +0.000 A 
ENDBRANCH  11  14
ENDBRANCH   1   8
BRANCH   1  22
ATOM     20  C   UNL     1      -9.194  -3.386 123.605  0.00  0.00    +0.000 A 
ATOM     21  C   UNL     1      -8.127  -3.281 124.469  0.00  0.00    +0.000 A 
ATOM     22  N   UNL     1      -8.011  -1.937 124.732  0.00  0.00    +0.000 N 
ATOM     23  C   UNL     1      -8.994  -1.303 124.023  0.00  0.00    +0.000 A 
ATOM     24  N   UNL     1      -9.739  -2.160 123.352  0.00  0.00    +0.000 NA
ENDBRANCH   1  22
TORSDOF 4
ENDMDL
MODEL 7
REMARK VINA RESULT:      -7.3      8.081     10.476
REMARK  Name = Bifonazole
REMARK  4 active torsions:
REMARK  status: ('A' for Active; 'I' for Inactive)
REMARK    1  A    between atoms: N_3  and  C_6
REMARK    2  A    between atoms: C_6  and  C_7
REMARK    3  A    between atoms: C_6  and  C_13
REMARK    4  A    between atoms: C_16  and  C_19
REMARK                            x       y       z     vdW  Elec       q    Type
REMARK                         _______ _______ _______ _____ _____    ______ ____
ROOT
ATOM      1  C   UNL     1      -5.372   5.379 132.859  0.00  0.00    +0.000 C 
ENDROOT
BRANCH   1   2
ATOM      2  C   UNL     1      -4.277   6.443 132.842  0.00  0.00    +0.000 A 
ATOM      3  C   UNL     1      -3.642   6.801 131.644  0.00  0.00    +0.000 A 
ATOM      4  C   UNL     1      -2.492   7.590 131.680  0.00  0.00    +0.000 A 
ATOM      5  C   UNL     1      -1.991   8.050 132.899  0.00  0.00    +0.000 A 
ATOM      6  C   UNL     1      -2.642   7.740 134.088  0.00  0.00    +0.000 A 
ATOM      7  C   UNL     1      -3.793   6.965 134.059  0.00  0.00    +0.000 A 
ENDBRANCH   1   2
BRANCH   1   8
ATOM      8  C   UNL     1      -6.715   5.887 132.317  0.00  0.00    +0.000 A 
ATOM      9  C   UNL     1      -6.796   6.777 131.230  0.00  0.00    +0.000 A 
ATOM     10  C   UNL     1      -8.017   7.188 130.723  0.00  0.00    +0.000 A 
ATOM     11  C   UNL     1      -9.206   6.690 131.256  0.00  0.00    +0.000 A 
ATOM     12  C   UNL     1      -9.147   5.838 132.363  0.00  0.00    +0.000 A 
ATOM     13  C   UNL     1      -7.918   5.464 132.907  0.00  0.00    +0.000 A 
BRANCH  11  14
ATOM     14  C   UNL     1     -10.471   7.091 130.654  0.00  0.00    +0.000 A 
ATOM     15  C   UNL     1     -11.688   6.778 131.281  0.00  0.00    +0.000 A 
ATOM     16  C   UNL     1     -12.897   7.037 130.643  0.00  0.00    +0.000 A 
ATOM     17  C   UNL     1     -12.900   7.661 129.398  0.00  0.00    +0.000 A 
ATOM     18  C   UNL     1     -11.699   8.010 128.782  0.00  0.00    +0.000 A 
ATOM     19  C   UNL     1     -10.488   7.719 129.404  0.00  0.00    +0.000 A 
ENDBRANCH  11  14
ENDBRANCH   1   8
BRANCH   1  22
ATOM     20  C   UNL     1      -4.642   2.543 130.736  0.00  0.00    +0.000 A 
ATOM     21  C   UNL     1      -5.325   3.717 130.958  0.00  0.00    +0.000 A 
ATOM     22  N   UNL     1      -4.879   4.165 132.179  0.00  0.00    +0.000 N 
ATOM     23  C   UNL     1      -3.966   3.253 132.631  0.00  0.00    +0.000 A 
ATOM     24  N   UNL     1      -3.785   2.275 131.764  0.00  0.00    +0.000 NA
ENDBRANCH   1  22
TORSDOF 4
ENDMDL
MODEL 8
REMARK VINA RESULT:      -7.2      4.169      9.299
REMARK  Name = Bifonazole
REMARK  4 active torsions:
REMARK  status: ('A' for Active; 'I' for Inactive)
REMARK    1  A    between atoms: N_3  and  C_6
REMARK    2  A    between atoms: C_6  and  C_7
REMARK    3  A    between atoms: C_6  and  C_13
REMARK    4  A    between atoms: C_16  and  C_19
REMARK                            x       y       z     vdW  Elec       q    Type
REMARK                         _______ _______ _______ _____ _____    ______ ____
ROOT
ATOM      1  C   UNL     1      -7.891  -0.977 127.330  0.00  0.00    +0.000 C 
ENDROOT
BRANCH   1   2
ATOM      2  C   UNL     1      -7.986  -1.933 126.143  0.00  0.00    +0.000 A 
ATOM      3  C   UNL     1      -6.856  -2.231 125.368  0.00  0.00    +0.000 A 
ATOM      4  C   UNL     1      -7.006  -2.908 124.158  0.00  0.00    +0.000 A 
ATOM      5  C   UNL     1      -8.271  -3.318 123.732  0.00  0.00    +0.000 A 
ATOM      6  C   UNL     1      -9.392  -3.071 124.518  0.00  0.00    +0.000 A 
ATOM      7  C   UNL     1      -9.248  -2.407 125.729  0.00  0.00    +0.000 A 
ENDBRANCH   1   2
BRANCH   1   8
ATOM      8  C   UNL     1      -7.656  -1.696 128.667  0.00  0.00    +0.000 A 
ATOM      9  C   UNL     1      -7.217  -3.031 128.732  0.00  0.00    +0.000 A 
ATOM     10  C   UNL     1      -6.964  -3.650 129.945  0.00  0.00    +0.000 A 
ATOM     11  C   UNL     1      -7.099  -2.942 131.139  0.00  0.00    +0.000 A 
ATOM     12  C   UNL     1      -7.576  -1.627 131.097  0.00  0.00    +0.000 A 
ATOM     13  C   UNL     1      -7.880  -1.021 129.878  0.00  0.00    +0.000 A 
BRANCH  11  14
ATOM     14  C   UNL     1      -6.759  -3.602 132.392  0.00  0.00    +0.000 A 
ATOM     15  C   UNL     1      -5.688  -4.508 132.452  0.00  0.00    +0.000 A 
ATOM     16  C   UNL     1      -5.448  -5.243 133.609  0.00  0.00    +0.000 A 
ATOM     17  C   UNL     1      -6.243  -5.036 134.733  0.00  0.00    +0.000 A 
ATOM     18  C   UNL     1      -7.288  -4.113 134.698  0.00  0.00    +0.000 A 
ATOM     19  C   UNL     1      -7.550  -3.404 133.529  0.00  0.00    +0.000 A 
ENDBRANCH  11  14
ENDBRANCH   1   8
BRANCH   1  22
ATOM     20  C   UNL     1      -5.899   1.810 126.171  0.00  0.00    +0.000 A 
ATOM     21  C   UNL     1      -7.097   1.132 126.193  0.00  0.00    +0.000 A 
ATOM     22  N   UNL     1      -6.890   0.065 127.034  0.00  0.00    +0.000 N 
ATOM     23  C   UNL     1      -5.596   0.145 127.471  0.00  0.00    +0.000 A 
ATOM     24  N   UNL     1      -4.983   1.206 126.984  0.00  0.00    +0.000 NA
ENDBRANCH   1  22
TORSDOF 4
ENDMDL
MODEL 9
REMARK VINA RESULT:      -7.2      7.120      9.446
REMARK  Name = Bifonazole
REMARK  4 active torsions:
REMARK  status: ('A' for Active; 'I' for Inactive)
REMARK    1  A    between atoms: N_3  and  C_6
REMARK    2  A    between atoms: C_6  and  C_7
REMARK    3  A    between atoms: C_6  and  C_13
REMARK    4  A    between atoms: C_16  and  C_19
REMARK                            x       y       z     vdW  Elec       q    Type
REMARK                         _______ _______ _______ _____ _____    ______ ____
ROOT
ATOM      1  C   UNL     1      -5.659   4.869 131.455  0.00  0.00    +0.000 C 
ENDROOT
BRANCH   1   2
ATOM      2  C   UNL     1      -4.604   5.971 131.534  0.00  0.00    +0.000 A 
ATOM      3  C   UNL     1      -3.899   6.206 132.722  0.00  0.00    +0.000 A 
ATOM      4  C   UNL     1      -3.121   7.356 132.848  0.00  0.00    +0.000 A 
ATOM      5  C   UNL     1      -3.016   8.256 131.787  0.00  0.00    +0.000 A 
ATOM      6  C   UNL     1      -3.674   8.007 130.587  0.00  0.00    +0.000 A 
ATOM      7  C   UNL     1      -4.441   6.858 130.450  0.00  0.00    +0.000 A 
ENDBRANCH   1   2
BRANCH   1   8
ATOM      8  C   UNL     1      -7.017   5.370 130.942  0.00  0.00    +0.000 A 
ATOM      9  C   UNL     1      -7.507   6.653 131.248  0.00  0.00    +0.000 A 
ATOM     10  C   UNL     1      -8.711   7.107 130.737  0.00  0.00    +0.000 A 
ATOM     11  C   UNL     1      -9.453   6.309 129.865  0.00  0.00    +0.000 A 
ATOM     12  C   UNL     1      -9.004   5.015 129.583  0.00  0.00    +0.000 A 
ATOM     13  C   UNL     1      -7.816   4.539 130.139  0.00  0.00    +0.000 A 
BRANCH  11  14
ATOM     14  C   UNL     1     -10.681   6.844 129.294  0.00  0.00    +0.000 A 
ATOM     15  C   UNL     1     -10.687   8.102 128.669  0.00  0.00    +0.000 A 
ATOM     16  C   UNL     1     -11.883   8.675 128.247  0.00  0.00    +0.000 A 
ATOM     17  C   UNL     1     -13.075   7.969 128.394  0.00  0.00    +0.000 A 
ATOM     18  C   UNL     1     -13.077   6.704 128.980  0.00  0.00    +0.000 A 
ATOM     19  C   UNL     1     -11.886   6.146 129.435  0.00  0.00    +0.000 A 
ENDBRANCH  11  14
ENDBRANCH   1   8
BRANCH   1  22
ATOM     20  C   UNL     1      -4.389   1.744 130.150  0.00  0.00    +0.000 A 
ATOM     21  C   UNL     1      -4.971   2.456 131.174  0.00  0.00    +0.000 A 
ATOM     22  N   UNL     1      -5.117   3.732 130.686  0.00  0.00    +0.000 N 
ATOM     23  C   UNL     1      -4.622   3.732 129.411  0.00  0.00    +0.000 A 
ATOM     24  N   UNL     1      -4.198   2.535 129.054  0.00  0.00    +0.000 NA
ENDBRANCH   1  22
TORSDOF 4
ENDMDL
