MODEL 1
REMARK VINA RESULT:      -4.6      0.000      0.000
REMARK  Name = Biguanide
REMARK  0 active torsions:
REMARK  status: ('A' for Active; 'I' for Inactive)
REMARK                            x       y       z     vdW  Elec       q    Type
REMARK                         _______ _______ _______ _____ _____    ______ ____
ROOT
ATOM      1  N   UNL     1     -12.600   8.343 130.332  0.00  0.00    +0.000 N 
ATOM      2  C   UNL     1     -13.002   9.467 129.707  0.00  0.00    +0.000 C 
ATOM      3  N   UNL     1     -13.149   9.473 128.422  0.00  0.00    +0.000 NA
ATOM      4  N   UNL     1     -13.237  10.565 130.492  0.00  0.00    +0.000 N 
ATOM      5  C   UNL     1     -13.646  11.829 130.154  0.00  0.00    +0.000 C 
ATOM      6  N   UNL     1     -13.852  12.025 128.844  0.00  0.00    +0.000 N 
ATOM      7  N   UNL     1     -13.847  12.820 130.959  0.00  0.00    +0.000 NA
ATOM      8  H   UNL     1     -12.416   7.510 129.789  0.00  0.00    +0.000 HD
ATOM      9  H   UNL     1     -12.463   8.260 131.328  0.00  0.00    +0.000 HD
ATOM     10  H   UNL     1     -12.922   8.557 128.037  0.00  0.00    +0.000 HD
ATOM     11  H   UNL     1     -13.086  10.434 131.477  0.00  0.00    +0.000 HD
ATOM     12  H   UNL     1     -13.691  11.236 128.215  0.00  0.00    +0.000 HD
ATOM     13  H   UNL     1     -14.154  12.916 128.489  0.00  0.00    +0.000 HD
ATOM     14  H   UNL     1     -13.663  12.566 131.925  0.00  0.00    +0.000 HD
ENDROOT
TORSDOF 0
ENDMDL
MODEL 2
REMARK VINA RESULT:      -4.6      0.139      3.180
REMARK  Name = Biguanide
REMARK  0 active torsions:
REMARK  status: ('A' for Active; 'I' for Inactive)
REMARK                            x       y       z     vdW  Elec       q    Type
REMARK                         _______ _______ _______ _____ _____    ______ ____
ROOT
ATOM      1  N   UNL     1     -13.853  12.776 130.962  0.00  0.00    +0.000 N 
ATOM      2  C   UNL     1     -13.599  11.816 130.051  0.00  0.00    +0.000 C 
ATOM      3  N   UNL     1     -13.671  12.089 128.789  0.00  0.00    +0.000 NA
ATOM      4  N   UNL     1     -13.271  10.574 130.529  0.00  0.00    +0.000 N 
ATOM      5  C   UNL     1     -12.966   9.416 129.863  0.00  0.00    +0.000 C 
ATOM      6  N   UNL     1     -12.990   9.510 128.526  0.00  0.00    +0.000 N 
ATOM      7  N   UNL     1     -12.663   8.276 130.390  0.00  0.00    +0.000 NA
ATOM      8  H   UNL     1     -14.099  13.706 130.650  0.00  0.00    +0.000 HD
ATOM      9  H   UNL     1     -13.817  12.639 131.961  0.00  0.00    +0.000 HD
ATOM     10  H   UNL     1     -13.930  13.066 128.654  0.00  0.00    +0.000 HD
ATOM     11  H   UNL     1     -13.248  10.488 131.531  0.00  0.00    +0.000 HD
ATOM     12  H   UNL     1     -13.230  10.416 128.118  0.00  0.00    +0.000 HD
ATOM     13  H   UNL     1     -12.781   8.719 127.942  0.00  0.00    +0.000 HD
ATOM     14  H   UNL     1     -12.673   8.313 131.405  0.00  0.00    +0.000 HD
ENDROOT
TORSDOF 0
ENDMDL
MODEL 3
REMARK VINA RESULT:      -4.1      2.056      4.162
REMARK  Name = Biguanide
REMARK  0 active torsions:
REMARK  status: ('A' for Active; 'I' for Inactive)
REMARK                            x       y       z     vdW  Elec       q    Type
REMARK                         _______ _______ _______ _____ _____    ______ ____
ROOT
ATOM      1  N   UNL     1     -13.191  10.165 128.992  0.00  0.00    +0.000 N 
ATOM      2  C   UNL     1     -12.441   9.051 129.111  0.00  0.00    +0.000 C 
ATOM      3  N   UNL     1     -11.569   8.760 128.202  0.00  0.00    +0.000 NA
ATOM      4  N   UNL     1     -12.654   8.272 130.218  0.00  0.00    +0.000 N 
ATOM      5  C   UNL     1     -12.061   7.101 130.610  0.00  0.00    +0.000 C 
ATOM      6  N   UNL     1     -11.116   6.641 129.778  0.00  0.00    +0.000 N 
ATOM      7  N   UNL     1     -12.318   6.421 131.678  0.00  0.00    +0.000 NA
ATOM      8  H   UNL     1     -13.064  10.767 128.189  0.00  0.00    +0.000 HD
ATOM      9  H   UNL     1     -13.889  10.457 129.659  0.00  0.00    +0.000 HD
ATOM     10  H   UNL     1     -11.574   9.469 127.469  0.00  0.00    +0.000 HD
ATOM     11  H   UNL     1     -13.360   8.605 130.852  0.00  0.00    +0.000 HD
ATOM     12  H   UNL     1     -10.918   7.185 128.936  0.00  0.00    +0.000 HD
ATOM     13  H   UNL     1     -10.618   5.789 129.971  0.00  0.00    +0.000 HD
ATOM     14  H   UNL     1     -13.046   6.855 132.237  0.00  0.00    +0.000 HD
ENDROOT
TORSDOF 0
ENDMDL
MODEL 4
REMARK VINA RESULT:      -4.1      2.791      3.934
REMARK  Name = Biguanide
REMARK  0 active torsions:
REMARK  status: ('A' for Active; 'I' for Inactive)
REMARK                            x       y       z     vdW  Elec       q    Type
REMARK                         _______ _______ _______ _____ _____    ______ ____
ROOT
ATOM      1  N   UNL     1     -11.506   5.743 131.719  0.00  0.00    +0.000 N 
ATOM      2  C   UNL     1     -12.044   6.815 131.103  0.00  0.00    +0.000 C 
ATOM      3  N   UNL     1     -13.140   7.334 131.551  0.00  0.00    +0.000 NA
ATOM      4  N   UNL     1     -11.379   7.303 130.009  0.00  0.00    +0.000 N 
ATOM      5  C   UNL     1     -11.672   8.359 129.187  0.00  0.00    +0.000 C 
ATOM      6  N   UNL     1     -12.790   9.027 129.503  0.00  0.00    +0.000 N 
ATOM      7  N   UNL     1     -10.989   8.761 128.166  0.00  0.00    +0.000 NA
ATOM      8  H   UNL     1     -11.966   5.353 132.531  0.00  0.00    +0.000 HD
ATOM      9  H   UNL     1     -10.655   5.285 131.429  0.00  0.00    +0.000 HD
ATOM     10  H   UNL     1     -13.465   6.819 132.369  0.00  0.00    +0.000 HD
ATOM     11  H   UNL     1     -10.537   6.812 129.759  0.00  0.00    +0.000 HD
ATOM     12  H   UNL     1     -13.325   8.703 130.313  0.00  0.00    +0.000 HD
ATOM     13  H   UNL     1     -13.097   9.819 128.966  0.00  0.00    +0.000 HD
ATOM     14  H   UNL     1     -10.164   8.189 128.014  0.00  0.00    +0.000 HD
ENDROOT
TORSDOF 0
ENDMDL
MODEL 5
REMARK VINA RESULT:      -4.0      2.206      3.415
REMARK  Name = Biguanide
REMARK  0 active torsions:
REMARK  status: ('A' for Active; 'I' for Inactive)
REMARK                            x       y       z     vdW  Elec       q    Type
REMARK                         _______ _______ _______ _____ _____    ______ ____
ROOT
ATOM      1  N   UNL     1     -11.908   6.206 131.613  0.00  0.00    +0.000 N 
ATOM      2  C   UNL     1     -12.123   6.647 130.357  0.00  0.00    +0.000 C 
ATOM      3  N   UNL     1     -12.041   5.825 129.362  0.00  0.00    +0.000 NA
ATOM      4  N   UNL     1     -12.425   7.975 130.207  0.00  0.00    +0.000 N 
ATOM      5  C   UNL     1     -12.688   8.705 129.079  0.00  0.00    +0.000 C 
ATOM      6  N   UNL     1     -12.647   8.010 127.933  0.00  0.00    +0.000 N 
ATOM      7  N   UNL     1     -12.967   9.966 129.018  0.00  0.00    +0.000 NA
ATOM      8  H   UNL     1     -11.684   5.231 131.766  0.00  0.00    +0.000 HD
ATOM      9  H   UNL     1     -11.956   6.784 132.437  0.00  0.00    +0.000 HD
ATOM     10  H   UNL     1     -11.807   4.891 129.695  0.00  0.00    +0.000 HD
ATOM     11  H   UNL     1     -12.459   8.510 131.058  0.00  0.00    +0.000 HD
ATOM     12  H   UNL     1     -12.427   7.014 127.990  0.00  0.00    +0.000 HD
ATOM     13  H   UNL     1     -12.826   8.450 127.047  0.00  0.00    +0.000 HD
ATOM     14  H   UNL     1     -12.972  10.397 129.938  0.00  0.00    +0.000 HD
ENDROOT
TORSDOF 0
ENDMDL
MODEL 6
REMARK VINA RESULT:      -3.9      4.161      5.254
REMARK  Name = Biguanide
REMARK  0 active torsions:
REMARK  status: ('A' for Active; 'I' for Inactive)
REMARK                            x       y       z     vdW  Elec       q    Type
REMARK                         _______ _______ _______ _____ _____    ______ ____
ROOT
ATOM      1  N   UNL     1     -10.651   8.730 128.104  0.00  0.00    +0.000 N 
ATOM      2  C   UNL     1     -10.626   7.514 128.686  0.00  0.00    +0.000 C 
ATOM      3  N   UNL     1     -10.002   6.537 128.113  0.00  0.00    +0.000 NA
ATOM      4  N   UNL     1     -11.281   7.384 129.882  0.00  0.00    +0.000 N 
ATOM      5  C   UNL     1     -11.432   6.294 130.699  0.00  0.00    +0.000 C 
ATOM      6  N   UNL     1     -10.843   5.173 130.261  0.00  0.00    +0.000 N 
ATOM      7  N   UNL     1     -12.070   6.249 131.822  0.00  0.00    +0.000 NA
ATOM      8  H   UNL     1     -10.179   8.869 127.221  0.00  0.00    +0.000 HD
ATOM      9  H   UNL     1     -11.114   9.539 128.490  0.00  0.00    +0.000 HD
ATOM     10  H   UNL     1      -9.587   6.851 127.236  0.00  0.00    +0.000 HD
ATOM     11  H   UNL     1     -11.728   8.217 130.225  0.00  0.00    +0.000 HD
ATOM     12  H   UNL     1     -10.340   5.217 129.371  0.00  0.00    +0.000 HD
ATOM     13  H   UNL     1     -10.893   4.316 130.784  0.00  0.00    +0.000 HD
ATOM     14  H   UNL     1     -12.477   7.148 132.063  0.00  0.00    +0.000 HD
ENDROOT
TORSDOF 0
ENDMDL
MODEL 7
REMARK VINA RESULT:      -3.8      2.142      3.436
REMARK  Name = Biguanide
REMARK  0 active torsions:
REMARK  status: ('A' for Active; 'I' for Inactive)
REMARK                            x       y       z     vdW  Elec       q    Type
REMARK                         _______ _______ _______ _____ _____    ______ ____
ROOT
ATOM      1  N   UNL     1     -11.913   7.064 126.303  0.00  0.00    +0.000 N 
ATOM      2  C   UNL     1     -12.114   7.371 127.600  0.00  0.00    +0.000 C 
ATOM      3  N   UNL     1     -11.937   6.471 128.511  0.00  0.00    +0.000 NA
ATOM      4  N   UNL     1     -12.503   8.654 127.883  0.00  0.00    +0.000 N 
ATOM      5  C   UNL     1     -12.781   9.256 129.082  0.00  0.00    +0.000 C 
ATOM      6  N   UNL     1     -12.649   8.464 130.155  0.00  0.00    +0.000 N 
ATOM      7  N   UNL     1     -13.145  10.481 129.269  0.00  0.00    +0.000 NA
ATOM      8  H   UNL     1     -11.625   6.128 126.052  0.00  0.00    +0.000 HD
ATOM      9  H   UNL     1     -12.030   7.712 125.538  0.00  0.00    +0.000 HD
ATOM     10  H   UNL     1     -11.650   5.590 128.085  0.00  0.00    +0.000 HD
ATOM     11  H   UNL     1     -12.607   9.261 127.087  0.00  0.00    +0.000 HD
ATOM     12  H   UNL     1     -12.360   7.495 129.999  0.00  0.00    +0.000 HD
ATOM     13  H   UNL     1     -12.828   8.805 131.084  0.00  0.00    +0.000 HD
ATOM     14  H   UNL     1     -13.214  10.993 128.395  0.00  0.00    +0.000 HD
ENDROOT
TORSDOF 0
ENDMDL
MODEL 8
REMARK VINA RESULT:      -3.7      4.320      5.635
REMARK  Name = Biguanide
REMARK  0 active torsions:
REMARK  status: ('A' for Active; 'I' for Inactive)
REMARK                            x       y       z     vdW  Elec       q    Type
REMARK                         _______ _______ _______ _____ _____    ______ ____
ROOT
ATOM      1  N   UNL     1      -9.735   4.765 133.423  0.00  0.00    +0.000 N 
ATOM      2  C   UNL     1     -10.047   5.562 132.381  0.00  0.00    +0.000 C 
ATOM      3  N   UNL     1      -9.142   5.872 131.512  0.00  0.00    +0.000 NA
ATOM      4  N   UNL     1     -11.341   6.007 132.305  0.00  0.00    +0.000 N 
ATOM      5  C   UNL     1     -11.950   6.816 131.382  0.00  0.00    +0.000 C 
ATOM      6  N   UNL     1     -11.155   7.241 130.391  0.00  0.00    +0.000 N 
ATOM      7  N   UNL     1     -13.186   7.194 131.378  0.00  0.00    +0.000 NA
ATOM      8  H   UNL     1      -8.791   4.415 133.515  0.00  0.00    +0.000 HD
ATOM      9  H   UNL     1     -10.385   4.479 134.139  0.00  0.00    +0.000 HD
ATOM     10  H   UNL     1      -8.254   5.437 131.758  0.00  0.00    +0.000 HD
ATOM     11  H   UNL     1     -11.950   5.696 133.042  0.00  0.00    +0.000 HD
ATOM     12  H   UNL     1     -10.179   6.937 130.401  0.00  0.00    +0.000 HD
ATOM     13  H   UNL     1     -11.502   7.840 129.661  0.00  0.00    +0.000 HD
ATOM     14  H   UNL     1     -13.700   6.817 132.169  0.00  0.00    +0.000 HD
ENDROOT
TORSDOF 0
ENDMDL
MODEL 9
REMARK VINA RESULT:      -3.7      4.120      5.341
REMARK  Name = Biguanide
REMARK  0 active torsions:
REMARK  status: ('A' for Active; 'I' for Inactive)
REMARK                            x       y       z     vdW  Elec       q    Type
REMARK                         _______ _______ _______ _____ _____    ______ ____
ROOT
ATOM      1  N   UNL     1     -10.070   3.926 131.646  0.00  0.00    +0.000 N 
ATOM      2  C   UNL     1     -10.633   4.889 130.888  0.00  0.00    +0.000 C 
ATOM      3  N   UNL     1     -10.291   5.017 129.648  0.00  0.00    +0.000 NA
ATOM      4  N   UNL     1     -11.560   5.695 131.495  0.00  0.00    +0.000 N 
ATOM      5  C   UNL     1     -12.291   6.741 130.997  0.00  0.00    +0.000 C 
ATOM      6  N   UNL     1     -12.066   7.024 129.706  0.00  0.00    +0.000 N 
ATOM      7  N   UNL     1     -13.154   7.459 131.638  0.00  0.00    +0.000 NA
ATOM      8  H   UNL     1      -9.381   3.310 131.235  0.00  0.00    +0.000 HD
ATOM      9  H   UNL     1     -10.285   3.765 132.618  0.00  0.00    +0.000 HD
ATOM     10  H   UNL     1      -9.590   4.318 129.402  0.00  0.00    +0.000 HD
ATOM     11  H   UNL     1     -11.740   5.495 132.464  0.00  0.00    +0.000 HD
ATOM     12  H   UNL     1     -11.382   6.451 129.207  0.00  0.00    +0.000 HD
ATOM     13  H   UNL     1     -12.550   7.773 129.242  0.00  0.00    +0.000 HD
ATOM     14  H   UNL     1     -13.249   7.163 132.605  0.00  0.00    +0.000 HD
ENDROOT
TORSDOF 0
ENDMDL
