MODEL 1
REMARK VINA RESULT:      -7.8      0.000      0.000
REMARK  Name = Bilastine
REMARK  14 active torsions:
REMARK  status: ('A' for Active; 'I' for Inactive)
REMARK    1  A    between atoms: C_1  and  C_2
REMARK    2  A    between atoms: C_2  and  O_3
REMARK    3  A    between atoms: O_3  and  C_4
REMARK    4  A    between atoms: C_4  and  C_5
REMARK    5  A    between atoms: C_5  and  N_6
REMARK    6  A    between atoms: C_7  and  C_15
REMARK    7  A    between atoms: N_18  and  C_19
REMARK    8  A    between atoms: C_19  and  C_20
REMARK    9  A    between atoms: C_20  and  C_21
REMARK   10  A    between atoms: C_24  and  C_27
REMARK   11  A    between atoms: C_27  and  C_28
REMARK   12  A    between atoms: C_27  and  C_29
REMARK   13  A    between atoms: C_27  and  C_30
REMARK   14  A    between atoms: C_30  and  O_31
REMARK                            x       y       z     vdW  Elec       q    Type
REMARK                         _______ _______ _______ _____ _____    ______ ____
ROOT
ATOM      1  C   UNL     1      -6.712  -0.990 122.871  0.00  0.00    +0.000 C 
ATOM      2  C   UNL     1      -8.188  -1.316 122.572  0.00  0.00    +0.000 C 
ATOM      3  C   UNL     1      -8.784  -2.137 123.708  0.00  0.00    +0.000 C 
ATOM      4  N   UNL     1      -7.971  -3.336 124.065  0.00  0.00    +0.000 NA
ATOM      5  C   UNL     1      -6.497  -3.152 124.119  0.00  0.00    +0.000 C 
ATOM      6  C   UNL     1      -5.939  -2.304 123.009  0.00  0.00    +0.000 C 
ENDROOT
BRANCH   1   8
ATOM      7  N   UNL     1      -6.835   1.497 123.839  0.00  0.00    +0.000 N 
ATOM      8  C   UNL     1      -6.688   0.115 123.969  0.00  0.00    +0.000 A 
ATOM      9  N   UNL     1      -6.103  -0.112 125.145  0.00  0.00    +0.000 NA
ATOM     10  C   UNL     1      -5.716   1.114 125.652  0.00  0.00    +0.000 A 
ATOM     11  C   UNL     1      -5.045   1.483 126.824  0.00  0.00    +0.000 A 
ATOM     12  C   UNL     1      -4.827   2.856 127.071  0.00  0.00    +0.000 A 
ATOM     13  C   UNL     1      -5.180   3.836 126.145  0.00  0.00    +0.000 A 
ATOM     14  C   UNL     1      -5.786   3.479 124.958  0.00  0.00    +0.000 A 
ATOM     15  C   UNL     1      -6.087   2.123 124.795  0.00  0.00    +0.000 A 
BRANCH   7  16
ATOM     16  C   UNL     1      -7.431   2.345 122.854  0.00  0.00    +0.000 C 
BRANCH  16  17
ATOM     17  C   UNL     1      -8.924   2.351 122.778  0.00  0.00    +0.000 C 
BRANCH  17  18
ATOM     18  O   UNL     1      -9.423   2.450 124.119  0.00  0.00    +0.000 OA
BRANCH  18  20
ATOM     19  C   UNL     1      -9.776   0.703 125.737  0.00  0.00    +0.000 C 
ATOM     20  C   UNL     1     -10.209   1.313 124.437  0.00  0.00    +0.000 C 
ENDBRANCH  18  20
ENDBRANCH  17  18
ENDBRANCH  16  17
ENDBRANCH   7  16
ENDBRANCH   1   8
BRANCH   4  21
ATOM     21  C   UNL     1      -8.504  -3.971 125.296  0.00  0.00    +0.000 C 
BRANCH  21  22
ATOM     22  C   UNL     1      -9.025  -2.996 126.339  0.00  0.00    +0.000 C 
BRANCH  22  23
ATOM     23  C   UNL     1      -8.109  -2.842 127.531  0.00  0.00    +0.000 A 
ATOM     24  C   UNL     1      -6.856  -2.212 127.494  0.00  0.00    +0.000 A 
ATOM     25  C   UNL     1      -5.905  -2.465 128.489  0.00  0.00    +0.000 A 
ATOM     26  C   UNL     1      -6.233  -3.216 129.632  0.00  0.00    +0.000 A 
ATOM     27  C   UNL     1      -7.580  -3.571 129.755  0.00  0.00    +0.000 A 
ATOM     28  C   UNL     1      -8.450  -3.546 128.676  0.00  0.00    +0.000 A 
BRANCH  26  29
ATOM     29  C   UNL     1      -5.146  -3.552 130.671  0.00  0.00    +0.000 C 
ATOM     30  C   UNL     1      -5.399  -4.936 131.343  0.00  0.00    +0.000 C 
ATOM     31  C   UNL     1      -3.826  -3.668 129.877  0.00  0.00    +0.000 C 
BRANCH  29  32
ATOM     32  C   UNL     1      -4.870  -2.573 131.852  0.00  0.00    +0.000 C 
ATOM     33  O   UNL     1      -5.763  -2.018 132.445  0.00  0.00    +0.000 OA
BRANCH  32  34
ATOM     34  O   UNL     1      -3.596  -2.271 132.204  0.00  0.00    +0.000 OA
ATOM     35  H   UNL     1      -3.462  -1.582 132.870  0.00  0.00    +0.000 HD
ENDBRANCH  32  34
ENDBRANCH  29  32
ENDBRANCH  26  29
ENDBRANCH  22  23
ENDBRANCH  21  22
ENDBRANCH   4  21
TORSDOF 11
ENDMDL
MODEL 2
REMARK VINA RESULT:      -7.8      2.259      3.644
REMARK  Name = Bilastine
REMARK  14 active torsions:
REMARK  status: ('A' for Active; 'I' for Inactive)
REMARK    1  A    between atoms: C_1  and  C_2
REMARK    2  A    between atoms: C_2  and  O_3
REMARK    3  A    between atoms: O_3  and  C_4
REMARK    4  A    between atoms: C_4  and  C_5
REMARK    5  A    between atoms: C_5  and  N_6
REMARK    6  A    between atoms: C_7  and  C_15
REMARK    7  A    between atoms: N_18  and  C_19
REMARK    8  A    between atoms: C_19  and  C_20
REMARK    9  A    between atoms: C_20  and  C_21
REMARK   10  A    between atoms: C_24  and  C_27
REMARK   11  A    between atoms: C_27  and  C_28
REMARK   12  A    between atoms: C_27  and  C_29
REMARK   13  A    between atoms: C_27  and  C_30
REMARK   14  A    between atoms: C_30  and  O_31
REMARK                            x       y       z     vdW  Elec       q    Type
REMARK                         _______ _______ _______ _____ _____    ______ ____
ROOT
ATOM      1  C   UNL     1      -8.013   2.114 124.678  0.00  0.00    +0.000 C 
ATOM      2  C   UNL     1      -9.444   1.544 124.630  0.00  0.00    +0.000 C 
ATOM      3  C   UNL     1      -9.426   0.057 124.955  0.00  0.00    +0.000 C 
ATOM      4  N   UNL     1      -8.449  -0.720 124.137  0.00  0.00    +0.000 NA
ATOM      5  C   UNL     1      -7.116  -0.100 123.923  0.00  0.00    +0.000 C 
ATOM      6  C   UNL     1      -7.157   1.378 123.644  0.00  0.00    +0.000 C 
ENDROOT
BRANCH   1   8
ATOM      7  N   UNL     1      -6.340   2.128 126.762  0.00  0.00    +0.000 N 
ATOM      8  C   UNL     1      -7.603   2.227 126.178  0.00  0.00    +0.000 A 
ATOM      9  N   UNL     1      -8.502   2.024 127.141  0.00  0.00    +0.000 NA
ATOM     10  C   UNL     1      -7.810   1.613 128.265  0.00  0.00    +0.000 A 
ATOM     11  C   UNL     1      -8.227   1.239 129.547  0.00  0.00    +0.000 A 
ATOM     12  C   UNL     1      -7.244   0.897 130.502  0.00  0.00    +0.000 A 
ATOM     13  C   UNL     1      -5.891   0.837 130.176  0.00  0.00    +0.000 A 
ATOM     14  C   UNL     1      -5.474   1.143 128.897  0.00  0.00    +0.000 A 
ATOM     15  C   UNL     1      -6.459   1.584 128.009  0.00  0.00    +0.000 A 
BRANCH   7  16
ATOM     16  C   UNL     1      -5.005   2.302 126.279  0.00  0.00    +0.000 C 
BRANCH  16  17
ATOM     17  C   UNL     1      -4.617   3.677 125.840  0.00  0.00    +0.000 C 
BRANCH  17  18
ATOM     18  O   UNL     1      -3.606   4.149 126.743  0.00  0.00    +0.000 OA
BRANCH  18  20
ATOM     19  C   UNL     1      -1.492   3.025 126.500  0.00  0.00    +0.000 C 
ATOM     20  C   UNL     1      -2.816   3.066 127.205  0.00  0.00    +0.000 C 
ENDBRANCH  18  20
ENDBRANCH  17  18
ENDBRANCH  16  17
ENDBRANCH   7  16
ENDBRANCH   1   8
BRANCH   4  21
ATOM     21  C   UNL     1      -8.349  -2.113 124.640  0.00  0.00    +0.000 C 
BRANCH  21  22
ATOM     22  C   UNL     1      -8.934  -2.331 126.025  0.00  0.00    +0.000 C 
BRANCH  22  23
ATOM     23  C   UNL     1      -7.900  -2.300 127.127  0.00  0.00    +0.000 A 
ATOM     24  C   UNL     1      -6.557  -1.937 126.948  0.00  0.00    +0.000 A 
ATOM     25  C   UNL     1      -5.587  -2.322 127.880  0.00  0.00    +0.000 A 
ATOM     26  C   UNL     1      -5.949  -2.931 129.095  0.00  0.00    +0.000 A 
ATOM     27  C   UNL     1      -7.323  -3.002 129.349  0.00  0.00    +0.000 A 
ATOM     28  C   UNL     1      -8.266  -2.861 128.343  0.00  0.00    +0.000 A 
BRANCH  26  29
ATOM     29  C   UNL     1      -4.860  -3.422 130.067  0.00  0.00    +0.000 C 
ATOM     30  C   UNL     1      -5.261  -4.763 130.754  0.00  0.00    +0.000 C 
ATOM     31  C   UNL     1      -3.618  -3.714 129.194  0.00  0.00    +0.000 C 
BRANCH  29  32
ATOM     32  C   UNL     1      -4.378  -2.500 131.228  0.00  0.00    +0.000 C 
ATOM     33  O   UNL     1      -5.154  -1.971 131.987  0.00  0.00    +0.000 OA
BRANCH  32  34
ATOM     34  O   UNL     1      -3.061  -2.218 131.374  0.00  0.00    +0.000 OA
ATOM     35  H   UNL     1      -2.500  -2.883 131.797  0.00  0.00    +0.000 HD
ENDBRANCH  32  34
ENDBRANCH  29  32
ENDBRANCH  26  29
ENDBRANCH  22  23
ENDBRANCH  21  22
ENDBRANCH   4  21
TORSDOF 11
ENDMDL
MODEL 3
REMARK VINA RESULT:      -7.7      1.366      2.174
REMARK  Name = Bilastine
REMARK  14 active torsions:
REMARK  status: ('A' for Active; 'I' for Inactive)
REMARK    1  A    between atoms: C_1  and  C_2
REMARK    2  A    between atoms: C_2  and  O_3
REMARK    3  A    between atoms: O_3  and  C_4
REMARK    4  A    between atoms: C_4  and  C_5
REMARK    5  A    between atoms: C_5  and  N_6
REMARK    6  A    between atoms: C_7  and  C_15
REMARK    7  A    between atoms: N_18  and  C_19
REMARK    8  A    between atoms: C_19  and  C_20
REMARK    9  A    between atoms: C_20  and  C_21
REMARK   10  A    between atoms: C_24  and  C_27
REMARK   11  A    between atoms: C_27  and  C_28
REMARK   12  A    between atoms: C_27  and  C_29
REMARK   13  A    between atoms: C_27  and  C_30
REMARK   14  A    between atoms: C_30  and  O_31
REMARK                            x       y       z     vdW  Elec       q    Type
REMARK                         _______ _______ _______ _____ _____    ______ ____
ROOT
ATOM      1  C   UNL     1      -6.987  -0.622 122.956  0.00  0.00    +0.000 C 
ATOM      2  C   UNL     1      -8.479  -0.984 122.822  0.00  0.00    +0.000 C 
ATOM      3  C   UNL     1      -8.890  -1.933 123.940  0.00  0.00    +0.000 C 
ATOM      4  N   UNL     1      -7.999  -3.123 124.068  0.00  0.00    +0.000 NA
ATOM      5  C   UNL     1      -6.538  -2.879 123.945  0.00  0.00    +0.000 C 
ATOM      6  C   UNL     1      -6.161  -1.907 122.861  0.00  0.00    +0.000 C 
ENDROOT
BRANCH   1   8
ATOM      7  N   UNL     1      -6.836   1.772 124.134  0.00  0.00    +0.000 N 
ATOM      8  C   UNL     1      -6.852   0.376 124.145  0.00  0.00    +0.000 A 
ATOM      9  N   UNL     1      -6.313  -0.017 125.300  0.00  0.00    +0.000 NA
ATOM     10  C   UNL     1      -5.794   1.108 125.911  0.00  0.00    +0.000 A 
ATOM     11  C   UNL     1      -5.103   1.296 127.114  0.00  0.00    +0.000 A 
ATOM     12  C   UNL     1      -4.731   2.609 127.478  0.00  0.00    +0.000 A 
ATOM     13  C   UNL     1      -4.954   3.698 126.639  0.00  0.00    +0.000 A 
ATOM     14  C   UNL     1      -5.580   3.516 125.423  0.00  0.00    +0.000 A 
ATOM     15  C   UNL     1      -6.034   2.223 125.143  0.00  0.00    +0.000 A 
BRANCH   7  16
ATOM     16  C   UNL     1      -7.316   2.764 123.222  0.00  0.00    +0.000 C 
BRANCH  16  17
ATOM     17  C   UNL     1      -6.544   2.952 121.956  0.00  0.00    +0.000 C 
BRANCH  17  18
ATOM     18  O   UNL     1      -7.340   3.764 121.082  0.00  0.00    +0.000 OA
BRANCH  18  20
ATOM     19  C   UNL     1      -7.411   4.500 118.791  0.00  0.00    +0.000 C 
ATOM     20  C   UNL     1      -6.558   4.233 119.997  0.00  0.00    +0.000 C 
ENDBRANCH  18  20
ENDBRANCH  17  18
ENDBRANCH  16  17
ENDBRANCH   7  16
ENDBRANCH   1   8
BRANCH   4  21
ATOM     21  C   UNL     1      -8.341  -3.893 125.289  0.00  0.00    +0.000 C 
BRANCH  21  22
ATOM     22  C   UNL     1      -9.033  -3.087 126.375  0.00  0.00    +0.000 C 
BRANCH  22  23
ATOM     23  C   UNL     1      -8.185  -2.886 127.610  0.00  0.00    +0.000 A 
ATOM     24  C   UNL     1      -6.864  -2.415 127.599  0.00  0.00    +0.000 A 
ATOM     25  C   UNL     1      -6.020  -2.644 128.691  0.00  0.00    +0.000 A 
ATOM     26  C   UNL     1      -6.513  -3.198 129.886  0.00  0.00    +0.000 A 
ATOM     27  C   UNL     1      -7.899  -3.377 129.941  0.00  0.00    +0.000 A 
ATOM     28  C   UNL     1      -8.686  -3.393 128.801  0.00  0.00    +0.000 A 
BRANCH  26  29
ATOM     29  C   UNL     1      -5.548  -3.520 131.043  0.00  0.00    +0.000 C 
ATOM     30  C   UNL     1      -6.157  -3.137 132.426  0.00  0.00    +0.000 C 
ATOM     31  C   UNL     1      -5.375  -5.055 131.032  0.00  0.00    +0.000 C 
BRANCH  29  32
ATOM     32  C   UNL     1      -4.112  -2.912 131.051  0.00  0.00    +0.000 C 
ATOM     33  O   UNL     1      -3.130  -3.591 130.873  0.00  0.00    +0.000 OA
BRANCH  32  34
ATOM     34  O   UNL     1      -3.929  -1.597 131.323  0.00  0.00    +0.000 OA
ATOM     35  H   UNL     1      -4.535  -0.962 130.915  0.00  0.00    +0.000 HD
ENDBRANCH  32  34
ENDBRANCH  29  32
ENDBRANCH  26  29
ENDBRANCH  22  23
ENDBRANCH  21  22
ENDBRANCH   4  21
TORSDOF 11
ENDMDL
MODEL 4
REMARK VINA RESULT:      -7.6      6.141      9.729
REMARK  Name = Bilastine
REMARK  14 active torsions:
REMARK  status: ('A' for Active; 'I' for Inactive)
REMARK    1  A    between atoms: C_1  and  C_2
REMARK    2  A    between atoms: C_2  and  O_3
REMARK    3  A    between atoms: O_3  and  C_4
REMARK    4  A    between atoms: C_4  and  C_5
REMARK    5  A    between atoms: C_5  and  N_6
REMARK    6  A    between atoms: C_7  and  C_15
REMARK    7  A    between atoms: N_18  and  C_19
REMARK    8  A    between atoms: C_19  and  C_20
REMARK    9  A    between atoms: C_20  and  C_21
REMARK   10  A    between atoms: C_24  and  C_27
REMARK   11  A    between atoms: C_27  and  C_28
REMARK   12  A    between atoms: C_27  and  C_29
REMARK   13  A    between atoms: C_27  and  C_30
REMARK   14  A    between atoms: C_30  and  O_31
REMARK                            x       y       z     vdW  Elec       q    Type
REMARK                         _______ _______ _______ _____ _____    ______ ____
ROOT
ATOM      1  C   UNL     1      -6.520   2.622 130.245  0.00  0.00    +0.000 C 
ATOM      2  C   UNL     1      -8.000   2.418 129.864  0.00  0.00    +0.000 C 
ATOM      3  C   UNL     1      -8.894   3.245 130.777  0.00  0.00    +0.000 C 
ATOM      4  N   UNL     1      -8.620   3.035 132.229  0.00  0.00    +0.000 NA
ATOM      5  C   UNL     1      -7.192   2.961 132.634  0.00  0.00    +0.000 C 
ATOM      6  C   UNL     1      -6.321   2.173 131.694  0.00  0.00    +0.000 C 
ENDROOT
BRANCH   1   8
ATOM      7  N   UNL     1      -5.378   4.387 128.595  0.00  0.00    +0.000 N 
ATOM      8  C   UNL     1      -6.096   4.034 129.738  0.00  0.00    +0.000 A 
ATOM      9  N   UNL     1      -6.025   5.062 130.584  0.00  0.00    +0.000 NA
ATOM     10  C   UNL     1      -5.118   5.961 130.057  0.00  0.00    +0.000 A 
ATOM     11  C   UNL     1      -4.632   7.191 130.515  0.00  0.00    +0.000 A 
ATOM     12  C   UNL     1      -3.715   7.897 129.705  0.00  0.00    +0.000 A 
ATOM     13  C   UNL     1      -3.220   7.363 128.518  0.00  0.00    +0.000 A 
ATOM     14  C   UNL     1      -3.645   6.124 128.087  0.00  0.00    +0.000 A 
ATOM     15  C   UNL     1      -4.635   5.503 128.854  0.00  0.00    +0.000 A 
BRANCH   7  16
ATOM     16  C   UNL     1      -5.138   3.751 127.337  0.00  0.00    +0.000 C 
BRANCH  16  17
ATOM     17  C   UNL     1      -4.821   2.291 127.364  0.00  0.00    +0.000 C 
BRANCH  17  18
ATOM     18  O   UNL     1      -3.775   2.058 126.410  0.00  0.00    +0.000 OA
BRANCH  18  20
ATOM     19  C   UNL     1      -1.570   2.993 126.647  0.00  0.00    +0.000 C 
ATOM     20  C   UNL     1      -2.995   3.230 126.241  0.00  0.00    +0.000 C 
ENDBRANCH  18  20
ENDBRANCH  17  18
ENDBRANCH  16  17
ENDBRANCH   7  16
ENDBRANCH   1   8
BRANCH   4  21
ATOM     21  C   UNL     1      -9.387   4.009 133.044  0.00  0.00    +0.000 C 
BRANCH  21  22
ATOM     22  C   UNL     1      -8.938   5.454 132.897  0.00  0.00    +0.000 C 
BRANCH  22  23
ATOM     23  C   UNL     1      -9.834   6.275 131.999  0.00  0.00    +0.000 A 
ATOM     24  C   UNL     1     -11.229   6.350 132.122  0.00  0.00    +0.000 A 
ATOM     25  C   UNL     1     -12.015   6.771 131.043  0.00  0.00    +0.000 A 
ATOM     26  C   UNL     1     -11.427   7.285 129.874  0.00  0.00    +0.000 A 
ATOM     27  C   UNL     1     -10.041   7.459 129.922  0.00  0.00    +0.000 A 
ATOM     28  C   UNL     1      -9.250   6.822 130.865  0.00  0.00    +0.000 A 
BRANCH  26  29
ATOM     29  C   UNL     1     -12.309   7.661 128.668  0.00  0.00    +0.000 C 
ATOM     30  C   UNL     1     -13.635   6.841 128.645  0.00  0.00    +0.000 C 
ATOM     31  C   UNL     1     -12.696   9.142 128.876  0.00  0.00    +0.000 C 
BRANCH  29  32
ATOM     32  C   UNL     1     -11.739   7.550 127.222  0.00  0.00    +0.000 C 
ATOM     33  O   UNL     1     -12.179   6.763 126.420  0.00  0.00    +0.000 OA
BRANCH  32  34
ATOM     34  O   UNL     1     -10.677   8.305 126.847  0.00  0.00    +0.000 OA
ATOM     35  H   UNL     1     -10.672   8.664 125.948  0.00  0.00    +0.000 HD
ENDBRANCH  32  34
ENDBRANCH  29  32
ENDBRANCH  26  29
ENDBRANCH  22  23
ENDBRANCH  21  22
ENDBRANCH   4  21
TORSDOF 11
ENDMDL
MODEL 5
REMARK VINA RESULT:      -7.4      1.992      3.862
REMARK  Name = Bilastine
REMARK  14 active torsions:
REMARK  status: ('A' for Active; 'I' for Inactive)
REMARK    1  A    between atoms: C_1  and  C_2
REMARK    2  A    between atoms: C_2  and  O_3
REMARK    3  A    between atoms: O_3  and  C_4
REMARK    4  A    between atoms: C_4  and  C_5
REMARK    5  A    between atoms: C_5  and  N_6
REMARK    6  A    between atoms: C_7  and  C_15
REMARK    7  A    between atoms: N_18  and  C_19
REMARK    8  A    between atoms: C_19  and  C_20
REMARK    9  A    between atoms: C_20  and  C_21
REMARK   10  A    between atoms: C_24  and  C_27
REMARK   11  A    between atoms: C_27  and  C_28
REMARK   12  A    between atoms: C_27  and  C_29
REMARK   13  A    between atoms: C_27  and  C_30
REMARK   14  A    between atoms: C_30  and  O_31
REMARK                            x       y       z     vdW  Elec       q    Type
REMARK                         _______ _______ _______ _____ _____    ______ ____
ROOT
ATOM      1  C   UNL     1      -9.071   2.431 124.383  0.00  0.00    +0.000 C 
ATOM      2  C   UNL     1      -8.525   1.967 125.748  0.00  0.00    +0.000 C 
ATOM      3  C   UNL     1      -8.073   0.515 125.665  0.00  0.00    +0.000 C 
ATOM      4  N   UNL     1      -9.108  -0.398 125.097  0.00  0.00    +0.000 NA
ATOM      5  C   UNL     1      -9.865   0.100 123.920  0.00  0.00    +0.000 C 
ATOM      6  C   UNL     1     -10.264   1.548 124.008  0.00  0.00    +0.000 C 
ENDROOT
BRANCH   1   8
ATOM      7  N   UNL     1      -6.569   3.103 123.730  0.00  0.00    +0.000 N 
ATOM      8  C   UNL     1      -7.852   2.639 123.435  0.00  0.00    +0.000 A 
ATOM      9  N   UNL     1      -8.033   2.783 122.122  0.00  0.00    +0.000 NA
ATOM     10  C   UNL     1      -6.957   3.502 121.638  0.00  0.00    +0.000 A 
ATOM     11  C   UNL     1      -6.627   3.964 120.359  0.00  0.00    +0.000 A 
ATOM     12  C   UNL     1      -5.408   4.656 120.186  0.00  0.00    +0.000 A 
ATOM     13  C   UNL     1      -4.578   4.964 121.261  0.00  0.00    +0.000 A 
ATOM     14  C   UNL     1      -4.922   4.567 122.536  0.00  0.00    +0.000 A 
ATOM     15  C   UNL     1      -6.078   3.789 122.656  0.00  0.00    +0.000 A 
BRANCH   7  16
ATOM     16  C   UNL     1      -5.781   3.156 124.922  0.00  0.00    +0.000 C 
BRANCH  16  17
ATOM     17  C   UNL     1      -5.834   4.423 125.714  0.00  0.00    +0.000 C 
BRANCH  17  18
ATOM     18  O   UNL     1      -4.623   4.505 126.478  0.00  0.00    +0.000 OA
BRANCH  18  20
ATOM     19  C   UNL     1      -2.405   3.570 126.521  0.00  0.00    +0.000 C 
ATOM     20  C   UNL     1      -3.872   3.310 126.340  0.00  0.00    +0.000 C 
ENDBRANCH  18  20
ENDBRANCH  17  18
ENDBRANCH  16  17
ENDBRANCH   7  16
ENDBRANCH   1   8
BRANCH   4  21
ATOM     21  C   UNL     1      -8.533  -1.747 124.868  0.00  0.00    +0.000 C 
BRANCH  21  22
ATOM     22  C   UNL     1      -8.902  -2.781 125.918  0.00  0.00    +0.000 C 
BRANCH  22  23
ATOM     23  C   UNL     1      -8.039  -2.716 127.157  0.00  0.00    +0.000 A 
ATOM     24  C   UNL     1      -6.727  -2.220 127.187  0.00  0.00    +0.000 A 
ATOM     25  C   UNL     1      -5.862  -2.564 128.233  0.00  0.00    +0.000 A 
ATOM     26  C   UNL     1      -6.327  -3.270 129.357  0.00  0.00    +0.000 A 
ATOM     27  C   UNL     1      -7.708  -3.482 129.408  0.00  0.00    +0.000 A 
ATOM     28  C   UNL     1      -8.513  -3.374 128.284  0.00  0.00    +0.000 A 
BRANCH  26  29
ATOM     29  C   UNL     1      -5.339  -3.711 130.453  0.00  0.00    +0.000 C 
ATOM     30  C   UNL     1      -5.593  -5.182 130.901  0.00  0.00    +0.000 C 
ATOM     31  C   UNL     1      -3.940  -3.671 129.799  0.00  0.00    +0.000 C 
BRANCH  29  32
ATOM     32  C   UNL     1      -5.232  -2.896 131.778  0.00  0.00    +0.000 C 
ATOM     33  O   UNL     1      -4.339  -2.108 131.973  0.00  0.00    +0.000 OA
BRANCH  32  34
ATOM     34  O   UNL     1      -6.119  -3.105 132.781  0.00  0.00    +0.000 OA
ATOM     35  H   UNL     1      -5.775  -3.178 133.682  0.00  0.00    +0.000 HD
ENDBRANCH  32  34
ENDBRANCH  29  32
ENDBRANCH  26  29
ENDBRANCH  22  23
ENDBRANCH  21  22
ENDBRANCH   4  21
TORSDOF 11
ENDMDL
MODEL 6
REMARK VINA RESULT:      -7.4      2.310      4.294
REMARK  Name = Bilastine
REMARK  14 active torsions:
REMARK  status: ('A' for Active; 'I' for Inactive)
REMARK    1  A    between atoms: C_1  and  C_2
REMARK    2  A    between atoms: C_2  and  O_3
REMARK    3  A    between atoms: O_3  and  C_4
REMARK    4  A    between atoms: C_4  and  C_5
REMARK    5  A    between atoms: C_5  and  N_6
REMARK    6  A    between atoms: C_7  and  C_15
REMARK    7  A    between atoms: N_18  and  C_19
REMARK    8  A    between atoms: C_19  and  C_20
REMARK    9  A    between atoms: C_20  and  C_21
REMARK   10  A    between atoms: C_24  and  C_27
REMARK   11  A    between atoms: C_27  and  C_28
REMARK   12  A    between atoms: C_27  and  C_29
REMARK   13  A    between atoms: C_27  and  C_30
REMARK   14  A    between atoms: C_30  and  O_31
REMARK                            x       y       z     vdW  Elec       q    Type
REMARK                         _______ _______ _______ _____ _____    ______ ____
ROOT
ATOM      1  C   UNL     1      -9.058   2.221 123.805  0.00  0.00    +0.000 C 
ATOM      2  C   UNL     1      -8.610   1.285 124.945  0.00  0.00    +0.000 C 
ATOM      3  C   UNL     1      -8.330  -0.108 124.398  0.00  0.00    +0.000 C 
ATOM      4  N   UNL     1      -9.448  -0.662 123.580  0.00  0.00    +0.000 NA
ATOM      5  C   UNL     1     -10.107   0.272 122.631  0.00  0.00    +0.000 C 
ATOM      6  C   UNL     1     -10.336   1.654 123.180  0.00  0.00    +0.000 C 
ENDROOT
BRANCH   1   8
ATOM      7  N   UNL     1      -6.548   3.033 123.383  0.00  0.00    +0.000 N 
ATOM      8  C   UNL     1      -7.796   2.571 122.961  0.00  0.00    +0.000 A 
ATOM      9  N   UNL     1      -7.909   2.861 121.665  0.00  0.00    +0.000 NA
ATOM     10  C   UNL     1      -6.832   3.661 121.330  0.00  0.00    +0.000 A 
ATOM     11  C   UNL     1      -6.448   4.277 120.134  0.00  0.00    +0.000 A 
ATOM     12  C   UNL     1      -5.246   5.018 120.113  0.00  0.00    +0.000 A 
ATOM     13  C   UNL     1      -4.488   5.222 121.264  0.00  0.00    +0.000 A 
ATOM     14  C   UNL     1      -4.889   4.671 122.463  0.00  0.00    +0.000 A 
ATOM     15  C   UNL     1      -6.022   3.853 122.425  0.00  0.00    +0.000 A 
BRANCH   7  16
ATOM     16  C   UNL     1      -5.831   2.971 124.618  0.00  0.00    +0.000 C 
BRANCH  16  17
ATOM     17  C   UNL     1      -6.160   4.004 125.647  0.00  0.00    +0.000 C 
BRANCH  17  18
ATOM     18  O   UNL     1      -4.928   4.405 126.264  0.00  0.00    +0.000 OA
BRANCH  18  20
ATOM     19  C   UNL     1      -2.668   3.608 126.485  0.00  0.00    +0.000 C 
ATOM     20  C   UNL     1      -4.128   3.269 126.549  0.00  0.00    +0.000 C 
ENDBRANCH  18  20
ENDBRANCH  17  18
ENDBRANCH  16  17
ENDBRANCH   7  16
ENDBRANCH   1   8
BRANCH   4  21
ATOM     21  C   UNL     1      -9.029  -1.927 122.926  0.00  0.00    +0.000 C 
BRANCH  21  22
ATOM     22  C   UNL     1      -9.320  -3.184 123.729  0.00  0.00    +0.000 C 
BRANCH  22  23
ATOM     23  C   UNL     1      -8.588  -3.237 125.050  0.00  0.00    +0.000 A 
ATOM     24  C   UNL     1      -9.214  -3.257 126.305  0.00  0.00    +0.000 A 
ATOM     25  C   UNL     1      -8.506  -2.891 127.456  0.00  0.00    +0.000 A 
ATOM     26  C   UNL     1      -7.120  -2.659 127.413  0.00  0.00    +0.000 A 
ATOM     27  C   UNL     1      -6.499  -2.941 126.192  0.00  0.00    +0.000 A 
ATOM     28  C   UNL     1      -7.214  -3.052 125.009  0.00  0.00    +0.000 A 
BRANCH  26  29
ATOM     29  C   UNL     1      -6.380  -2.175 128.674  0.00  0.00    +0.000 C 
ATOM     30  C   UNL     1      -6.839  -2.950 129.946  0.00  0.00    +0.000 C 
ATOM     31  C   UNL     1      -4.891  -2.520 128.446  0.00  0.00    +0.000 C 
BRANCH  29  32
ATOM     32  C   UNL     1      -6.430  -0.670 129.077  0.00  0.00    +0.000 C 
ATOM     33  O   UNL     1      -6.067  -0.287 130.162  0.00  0.00    +0.000 OA
BRANCH  32  34
ATOM     34  O   UNL     1      -6.947   0.248 128.224  0.00  0.00    +0.000 OA
ATOM     35  H   UNL     1      -7.656   0.820 128.551  0.00  0.00    +0.000 HD
ENDBRANCH  32  34
ENDBRANCH  29  32
ENDBRANCH  26  29
ENDBRANCH  22  23
ENDBRANCH  21  22
ENDBRANCH   4  21
TORSDOF 11
ENDMDL
MODEL 7
REMARK VINA RESULT:      -7.3      4.767      7.377
REMARK  Name = Bilastine
REMARK  14 active torsions:
REMARK  status: ('A' for Active; 'I' for Inactive)
REMARK    1  A    between atoms: C_1  and  C_2
REMARK    2  A    between atoms: C_2  and  O_3
REMARK    3  A    between atoms: O_3  and  C_4
REMARK    4  A    between atoms: C_4  and  C_5
REMARK    5  A    between atoms: C_5  and  N_6
REMARK    6  A    between atoms: C_7  and  C_15
REMARK    7  A    between atoms: N_18  and  C_19
REMARK    8  A    between atoms: C_19  and  C_20
REMARK    9  A    between atoms: C_20  and  C_21
REMARK   10  A    between atoms: C_24  and  C_27
REMARK   11  A    between atoms: C_27  and  C_28
REMARK   12  A    between atoms: C_27  and  C_29
REMARK   13  A    between atoms: C_27  and  C_30
REMARK   14  A    between atoms: C_30  and  O_31
REMARK                            x       y       z     vdW  Elec       q    Type
REMARK                         _______ _______ _______ _____ _____    ______ ____
ROOT
ATOM      1  C   UNL     1      -6.430   5.268 131.911  0.00  0.00    +0.000 C 
ATOM      2  C   UNL     1      -7.384   5.052 133.102  0.00  0.00    +0.000 C 
ATOM      3  C   UNL     1      -8.436   4.009 132.747  0.00  0.00    +0.000 C 
ATOM      4  N   UNL     1      -9.142   4.289 131.462  0.00  0.00    +0.000 NA
ATOM      5  C   UNL     1      -8.303   4.758 130.328  0.00  0.00    +0.000 C 
ATOM      6  C   UNL     1      -7.246   5.757 130.712  0.00  0.00    +0.000 C 
ENDROOT
BRANCH   1   8
ATOM      7  N   UNL     1      -4.813   3.494 130.736  0.00  0.00    +0.000 N 
ATOM      8  C   UNL     1      -5.486   4.030 131.835  0.00  0.00    +0.000 A 
ATOM      9  N   UNL     1      -5.544   3.078 132.767  0.00  0.00    +0.000 NA
ATOM     10  C   UNL     1      -5.087   1.910 132.187  0.00  0.00    +0.000 A 
ATOM     11  C   UNL     1      -4.948   0.605 132.672  0.00  0.00    +0.000 A 
ATOM     12  C   UNL     1      -4.404  -0.378 131.816  0.00  0.00    +0.000 A 
ATOM     13  C   UNL     1      -4.089  -0.103 130.487  0.00  0.00    +0.000 A 
ATOM     14  C   UNL     1      -4.279   1.165 129.979  0.00  0.00    +0.000 A 
ATOM     15  C   UNL     1      -4.714   2.140 130.883  0.00  0.00    +0.000 A 
BRANCH   7  16
ATOM     16  C   UNL     1      -4.391   4.021 129.476  0.00  0.00    +0.000 C 
BRANCH  16  17
ATOM     17  C   UNL     1      -3.022   4.620 129.416  0.00  0.00    +0.000 C 
BRANCH  17  18
ATOM     18  O   UNL     1      -2.646   4.696 128.033  0.00  0.00    +0.000 OA
BRANCH  18  20
ATOM     19  C   UNL     1      -1.591   3.009 126.678  0.00  0.00    +0.000 C 
ATOM     20  C   UNL     1      -2.833   3.440 127.403  0.00  0.00    +0.000 C 
ENDBRANCH  18  20
ENDBRANCH  17  18
ENDBRANCH  16  17
ENDBRANCH   7  16
ENDBRANCH   1   8
BRANCH   4  21
ATOM     21  C   UNL     1     -10.004   3.141 131.088  0.00  0.00    +0.000 C 
BRANCH  21  22
ATOM     22  C   UNL     1      -9.767   1.878 131.899  0.00  0.00    +0.000 C 
BRANCH  22  23
ATOM     23  C   UNL     1      -8.798   0.917 131.248  0.00  0.00    +0.000 A 
ATOM     24  C   UNL     1      -8.224   1.102 129.982  0.00  0.00    +0.000 A 
ATOM     25  C   UNL     1      -7.688   0.017 129.280  0.00  0.00    +0.000 A 
ATOM     26  C   UNL     1      -7.558  -1.246 129.885  0.00  0.00    +0.000 A 
ATOM     27  C   UNL     1      -7.877  -1.299 131.246  0.00  0.00    +0.000 A 
ATOM     28  C   UNL     1      -8.633  -0.315 131.865  0.00  0.00    +0.000 A 
BRANCH  26  29
ATOM     29  C   UNL     1      -7.045  -2.445 129.065  0.00  0.00    +0.000 C 
ATOM     30  C   UNL     1      -6.070  -3.335 129.893  0.00  0.00    +0.000 C 
ATOM     31  C   UNL     1      -8.290  -3.305 128.753  0.00  0.00    +0.000 C 
BRANCH  29  32
ATOM     32  C   UNL     1      -6.319  -2.205 127.706  0.00  0.00    +0.000 C 
ATOM     33  O   UNL     1      -6.860  -2.416 126.648  0.00  0.00    +0.000 OA
BRANCH  32  34
ATOM     34  O   UNL     1      -5.024  -1.806 127.685  0.00  0.00    +0.000 OA
ATOM     35  H   UNL     1      -4.841  -0.860 127.768  0.00  0.00    +0.000 HD
ENDBRANCH  32  34
ENDBRANCH  29  32
ENDBRANCH  26  29
ENDBRANCH  22  23
ENDBRANCH  21  22
ENDBRANCH   4  21
TORSDOF 11
ENDMDL
MODEL 8
REMARK VINA RESULT:      -7.3      3.357      6.941
REMARK  Name = Bilastine
REMARK  14 active torsions:
REMARK  status: ('A' for Active; 'I' for Inactive)
REMARK    1  A    between atoms: C_1  and  C_2
REMARK    2  A    between atoms: C_2  and  O_3
REMARK    3  A    between atoms: O_3  and  C_4
REMARK    4  A    between atoms: C_4  and  C_5
REMARK    5  A    between atoms: C_5  and  N_6
REMARK    6  A    between atoms: C_7  and  C_15
REMARK    7  A    between atoms: N_18  and  C_19
REMARK    8  A    between atoms: C_19  and  C_20
REMARK    9  A    between atoms: C_20  and  C_21
REMARK   10  A    between atoms: C_24  and  C_27
REMARK   11  A    between atoms: C_27  and  C_28
REMARK   12  A    between atoms: C_27  and  C_29
REMARK   13  A    between atoms: C_27  and  C_30
REMARK   14  A    between atoms: C_30  and  O_31
REMARK                            x       y       z     vdW  Elec       q    Type
REMARK                         _______ _______ _______ _____ _____    ______ ____
ROOT
ATOM      1  C   UNL     1      -4.986   0.009 131.661  0.00  0.00    +0.000 C 
ATOM      2  C   UNL     1      -3.976  -0.670 130.715  0.00  0.00    +0.000 C 
ATOM      3  C   UNL     1      -4.666  -1.764 129.911  0.00  0.00    +0.000 C 
ATOM      4  N   UNL     1      -5.431  -2.729 130.755  0.00  0.00    +0.000 NA
ATOM      5  C   UNL     1      -6.233  -2.154 131.866  0.00  0.00    +0.000 C 
ATOM      6  C   UNL     1      -5.546  -1.047 132.618  0.00  0.00    +0.000 C 
ENDROOT
BRANCH   1   8
ATOM      7  N   UNL     1      -5.625   2.167 130.221  0.00  0.00    +0.000 N 
ATOM      8  C   UNL     1      -5.901   0.924 130.794  0.00  0.00    +0.000 A 
ATOM      9  N   UNL     1      -7.228   0.797 130.845  0.00  0.00    +0.000 NA
ATOM     10  C   UNL     1      -7.768   2.018 130.490  0.00  0.00    +0.000 A 
ATOM     11  C   UNL     1      -9.087   2.475 130.393  0.00  0.00    +0.000 A 
ATOM     12  C   UNL     1      -9.311   3.800 129.958  0.00  0.00    +0.000 A 
ATOM     13  C   UNL     1      -8.260   4.681 129.712  0.00  0.00    +0.000 A 
ATOM     14  C   UNL     1      -6.955   4.261 129.864  0.00  0.00    +0.000 A 
ATOM     15  C   UNL     1      -6.768   2.913 130.188  0.00  0.00    +0.000 A 
BRANCH   7  16
ATOM     16  C   UNL     1      -4.422   2.844 129.850  0.00  0.00    +0.000 C 
BRANCH  16  17
ATOM     17  C   UNL     1      -3.828   2.494 128.524  0.00  0.00    +0.000 C 
BRANCH  17  18
ATOM     18  O   UNL     1      -3.783   3.696 127.741  0.00  0.00    +0.000 OA
BRANCH  18  20
ATOM     19  C   UNL     1      -1.741   3.071 126.632  0.00  0.00    +0.000 C 
ATOM     20  C   UNL     1      -2.439   4.076 127.500  0.00  0.00    +0.000 C 
ENDBRANCH  18  20
ENDBRANCH  17  18
ENDBRANCH  16  17
ENDBRANCH   7  16
ENDBRANCH   1   8
BRANCH   4  21
ATOM     21  C   UNL     1      -6.228  -3.642 129.898  0.00  0.00    +0.000 C 
BRANCH  21  22
ATOM     22  C   UNL     1      -7.714  -3.327 129.845  0.00  0.00    +0.000 C 
BRANCH  22  23
ATOM     23  C   UNL     1      -8.201  -2.951 128.464  0.00  0.00    +0.000 A 
ATOM     24  C   UNL     1      -8.910  -3.809 127.610  0.00  0.00    +0.000 A 
ATOM     25  C   UNL     1      -8.961  -3.558 126.234  0.00  0.00    +0.000 A 
ATOM     26  C   UNL     1      -8.452  -2.363 125.695  0.00  0.00    +0.000 A 
ATOM     27  C   UNL     1      -8.021  -1.415 126.629  0.00  0.00    +0.000 A 
ATOM     28  C   UNL     1      -7.737  -1.751 127.944  0.00  0.00    +0.000 A 
BRANCH  26  29
ATOM     29  C   UNL     1      -8.443  -2.147 124.170  0.00  0.00    +0.000 C 
ATOM     30  C   UNL     1      -7.025  -2.375 123.564  0.00  0.00    +0.000 C 
ATOM     31  C   UNL     1      -9.368  -3.238 123.585  0.00  0.00    +0.000 C 
BRANCH  29  32
ATOM     32  C   UNL     1      -8.925  -0.790 123.573  0.00  0.00    +0.000 C 
ATOM     33  O   UNL     1      -8.362   0.250 123.815  0.00  0.00    +0.000 OA
BRANCH  32  34
ATOM     34  O   UNL     1     -10.041  -0.740 122.806  0.00  0.00    +0.000 OA
ATOM     35  H   UNL     1      -9.939  -0.845 121.850  0.00  0.00    +0.000 HD
ENDBRANCH  32  34
ENDBRANCH  29  32
ENDBRANCH  26  29
ENDBRANCH  22  23
ENDBRANCH  21  22
ENDBRANCH   4  21
TORSDOF 11
ENDMDL
MODEL 9
REMARK VINA RESULT:      -7.2      3.673      7.025
REMARK  Name = Bilastine
REMARK  14 active torsions:
REMARK  status: ('A' for Active; 'I' for Inactive)
REMARK    1  A    between atoms: C_1  and  C_2
REMARK    2  A    between atoms: C_2  and  O_3
REMARK    3  A    between atoms: O_3  and  C_4
REMARK    4  A    between atoms: C_4  and  C_5
REMARK    5  A    between atoms: C_5  and  N_6
REMARK    6  A    between atoms: C_7  and  C_15
REMARK    7  A    between atoms: N_18  and  C_19
REMARK    8  A    between atoms: C_19  and  C_20
REMARK    9  A    between atoms: C_20  and  C_21
REMARK   10  A    between atoms: C_24  and  C_27
REMARK   11  A    between atoms: C_27  and  C_28
REMARK   12  A    between atoms: C_27  and  C_29
REMARK   13  A    between atoms: C_27  and  C_30
REMARK   14  A    between atoms: C_30  and  O_31
REMARK                            x       y       z     vdW  Elec       q    Type
REMARK                         _______ _______ _______ _____ _____    ______ ____
ROOT
ATOM      1  C   UNL     1      -6.533  -0.832 133.479  0.00  0.00    +0.000 C 
ATOM      2  C   UNL     1      -5.098  -1.368 133.646  0.00  0.00    +0.000 C 
ATOM      3  C   UNL     1      -4.817  -2.445 132.607  0.00  0.00    +0.000 C 
ATOM      4  N   UNL     1      -5.853  -3.519 132.570  0.00  0.00    +0.000 NA
ATOM      5  C   UNL     1      -7.270  -3.084 132.668  0.00  0.00    +0.000 C 
ATOM      6  C   UNL     1      -7.514  -1.991 133.672  0.00  0.00    +0.000 C 
ENDROOT
BRANCH   1   8
ATOM      7  N   UNL     1      -7.611   0.401 131.367  0.00  0.00    +0.000 N 
ATOM      8  C   UNL     1      -6.550   0.080 132.215  0.00  0.00    +0.000 A 
ATOM      9  N   UNL     1      -5.422   0.338 131.553  0.00  0.00    +0.000 NA
ATOM     10  C   UNL     1      -5.772   0.631 130.248  0.00  0.00    +0.000 A 
ATOM     11  C   UNL     1      -5.015   0.950 129.115  0.00  0.00    +0.000 A 
ATOM     12  C   UNL     1      -5.694   1.235 127.910  0.00  0.00    +0.000 A 
ATOM     13  C   UNL     1      -7.078   1.122 127.800  0.00  0.00    +0.000 A 
ATOM     14  C   UNL     1      -7.830   0.748 128.895  0.00  0.00    +0.000 A 
ATOM     15  C   UNL     1      -7.139   0.581 130.099  0.00  0.00    +0.000 A 
BRANCH   7  16
ATOM     16  C   UNL     1      -9.033   0.403 131.513  0.00  0.00    +0.000 C 
BRANCH  16  17
ATOM     17  C   UNL     1      -9.637   1.545 132.265  0.00  0.00    +0.000 C 
BRANCH  17  18
ATOM     18  O   UNL     1      -8.830   2.704 132.010  0.00  0.00    +0.000 OA
BRANCH  18  20
ATOM     19  C   UNL     1      -9.215   3.952 129.989  0.00  0.00    +0.000 C 
ATOM     20  C   UNL     1      -9.612   3.728 131.418  0.00  0.00    +0.000 C 
ENDBRANCH  18  20
ENDBRANCH  17  18
ENDBRANCH  16  17
ENDBRANCH   7  16
ENDBRANCH   1   8
BRANCH   4  21
ATOM     21  C   UNL     1      -5.619  -4.420 131.414  0.00  0.00    +0.000 C 
BRANCH  21  22
ATOM     22  C   UNL     1      -4.771  -3.821 130.303  0.00  0.00    +0.000 C 
BRANCH  22  23
ATOM     23  C   UNL     1      -5.583  -3.124 129.235  0.00  0.00    +0.000 A 
ATOM     24  C   UNL     1      -6.984  -3.089 129.197  0.00  0.00    +0.000 A 
ATOM     25  C   UNL     1      -7.655  -2.804 128.002  0.00  0.00    +0.000 A 
ATOM     26  C   UNL     1      -6.953  -2.384 126.859  0.00  0.00    +0.000 A 
ATOM     27  C   UNL     1      -5.586  -2.154 127.040  0.00  0.00    +0.000 A 
ATOM     28  C   UNL     1      -4.889  -2.667 128.123  0.00  0.00    +0.000 A 
BRANCH  26  29
ATOM     29  C   UNL     1      -7.704  -2.159 125.533  0.00  0.00    +0.000 C 
ATOM     30  C   UNL     1      -7.070  -1.004 124.699  0.00  0.00    +0.000 C 
ATOM     31  C   UNL     1      -7.520  -3.459 124.719  0.00  0.00    +0.000 C 
BRANCH  29  32
ATOM     32  C   UNL     1      -9.233  -1.856 125.546  0.00  0.00    +0.000 C 
ATOM     33  O   UNL     1      -9.662  -0.729 125.599  0.00  0.00    +0.000 OA
BRANCH  32  34
ATOM     34  O   UNL     1     -10.130  -2.873 125.560  0.00  0.00    +0.000 OA
ATOM     35  H   UNL     1     -10.051  -3.555 124.878  0.00  0.00    +0.000 HD
ENDBRANCH  32  34
ENDBRANCH  29  32
ENDBRANCH  26  29
ENDBRANCH  22  23
ENDBRANCH  21  22
ENDBRANCH   4  21
TORSDOF 11
ENDMDL
