MODEL 1
REMARK VINA RESULT:      -7.7      0.000      0.000
REMARK  Name = Bimatoprost
REMARK  16 active torsions:
REMARK  status: ('A' for Active; 'I' for Inactive)
REMARK    1  A    between atoms: C_1  and  C_2
REMARK    2  A    between atoms: C_2  and  N_3
REMARK    3  A    between atoms: C_4  and  C_6
REMARK    4  A    between atoms: C_6  and  C_7
REMARK    5  A    between atoms: C_7  and  C_8
REMARK    6  A    between atoms: C_8  and  C_9
REMARK    7  A    between atoms: C_10  and  C_11
REMARK    8  A    between atoms: C_11  and  C_12
REMARK    9  A    between atoms: C_13  and  O_14
REMARK   10  A    between atoms: C_16  and  O_17
REMARK   11  A    between atoms: C_18  and  C_19
REMARK   12  A    between atoms: C_20  and  C_21
REMARK   13  A    between atoms: C_21  and  O_22
REMARK   14  A    between atoms: C_21  and  C_23
REMARK   15  A    between atoms: C_23  and  C_24
REMARK   16  A    between atoms: C_24  and  C_25
REMARK                            x       y       z     vdW  Elec       q    Type
REMARK                         _______ _______ _______ _____ _____    ______ ____
ROOT
ATOM      1  C   UNL     1      -6.825  -2.372 124.825  0.00  0.00    +0.000 C 
ATOM      2  C   UNL     1      -5.599  -2.407 123.871  0.00  0.00    +0.000 C 
ATOM      3  C   UNL     1      -6.010  -1.740 122.561  0.00  0.00    +0.000 C 
ATOM      4  C   UNL     1      -7.447  -1.280 122.761  0.00  0.00    +0.000 C 
ATOM      5  C   UNL     1      -7.630  -1.161 124.285  0.00  0.00    +0.000 C 
ENDROOT
BRANCH   2   6
ATOM      6  O   UNL     1      -5.011  -3.653 123.561  0.00  0.00    +0.000 OA
ATOM      7  H   UNL     1      -5.010  -4.194 124.372  0.00  0.00    +0.000 HD
ENDBRANCH   2   6
BRANCH   4   8
ATOM      8  O   UNL     1      -8.356  -2.223 122.192  0.00  0.00    +0.000 OA
ATOM      9  H   UNL     1      -8.916  -1.785 121.529  0.00  0.00    +0.000 HD
ENDBRANCH   4   8
BRANCH   5  10
ATOM     10  C   UNL     1      -7.101   0.148 124.801  0.00  0.00    +0.000 C 
ATOM     11  C   UNL     1      -7.165   1.277 124.083  0.00  0.00    +0.000 C 
BRANCH  11  12
ATOM     12  C   UNL     1      -6.653   2.583 124.593  0.00  0.00    +0.000 C 
BRANCH  12  13
ATOM     13  O   UNL     1      -5.608   2.326 125.522  0.00  0.00    +0.000 OA
ATOM     14  H   UNL     1      -5.972   2.473 126.411  0.00  0.00    +0.000 HD
ENDBRANCH  12  13
BRANCH  12  15
ATOM     15  C   UNL     1      -6.140   3.441 123.446  0.00  0.00    +0.000 C 
BRANCH  15  16
ATOM     16  C   UNL     1      -6.403   2.749 122.117  0.00  0.00    +0.000 C 
BRANCH  16  17
ATOM     17  C   UNL     1      -6.364   3.732 120.983  0.00  0.00    +0.000 A 
ATOM     18  C   UNL     1      -7.423   3.812 120.073  0.00  0.00    +0.000 A 
ATOM     19  C   UNL     1      -7.314   4.633 118.954  0.00  0.00    +0.000 A 
ATOM     20  C   UNL     1      -6.193   5.445 118.790  0.00  0.00    +0.000 A 
ATOM     21  C   UNL     1      -5.161   5.412 119.725  0.00  0.00    +0.000 A 
ATOM     22  C   UNL     1      -5.242   4.551 120.814  0.00  0.00    +0.000 A 
ENDBRANCH  16  17
ENDBRANCH  15  16
ENDBRANCH  12  15
ENDBRANCH  11  12
ENDBRANCH   5  10
BRANCH   1  23
ATOM     23  C   UNL     1      -7.769  -3.574 124.988  0.00  0.00    +0.000 C 
BRANCH  23  25
ATOM     24  C   UNL     1      -9.482  -3.273 126.779  0.00  0.00    +0.000 C 
ATOM     25  C   UNL     1      -9.131  -3.250 125.494  0.00  0.00    +0.000 C 
BRANCH  24  26
ATOM     26  C   UNL     1      -8.624  -3.939 127.797  0.00  0.00    +0.000 C 
BRANCH  26  27
ATOM     27  C   UNL     1      -7.838  -2.886 128.538  0.00  0.00    +0.000 C 
BRANCH  27  28
ATOM     28  C   UNL     1      -7.815  -3.177 130.030  0.00  0.00    +0.000 C 
BRANCH  28  30
ATOM     29  N   UNL     1      -5.468  -3.412 129.449  0.00  0.00    +0.000 N 
ATOM     30  C   UNL     1      -6.402  -3.500 130.451  0.00  0.00    +0.000 C 
ATOM     31  O   UNL     1      -6.103  -3.819 131.605  0.00  0.00    +0.000 OA
ATOM     32  H   UNL     1      -5.749  -3.147 128.512  0.00  0.00    +0.000 HD
BRANCH  29  34
ATOM     33  C   UNL     1      -3.260  -2.441 129.956  0.00  0.00    +0.000 C 
ATOM     34  C   UNL     1      -4.080  -3.695 129.745  0.00  0.00    +0.000 C 
ENDBRANCH  29  34
ENDBRANCH  28  30
ENDBRANCH  27  28
ENDBRANCH  26  27
ENDBRANCH  24  26
ENDBRANCH  23  25
ENDBRANCH   1  23
TORSDOF 15
ENDMDL
MODEL 2
REMARK VINA RESULT:      -7.6      1.444      2.055
REMARK  Name = Bimatoprost
REMARK  16 active torsions:
REMARK  status: ('A' for Active; 'I' for Inactive)
REMARK    1  A    between atoms: C_1  and  C_2
REMARK    2  A    between atoms: C_2  and  N_3
REMARK    3  A    between atoms: C_4  and  C_6
REMARK    4  A    between atoms: C_6  and  C_7
REMARK    5  A    between atoms: C_7  and  C_8
REMARK    6  A    between atoms: C_8  and  C_9
REMARK    7  A    between atoms: C_10  and  C_11
REMARK    8  A    between atoms: C_11  and  C_12
REMARK    9  A    between atoms: C_13  and  O_14
REMARK   10  A    between atoms: C_16  and  O_17
REMARK   11  A    between atoms: C_18  and  C_19
REMARK   12  A    between atoms: C_20  and  C_21
REMARK   13  A    between atoms: C_21  and  O_22
REMARK   14  A    between atoms: C_21  and  C_23
REMARK   15  A    between atoms: C_23  and  C_24
REMARK   16  A    between atoms: C_24  and  C_25
REMARK                            x       y       z     vdW  Elec       q    Type
REMARK                         _______ _______ _______ _____ _____    ______ ____
ROOT
ATOM      1  C   UNL     1      -6.518  -2.994 124.909  0.00  0.00    +0.000 C 
ATOM      2  C   UNL     1      -5.223  -3.387 124.147  0.00  0.00    +0.000 C 
ATOM      3  C   UNL     1      -5.161  -2.550 122.872  0.00  0.00    +0.000 C 
ATOM      4  C   UNL     1      -6.383  -1.645 122.909  0.00  0.00    +0.000 C 
ATOM      5  C   UNL     1      -6.781  -1.555 124.393  0.00  0.00    +0.000 C 
ENDROOT
BRANCH   2   6
ATOM      6  O   UNL     1      -5.025  -4.740 123.791  0.00  0.00    +0.000 OA
ATOM      7  H   UNL     1      -5.096  -5.277 124.602  0.00  0.00    +0.000 HD
ENDBRANCH   2   6
BRANCH   4   8
ATOM      8  O   UNL     1      -7.434  -2.193 122.113  0.00  0.00    +0.000 OA
ATOM      9  H   UNL     1      -8.244  -1.666 122.225  0.00  0.00    +0.000 HD
ENDBRANCH   4   8
BRANCH   5  10
ATOM     10  C   UNL     1      -5.956  -0.531 125.122  0.00  0.00    +0.000 C 
ATOM     11  C   UNL     1      -6.506   0.526 125.733  0.00  0.00    +0.000 C 
BRANCH  11  12
ATOM     12  C   UNL     1      -5.694   1.540 126.469  0.00  0.00    +0.000 C 
BRANCH  12  13
ATOM     13  O   UNL     1      -4.318   1.221 126.306  0.00  0.00    +0.000 OA
ATOM     14  H   UNL     1      -4.258   0.256 126.206  0.00  0.00    +0.000 HD
ENDBRANCH  12  13
BRANCH  12  15
ATOM     15  C   UNL     1      -5.976   2.938 125.939  0.00  0.00    +0.000 C 
BRANCH  15  16
ATOM     16  C   UNL     1      -6.924   2.866 124.751  0.00  0.00    +0.000 C 
BRANCH  16  17
ATOM     17  C   UNL     1      -6.231   3.275 123.484  0.00  0.00    +0.000 A 
ATOM     18  C   UNL     1      -5.344   4.356 123.475  0.00  0.00    +0.000 A 
ATOM     19  C   UNL     1      -4.812   4.804 122.268  0.00  0.00    +0.000 A 
ATOM     20  C   UNL     1      -5.087   4.119 121.086  0.00  0.00    +0.000 A 
ATOM     21  C   UNL     1      -5.924   3.005 121.099  0.00  0.00    +0.000 A 
ATOM     22  C   UNL     1      -6.502   2.590 122.294  0.00  0.00    +0.000 A 
ENDBRANCH  16  17
ENDBRANCH  15  16
ENDBRANCH  12  15
ENDBRANCH  11  12
ENDBRANCH   5  10
BRANCH   1  23
ATOM     23  C   UNL     1      -7.814  -3.814 124.799  0.00  0.00    +0.000 C 
BRANCH  23  25
ATOM     24  C   UNL     1      -9.435  -3.046 126.535  0.00  0.00    +0.000 C 
ATOM     25  C   UNL     1      -9.047  -3.122 125.263  0.00  0.00    +0.000 C 
BRANCH  24  26
ATOM     26  C   UNL     1      -8.834  -3.926 127.574  0.00  0.00    +0.000 C 
BRANCH  26  27
ATOM     27  C   UNL     1      -8.424  -3.080 128.754  0.00  0.00    +0.000 C 
BRANCH  27  28
ATOM     28  C   UNL     1      -7.669  -1.842 128.298  0.00  0.00    +0.000 C 
BRANCH  28  30
ATOM     29  N   UNL     1      -5.369  -2.549 128.626  0.00  0.00    +0.000 N 
ATOM     30  C   UNL     1      -6.378  -1.734 129.074  0.00  0.00    +0.000 C 
ATOM     31  O   UNL     1      -6.236  -0.974 130.035  0.00  0.00    +0.000 OA
ATOM     32  H   UNL     1      -5.520  -3.160 127.833  0.00  0.00    +0.000 HD
BRANCH  29  34
ATOM     33  C   UNL     1      -3.245  -3.744 128.997  0.00  0.00    +0.000 C 
ATOM     34  C   UNL     1      -4.085  -2.521 129.295  0.00  0.00    +0.000 C 
ENDBRANCH  29  34
ENDBRANCH  28  30
ENDBRANCH  27  28
ENDBRANCH  26  27
ENDBRANCH  24  26
ENDBRANCH  23  25
ENDBRANCH   1  23
TORSDOF 15
ENDMDL
MODEL 3
REMARK VINA RESULT:      -7.5      2.073      2.848
REMARK  Name = Bimatoprost
REMARK  16 active torsions:
REMARK  status: ('A' for Active; 'I' for Inactive)
REMARK    1  A    between atoms: C_1  and  C_2
REMARK    2  A    between atoms: C_2  and  N_3
REMARK    3  A    between atoms: C_4  and  C_6
REMARK    4  A    between atoms: C_6  and  C_7
REMARK    5  A    between atoms: C_7  and  C_8
REMARK    6  A    between atoms: C_8  and  C_9
REMARK    7  A    between atoms: C_10  and  C_11
REMARK    8  A    between atoms: C_11  and  C_12
REMARK    9  A    between atoms: C_13  and  O_14
REMARK   10  A    between atoms: C_16  and  O_17
REMARK   11  A    between atoms: C_18  and  C_19
REMARK   12  A    between atoms: C_20  and  C_21
REMARK   13  A    between atoms: C_21  and  O_22
REMARK   14  A    between atoms: C_21  and  C_23
REMARK   15  A    between atoms: C_23  and  C_24
REMARK   16  A    between atoms: C_24  and  C_25
REMARK                            x       y       z     vdW  Elec       q    Type
REMARK                         _______ _______ _______ _____ _____    ______ ____
ROOT
ATOM      1  C   UNL     1      -7.796  -2.605 125.674  0.00  0.00    +0.000 C 
ATOM      2  C   UNL     1      -6.924  -2.542 124.389  0.00  0.00    +0.000 C 
ATOM      3  C   UNL     1      -7.853  -2.262 123.210  0.00  0.00    +0.000 C 
ATOM      4  C   UNL     1      -9.247  -2.120 123.803  0.00  0.00    +0.000 C 
ATOM      5  C   UNL     1      -9.027  -1.748 125.280  0.00  0.00    +0.000 C 
ENDROOT
BRANCH   2   6
ATOM      6  O   UNL     1      -6.118  -3.652 124.056  0.00  0.00    +0.000 OA
ATOM      7  H   UNL     1      -5.582  -3.412 123.278  0.00  0.00    +0.000 HD
ENDBRANCH   2   6
BRANCH   4   8
ATOM      8  O   UNL     1      -9.973  -3.342 123.670  0.00  0.00    +0.000 OA
ATOM      9  H   UNL     1     -10.686  -3.378 124.330  0.00  0.00    +0.000 HD
ENDBRANCH   4   8
BRANCH   5  10
ATOM     10  C   UNL     1      -8.769  -0.276 125.443  0.00  0.00    +0.000 C 
ATOM     11  C   UNL     1      -9.347   0.642 124.657  0.00  0.00    +0.000 C 
BRANCH  11  12
ATOM     12  C   UNL     1      -9.104   2.106 124.820  0.00  0.00    +0.000 C 
BRANCH  12  13
ATOM     13  O   UNL     1      -8.742   2.356 126.171  0.00  0.00    +0.000 OA
ATOM     14  H   UNL     1      -9.299   3.088 126.486  0.00  0.00    +0.000 HD
ENDBRANCH  12  13
BRANCH  12  15
ATOM     15  C   UNL     1      -7.999   2.572 123.884  0.00  0.00    +0.000 C 
BRANCH  15  16
ATOM     16  C   UNL     1      -8.553   2.779 122.482  0.00  0.00    +0.000 C 
BRANCH  16  17
ATOM     17  C   UNL     1      -7.552   3.475 121.606  0.00  0.00    +0.000 A 
ATOM     18  C   UNL     1      -7.909   3.915 120.327  0.00  0.00    +0.000 A 
ATOM     19  C   UNL     1      -6.937   4.439 119.479  0.00  0.00    +0.000 A 
ATOM     20  C   UNL     1      -5.631   4.613 119.936  0.00  0.00    +0.000 A 
ATOM     21  C   UNL     1      -5.285   4.231 121.230  0.00  0.00    +0.000 A 
ATOM     22  C   UNL     1      -6.241   3.655 122.060  0.00  0.00    +0.000 A 
ENDBRANCH  16  17
ENDBRANCH  15  16
ENDBRANCH  12  15
ENDBRANCH  11  12
ENDBRANCH   5  10
BRANCH   1  23
ATOM     23  C   UNL     1      -8.279  -3.937 126.270  0.00  0.00    +0.000 C 
BRANCH  23  25
ATOM     24  C   UNL     1      -8.579  -3.282 128.659  0.00  0.00    +0.000 C 
ATOM     25  C   UNL     1      -9.049  -3.826 127.538  0.00  0.00    +0.000 C 
BRANCH  24  26
ATOM     26  C   UNL     1      -7.124  -3.025 128.836  0.00  0.00    +0.000 C 
BRANCH  26  27
ATOM     27  C   UNL     1      -6.943  -1.751 129.623  0.00  0.00    +0.000 C 
BRANCH  27  28
ATOM     28  C   UNL     1      -7.319  -0.539 128.786  0.00  0.00    +0.000 C 
BRANCH  28  30
ATOM     29  N   UNL     1      -6.139   0.622 127.008  0.00  0.00    +0.000 N 
ATOM     30  C   UNL     1      -6.061   0.129 128.287  0.00  0.00    +0.000 C 
ATOM     31  O   UNL     1      -5.039   0.228 128.971  0.00  0.00    +0.000 OA
ATOM     32  H   UNL     1      -6.994   0.523 126.475  0.00  0.00    +0.000 HD
BRANCH  29  34
ATOM     33  C   UNL     1      -5.187   2.782 126.299  0.00  0.00    +0.000 C 
ATOM     34  C   UNL     1      -4.989   1.287 126.433  0.00  0.00    +0.000 C 
ENDBRANCH  29  34
ENDBRANCH  28  30
ENDBRANCH  27  28
ENDBRANCH  26  27
ENDBRANCH  24  26
ENDBRANCH  23  25
ENDBRANCH   1  23
TORSDOF 15
ENDMDL
MODEL 4
REMARK VINA RESULT:      -7.3      2.230      2.934
REMARK  Name = Bimatoprost
REMARK  16 active torsions:
REMARK  status: ('A' for Active; 'I' for Inactive)
REMARK    1  A    between atoms: C_1  and  C_2
REMARK    2  A    between atoms: C_2  and  N_3
REMARK    3  A    between atoms: C_4  and  C_6
REMARK    4  A    between atoms: C_6  and  C_7
REMARK    5  A    between atoms: C_7  and  C_8
REMARK    6  A    between atoms: C_8  and  C_9
REMARK    7  A    between atoms: C_10  and  C_11
REMARK    8  A    between atoms: C_11  and  C_12
REMARK    9  A    between atoms: C_13  and  O_14
REMARK   10  A    between atoms: C_16  and  O_17
REMARK   11  A    between atoms: C_18  and  C_19
REMARK   12  A    between atoms: C_20  and  C_21
REMARK   13  A    between atoms: C_21  and  O_22
REMARK   14  A    between atoms: C_21  and  C_23
REMARK   15  A    between atoms: C_23  and  C_24
REMARK   16  A    between atoms: C_24  and  C_25
REMARK                            x       y       z     vdW  Elec       q    Type
REMARK                         _______ _______ _______ _____ _____    ______ ____
ROOT
ATOM      1  C   UNL     1      -7.806  -2.445 125.413  0.00  0.00    +0.000 C 
ATOM      2  C   UNL     1      -7.010  -2.426 124.079  0.00  0.00    +0.000 C 
ATOM      3  C   UNL     1      -8.018  -2.361 122.935  0.00  0.00    +0.000 C 
ATOM      4  C   UNL     1      -9.389  -2.297 123.593  0.00  0.00    +0.000 C 
ATOM      5  C   UNL     1      -9.137  -1.757 125.012  0.00  0.00    +0.000 C 
ENDROOT
BRANCH   2   6
ATOM      6  O   UNL     1      -6.109  -3.480 123.807  0.00  0.00    +0.000 OA
ATOM      7  H   UNL     1      -5.213  -3.101 123.746  0.00  0.00    +0.000 HD
ENDBRANCH   2   6
BRANCH   4   8
ATOM      8  O   UNL     1      -9.990  -3.592 123.621  0.00  0.00    +0.000 OA
ATOM      9  H   UNL     1      -9.713  -4.103 122.841  0.00  0.00    +0.000 HD
ENDBRANCH   4   8
BRANCH   5  10
ATOM     10  C   UNL     1      -9.025  -0.258 125.017  0.00  0.00    +0.000 C 
ATOM     11  C   UNL     1      -8.381   0.407 125.985  0.00  0.00    +0.000 C 
BRANCH  11  12
ATOM     12  C   UNL     1      -8.256   1.894 125.991  0.00  0.00    +0.000 C 
BRANCH  12  13
ATOM     13  O   UNL     1      -6.963   2.236 126.473  0.00  0.00    +0.000 OA
ATOM     14  H   UNL     1      -6.994   3.171 126.736  0.00  0.00    +0.000 HD
ENDBRANCH  12  13
BRANCH  12  15
ATOM     15  C   UNL     1      -8.460   2.453 124.591  0.00  0.00    +0.000 C 
BRANCH  15  16
ATOM     16  C   UNL     1      -7.142   2.454 123.830  0.00  0.00    +0.000 C 
BRANCH  16  17
ATOM     17  C   UNL     1      -7.299   3.094 122.482  0.00  0.00    +0.000 A 
ATOM     18  C   UNL     1      -8.568   3.271 121.921  0.00  0.00    +0.000 A 
ATOM     19  C   UNL     1      -8.688   3.745 120.617  0.00  0.00    +0.000 A 
ATOM     20  C   UNL     1      -7.552   4.132 119.907  0.00  0.00    +0.000 A 
ATOM     21  C   UNL     1      -6.290   4.013 120.484  0.00  0.00    +0.000 A 
ATOM     22  C   UNL     1      -6.163   3.487 121.765  0.00  0.00    +0.000 A 
ENDBRANCH  16  17
ENDBRANCH  15  16
ENDBRANCH  12  15
ENDBRANCH  11  12
ENDBRANCH   5  10
BRANCH   1  23
ATOM     23  C   UNL     1      -8.117  -3.751 126.161  0.00  0.00    +0.000 C 
BRANCH  23  25
ATOM     24  C   UNL     1      -8.800  -3.390 128.535  0.00  0.00    +0.000 C 
ATOM     25  C   UNL     1      -9.111  -3.632 127.263  0.00  0.00    +0.000 C 
BRANCH  24  26
ATOM     26  C   UNL     1      -7.402  -3.536 129.024  0.00  0.00    +0.000 C 
BRANCH  26  27
ATOM     27  C   UNL     1      -7.042  -2.323 129.846  0.00  0.00    +0.000 C 
BRANCH  27  28
ATOM     28  C   UNL     1      -6.711  -1.139 128.951  0.00  0.00    +0.000 C 
BRANCH  28  30
ATOM     29  N   UNL     1      -8.192  -0.090 130.566  0.00  0.00    +0.000 N 
ATOM     30  C   UNL     1      -7.278   0.119 129.563  0.00  0.00    +0.000 C 
ATOM     31  O   UNL     1      -6.949   1.250 129.195  0.00  0.00    +0.000 OA
ATOM     32  H   UNL     1      -8.439  -1.032 130.843  0.00  0.00    +0.000 HD
BRANCH  29  34
ATOM     33  C   UNL     1      -8.175   1.335 132.577  0.00  0.00    +0.000 C 
ATOM     34  C   UNL     1      -8.794   1.049 131.226  0.00  0.00    +0.000 C 
ENDBRANCH  29  34
ENDBRANCH  28  30
ENDBRANCH  27  28
ENDBRANCH  26  27
ENDBRANCH  24  26
ENDBRANCH  23  25
ENDBRANCH   1  23
TORSDOF 15
ENDMDL
MODEL 5
REMARK VINA RESULT:      -7.2      3.579      5.798
REMARK  Name = Bimatoprost
REMARK  16 active torsions:
REMARK  status: ('A' for Active; 'I' for Inactive)
REMARK    1  A    between atoms: C_1  and  C_2
REMARK    2  A    between atoms: C_2  and  N_3
REMARK    3  A    between atoms: C_4  and  C_6
REMARK    4  A    between atoms: C_6  and  C_7
REMARK    5  A    between atoms: C_7  and  C_8
REMARK    6  A    between atoms: C_8  and  C_9
REMARK    7  A    between atoms: C_10  and  C_11
REMARK    8  A    between atoms: C_11  and  C_12
REMARK    9  A    between atoms: C_13  and  O_14
REMARK   10  A    between atoms: C_16  and  O_17
REMARK   11  A    between atoms: C_18  and  C_19
REMARK   12  A    between atoms: C_20  and  C_21
REMARK   13  A    between atoms: C_21  and  O_22
REMARK   14  A    between atoms: C_21  and  C_23
REMARK   15  A    between atoms: C_23  and  C_24
REMARK   16  A    between atoms: C_24  and  C_25
REMARK                            x       y       z     vdW  Elec       q    Type
REMARK                         _______ _______ _______ _____ _____    ______ ____
ROOT
ATOM      1  C   UNL     1      -6.572  -2.953 124.922  0.00  0.00    +0.000 C 
ATOM      2  C   UNL     1      -5.279  -3.252 124.115  0.00  0.00    +0.000 C 
ATOM      3  C   UNL     1      -5.311  -2.399 122.850  0.00  0.00    +0.000 C 
ATOM      4  C   UNL     1      -6.588  -1.576 122.935  0.00  0.00    +0.000 C 
ATOM      5  C   UNL     1      -6.945  -1.529 124.432  0.00  0.00    +0.000 C 
ENDROOT
BRANCH   2   6
ATOM      6  O   UNL     1      -5.004  -4.585 123.736  0.00  0.00    +0.000 OA
ATOM      7  H   UNL     1      -5.833  -4.981 123.409  0.00  0.00    +0.000 HD
ENDBRANCH   2   6
BRANCH   4   8
ATOM      8  O   UNL     1      -7.626  -2.183 122.166  0.00  0.00    +0.000 OA
ATOM      9  H   UNL     1      -8.487  -2.031 122.591  0.00  0.00    +0.000 HD
ENDBRANCH   4   8
BRANCH   5  10
ATOM     10  C   UNL     1      -6.166  -0.461 125.149  0.00  0.00    +0.000 C 
ATOM     11  C   UNL     1      -6.148  -0.365 126.485  0.00  0.00    +0.000 C 
BRANCH  11  12
ATOM     12  C   UNL     1      -5.367   0.685 127.203  0.00  0.00    +0.000 C 
BRANCH  12  13
ATOM     13  O   UNL     1      -5.100   1.748 126.298  0.00  0.00    +0.000 OA
ATOM     14  H   UNL     1      -4.345   1.474 125.750  0.00  0.00    +0.000 HD
ENDBRANCH  12  13
BRANCH  12  15
ATOM     15  C   UNL     1      -6.145   1.201 128.405  0.00  0.00    +0.000 C 
BRANCH  15  16
ATOM     16  C   UNL     1      -7.567   0.660 128.380  0.00  0.00    +0.000 C 
BRANCH  16  17
ATOM     17  C   UNL     1      -8.311   1.047 129.624  0.00  0.00    +0.000 A 
ATOM     18  C   UNL     1      -8.884   2.317 129.745  0.00  0.00    +0.000 A 
ATOM     19  C   UNL     1      -9.456   2.706 130.954  0.00  0.00    +0.000 A 
ATOM     20  C   UNL     1      -9.543   1.800 132.009  0.00  0.00    +0.000 A 
ATOM     21  C   UNL     1      -9.027   0.513 131.873  0.00  0.00    +0.000 A 
ATOM     22  C   UNL     1      -8.404   0.141 130.686  0.00  0.00    +0.000 A 
ENDBRANCH  16  17
ENDBRANCH  15  16
ENDBRANCH  12  15
ENDBRANCH  11  12
ENDBRANCH   5  10
BRANCH   1  23
ATOM     23  C   UNL     1      -7.814  -3.855 124.840  0.00  0.00    +0.000 C 
BRANCH  23  25
ATOM     24  C   UNL     1      -9.453  -3.143 126.584  0.00  0.00    +0.000 C 
ATOM     25  C   UNL     1      -9.084  -3.235 125.307  0.00  0.00    +0.000 C 
BRANCH  24  26
ATOM     26  C   UNL     1      -8.772  -3.944 127.638  0.00  0.00    +0.000 C 
BRANCH  26  27
ATOM     27  C   UNL     1      -8.340  -3.022 128.751  0.00  0.00    +0.000 C 
BRANCH  27  28
ATOM     28  C   UNL     1      -6.827  -3.022 128.898  0.00  0.00    +0.000 C 
BRANCH  28  30
ATOM     29  N   UNL     1      -6.635  -2.809 131.310  0.00  0.00    +0.000 N 
ATOM     30  C   UNL     1      -6.457  -3.634 130.228  0.00  0.00    +0.000 C 
ATOM     31  O   UNL     1      -6.029  -4.785 130.339  0.00  0.00    +0.000 OA
ATOM     32  H   UNL     1      -6.989  -1.869 131.183  0.00  0.00    +0.000 HD
BRANCH  29  34
ATOM     33  C   UNL     1      -7.539  -3.431 133.517  0.00  0.00    +0.000 C 
ATOM     34  C   UNL     1      -6.317  -3.298 132.635  0.00  0.00    +0.000 C 
ENDBRANCH  29  34
ENDBRANCH  28  30
ENDBRANCH  27  28
ENDBRANCH  26  27
ENDBRANCH  24  26
ENDBRANCH  23  25
ENDBRANCH   1  23
TORSDOF 15
ENDMDL
MODEL 6
REMARK VINA RESULT:      -7.2      4.550      8.178
REMARK  Name = Bimatoprost
REMARK  16 active torsions:
REMARK  status: ('A' for Active; 'I' for Inactive)
REMARK    1  A    between atoms: C_1  and  C_2
REMARK    2  A    between atoms: C_2  and  N_3
REMARK    3  A    between atoms: C_4  and  C_6
REMARK    4  A    between atoms: C_6  and  C_7
REMARK    5  A    between atoms: C_7  and  C_8
REMARK    6  A    between atoms: C_8  and  C_9
REMARK    7  A    between atoms: C_10  and  C_11
REMARK    8  A    between atoms: C_11  and  C_12
REMARK    9  A    between atoms: C_13  and  O_14
REMARK   10  A    between atoms: C_16  and  O_17
REMARK   11  A    between atoms: C_18  and  C_19
REMARK   12  A    between atoms: C_20  and  C_21
REMARK   13  A    between atoms: C_21  and  O_22
REMARK   14  A    between atoms: C_21  and  C_23
REMARK   15  A    between atoms: C_23  and  C_24
REMARK   16  A    between atoms: C_24  and  C_25
REMARK                            x       y       z     vdW  Elec       q    Type
REMARK                         _______ _______ _______ _____ _____    ______ ____
ROOT
ATOM      1  C   UNL     1      -5.410   3.049 126.209  0.00  0.00    +0.000 C 
ATOM      2  C   UNL     1      -6.481   3.844 127.006  0.00  0.00    +0.000 C 
ATOM      3  C   UNL     1      -7.468   4.431 126.001  0.00  0.00    +0.000 C 
ATOM      4  C   UNL     1      -7.006   3.949 124.634  0.00  0.00    +0.000 C 
ATOM      5  C   UNL     1      -6.169   2.686 124.906  0.00  0.00    +0.000 C 
ENDROOT
BRANCH   2   6
ATOM      6  O   UNL     1      -6.061   4.884 127.864  0.00  0.00    +0.000 OA
ATOM      7  H   UNL     1      -5.239   5.261 127.499  0.00  0.00    +0.000 HD
ENDBRANCH   2   6
BRANCH   4   8
ATOM      8  O   UNL     1      -6.237   4.960 123.982  0.00  0.00    +0.000 OA
ATOM      9  H   UNL     1      -5.479   4.558 123.525  0.00  0.00    +0.000 HD
ENDBRANCH   4   8
BRANCH   5  10
ATOM     10  C   UNL     1      -7.043   1.475 125.078  0.00  0.00    +0.000 C 
ATOM     11  C   UNL     1      -8.109   1.248 124.299  0.00  0.00    +0.000 C 
BRANCH  11  12
ATOM     12  C   UNL     1      -8.974   0.042 124.455  0.00  0.00    +0.000 C 
BRANCH  12  13
ATOM     13  O   UNL     1     -10.169   0.427 125.123  0.00  0.00    +0.000 OA
ATOM     14  H   UNL     1     -10.209   1.398 125.101  0.00  0.00    +0.000 HD
ENDBRANCH  12  13
BRANCH  12  15
ATOM     15  C   UNL     1      -9.302  -0.561 123.097  0.00  0.00    +0.000 C 
BRANCH  15  16
ATOM     16  C   UNL     1      -9.139  -2.074 123.144  0.00  0.00    +0.000 C 
BRANCH  16  17
ATOM     17  C   UNL     1      -7.699  -2.454 123.332  0.00  0.00    +0.000 A 
ATOM     18  C   UNL     1      -6.698  -1.859 122.556  0.00  0.00    +0.000 A 
ATOM     19  C   UNL     1      -5.386  -2.317 122.650  0.00  0.00    +0.000 A 
ATOM     20  C   UNL     1      -5.054  -3.299 123.582  0.00  0.00    +0.000 A 
ATOM     21  C   UNL     1      -6.038  -3.852 124.399  0.00  0.00    +0.000 A 
ATOM     22  C   UNL     1      -7.359  -3.437 124.267  0.00  0.00    +0.000 A 
ENDBRANCH  16  17
ENDBRANCH  15  16
ENDBRANCH  12  15
ENDBRANCH  11  12
ENDBRANCH   5  10
BRANCH   1  23
ATOM     23  C   UNL     1      -4.045   3.655 125.846  0.00  0.00    +0.000 C 
BRANCH  23  25
ATOM     24  C   UNL     1      -2.295   3.742 127.624  0.00  0.00    +0.000 C 
ATOM     25  C   UNL     1      -2.885   3.116 126.608  0.00  0.00    +0.000 C 
BRANCH  24  26
ATOM     26  C   UNL     1      -2.542   5.187 127.881  0.00  0.00    +0.000 C 
BRANCH  26  27
ATOM     27  C   UNL     1      -2.788   5.387 129.357  0.00  0.00    +0.000 C 
BRANCH  27  28
ATOM     28  C   UNL     1      -3.193   6.824 129.649  0.00  0.00    +0.000 C 
BRANCH  28  30
ATOM     29  N   UNL     1      -5.394   6.227 130.484  0.00  0.00    +0.000 N 
ATOM     30  C   UNL     1      -4.199   6.836 130.774  0.00  0.00    +0.000 C 
ATOM     31  O   UNL     1      -3.971   7.352 131.871  0.00  0.00    +0.000 OA
ATOM     32  H   UNL     1      -5.548   5.814 129.572  0.00  0.00    +0.000 HD
BRANCH  29  34
ATOM     33  C   UNL     1      -7.703   6.868 131.059  0.00  0.00    +0.000 C 
ATOM     34  C   UNL     1      -6.429   6.177 131.494  0.00  0.00    +0.000 C 
ENDBRANCH  29  34
ENDBRANCH  28  30
ENDBRANCH  27  28
ENDBRANCH  26  27
ENDBRANCH  24  26
ENDBRANCH  23  25
ENDBRANCH   1  23
TORSDOF 15
ENDMDL
MODEL 7
REMARK VINA RESULT:      -7.2      5.230      8.549
REMARK  Name = Bimatoprost
REMARK  16 active torsions:
REMARK  status: ('A' for Active; 'I' for Inactive)
REMARK    1  A    between atoms: C_1  and  C_2
REMARK    2  A    between atoms: C_2  and  N_3
REMARK    3  A    between atoms: C_4  and  C_6
REMARK    4  A    between atoms: C_6  and  C_7
REMARK    5  A    between atoms: C_7  and  C_8
REMARK    6  A    between atoms: C_8  and  C_9
REMARK    7  A    between atoms: C_10  and  C_11
REMARK    8  A    between atoms: C_11  and  C_12
REMARK    9  A    between atoms: C_13  and  O_14
REMARK   10  A    between atoms: C_16  and  O_17
REMARK   11  A    between atoms: C_18  and  C_19
REMARK   12  A    between atoms: C_20  and  C_21
REMARK   13  A    between atoms: C_21  and  O_22
REMARK   14  A    between atoms: C_21  and  C_23
REMARK   15  A    between atoms: C_23  and  C_24
REMARK   16  A    between atoms: C_24  and  C_25
REMARK                            x       y       z     vdW  Elec       q    Type
REMARK                         _______ _______ _______ _____ _____    ______ ____
ROOT
ATOM      1  C   UNL     1      -8.209   1.517 126.995  0.00  0.00    +0.000 C 
ATOM      2  C   UNL     1      -8.647   1.598 125.507  0.00  0.00    +0.000 C 
ATOM      3  C   UNL     1      -7.393   1.483 124.645  0.00  0.00    +0.000 C 
ATOM      4  C   UNL     1      -6.237   1.292 125.617  0.00  0.00    +0.000 C 
ATOM      5  C   UNL     1      -6.872   0.736 126.904  0.00  0.00    +0.000 C 
ENDROOT
BRANCH   2   6
ATOM      6  O   UNL     1      -9.375   2.727 125.070  0.00  0.00    +0.000 OA
ATOM      7  H   UNL     1      -8.943   3.522 125.435  0.00  0.00    +0.000 HD
ENDBRANCH   2   6
BRANCH   4   8
ATOM      8  O   UNL     1      -5.572   2.533 125.851  0.00  0.00    +0.000 OA
ATOM      9  H   UNL     1      -4.743   2.379 126.335  0.00  0.00    +0.000 HD
ENDBRANCH   4   8
BRANCH   5  10
ATOM     10  C   UNL     1      -7.088  -0.749 126.813  0.00  0.00    +0.000 C 
ATOM     11  C   UNL     1      -7.866  -1.412 127.679  0.00  0.00    +0.000 C 
BRANCH  11  12
ATOM     12  C   UNL     1      -8.094  -2.884 127.587  0.00  0.00    +0.000 C 
BRANCH  12  13
ATOM     13  O   UNL     1      -8.653  -3.332 128.815  0.00  0.00    +0.000 OA
ATOM     14  H   UNL     1      -7.918  -3.444 129.441  0.00  0.00    +0.000 HD
ENDBRANCH  12  13
BRANCH  12  15
ATOM     15  C   UNL     1      -9.031  -3.210 126.433  0.00  0.00    +0.000 C 
BRANCH  15  16
ATOM     16  C   UNL     1      -8.342  -4.138 125.445  0.00  0.00    +0.000 C 
BRANCH  16  17
ATOM     17  C   UNL     1      -7.630  -3.357 124.379  0.00  0.00    +0.000 A 
ATOM     18  C   UNL     1      -6.235  -3.385 124.287  0.00  0.00    +0.000 A 
ATOM     19  C   UNL     1      -5.584  -2.554 123.379  0.00  0.00    +0.000 A 
ATOM     20  C   UNL     1      -6.325  -1.765 122.499  0.00  0.00    +0.000 A 
ATOM     21  C   UNL     1      -7.717  -1.778 122.548  0.00  0.00    +0.000 A 
ATOM     22  C   UNL     1      -8.368  -2.565 123.492  0.00  0.00    +0.000 A 
ENDBRANCH  16  17
ENDBRANCH  15  16
ENDBRANCH  12  15
ENDBRANCH  11  12
ENDBRANCH   5  10
BRANCH   1  23
ATOM     23  C   UNL     1      -8.002   2.773 127.856  0.00  0.00    +0.000 C 
BRANCH  23  25
ATOM     24  C   UNL     1      -9.025   3.577 129.987  0.00  0.00    +0.000 C 
ATOM     25  C   UNL     1      -8.392   2.637 129.286  0.00  0.00    +0.000 C 
BRANCH  24  26
ATOM     26  C   UNL     1      -9.112   4.977 129.489  0.00  0.00    +0.000 C 
BRANCH  26  27
ATOM     27  C   UNL     1      -9.738   5.838 130.558  0.00  0.00    +0.000 C 
BRANCH  27  28
ATOM     28  C   UNL     1     -11.244   5.637 130.602  0.00  0.00    +0.000 C 
BRANCH  28  30
ATOM     29  N   UNL     1     -11.972   7.863 129.957  0.00  0.00    +0.000 N 
ATOM     30  C   UNL     1     -11.896   6.544 129.586  0.00  0.00    +0.000 C 
ATOM     31  O   UNL     1     -12.328   6.137 128.505  0.00  0.00    +0.000 OA
ATOM     32  H   UNL     1     -11.608   8.163 130.853  0.00  0.00    +0.000 HD
BRANCH  29  34
ATOM     33  C   UNL     1     -13.080  10.056 129.767  0.00  0.00    +0.000 C 
ATOM     34  C   UNL     1     -12.574   8.821 129.054  0.00  0.00    +0.000 C 
ENDBRANCH  29  34
ENDBRANCH  28  30
ENDBRANCH  27  28
ENDBRANCH  26  27
ENDBRANCH  24  26
ENDBRANCH  23  25
ENDBRANCH   1  23
TORSDOF 15
ENDMDL
MODEL 8
REMARK VINA RESULT:      -7.2      3.275      5.346
REMARK  Name = Bimatoprost
REMARK  16 active torsions:
REMARK  status: ('A' for Active; 'I' for Inactive)
REMARK    1  A    between atoms: C_1  and  C_2
REMARK    2  A    between atoms: C_2  and  N_3
REMARK    3  A    between atoms: C_4  and  C_6
REMARK    4  A    between atoms: C_6  and  C_7
REMARK    5  A    between atoms: C_7  and  C_8
REMARK    6  A    between atoms: C_8  and  C_9
REMARK    7  A    between atoms: C_10  and  C_11
REMARK    8  A    between atoms: C_11  and  C_12
REMARK    9  A    between atoms: C_13  and  O_14
REMARK   10  A    between atoms: C_16  and  O_17
REMARK   11  A    between atoms: C_18  and  C_19
REMARK   12  A    between atoms: C_20  and  C_21
REMARK   13  A    between atoms: C_21  and  O_22
REMARK   14  A    between atoms: C_21  and  C_23
REMARK   15  A    between atoms: C_23  and  C_24
REMARK   16  A    between atoms: C_24  and  C_25
REMARK                            x       y       z     vdW  Elec       q    Type
REMARK                         _______ _______ _______ _____ _____    ______ ____
ROOT
ATOM      1  C   UNL     1      -6.370   1.123 127.583  0.00  0.00    +0.000 C 
ATOM      2  C   UNL     1      -6.382   2.612 128.027  0.00  0.00    +0.000 C 
ATOM      3  C   UNL     1      -5.409   3.374 127.131  0.00  0.00    +0.000 C 
ATOM      4  C   UNL     1      -4.865   2.351 126.144  0.00  0.00    +0.000 C 
ATOM      5  C   UNL     1      -5.913   1.224 126.104  0.00  0.00    +0.000 C 
ENDROOT
BRANCH   2   6
ATOM      6  O   UNL     1      -6.077   2.926 129.370  0.00  0.00    +0.000 OA
ATOM      7  H   UNL     1      -6.718   3.594 129.675  0.00  0.00    +0.000 HD
ENDBRANCH   2   6
BRANCH   4   8
ATOM      8  O   UNL     1      -3.591   1.871 126.574  0.00  0.00    +0.000 OA
ATOM      9  H   UNL     1      -3.691   1.345 127.385  0.00  0.00    +0.000 HD
ENDBRANCH   4   8
BRANCH   5  10
ATOM     10  C   UNL     1      -7.049   1.563 125.181  0.00  0.00    +0.000 C 
ATOM     11  C   UNL     1      -8.280   1.062 125.349  0.00  0.00    +0.000 C 
BRANCH  11  12
ATOM     12  C   UNL     1      -9.416   1.405 124.444  0.00  0.00    +0.000 C 
BRANCH  12  13
ATOM     13  O   UNL     1      -9.608   2.813 124.472  0.00  0.00    +0.000 OA
ATOM     14  H   UNL     1      -9.891   3.045 125.373  0.00  0.00    +0.000 HD
ENDBRANCH  12  13
BRANCH  12  15
ATOM     15  C   UNL     1      -9.128   0.941 123.024  0.00  0.00    +0.000 C 
BRANCH  15  16
ATOM     16  C   UNL     1      -9.722  -0.440 122.793  0.00  0.00    +0.000 C 
BRANCH  16  17
ATOM     17  C   UNL     1      -8.753  -1.515 123.190  0.00  0.00    +0.000 A 
ATOM     18  C   UNL     1      -9.196  -2.663 123.856  0.00  0.00    +0.000 A 
ATOM     19  C   UNL     1      -8.271  -3.587 124.333  0.00  0.00    +0.000 A 
ATOM     20  C   UNL     1      -6.913  -3.418 124.065  0.00  0.00    +0.000 A 
ATOM     21  C   UNL     1      -6.472  -2.306 123.351  0.00  0.00    +0.000 A 
ATOM     22  C   UNL     1      -7.390  -1.353 122.922  0.00  0.00    +0.000 A 
ENDBRANCH  16  17
ENDBRANCH  15  16
ENDBRANCH  12  15
ENDBRANCH  11  12
ENDBRANCH   5  10
BRANCH   1  23
ATOM     23  C   UNL     1      -5.521   0.062 128.302  0.00  0.00    +0.000 C 
BRANCH  23  25
ATOM     24  C   UNL     1      -6.264  -2.008 127.122  0.00  0.00    +0.000 C 
ATOM     25  C   UNL     1      -5.295  -1.196 127.541  0.00  0.00    +0.000 C 
BRANCH  24  26
ATOM     26  C   UNL     1      -7.647  -1.893 127.661  0.00  0.00    +0.000 C 
BRANCH  26  27
ATOM     27  C   UNL     1      -8.071  -3.232 128.212  0.00  0.00    +0.000 C 
BRANCH  27  28
ATOM     28  C   UNL     1      -8.225  -3.171 129.724  0.00  0.00    +0.000 C 
BRANCH  28  30
ATOM     29  N   UNL     1      -6.004  -4.084 130.087  0.00  0.00    +0.000 N 
ATOM     30  C   UNL     1      -6.860  -3.046 130.357  0.00  0.00    +0.000 C 
ATOM     31  O   UNL     1      -6.534  -2.088 131.062  0.00  0.00    +0.000 OA
ATOM     32  H   UNL     1      -6.304  -4.855 129.503  0.00  0.00    +0.000 HD
BRANCH  29  34
ATOM     33  C   UNL     1      -3.617  -3.693 129.615  0.00  0.00    +0.000 C 
ATOM     34  C   UNL     1      -4.666  -4.063 130.640  0.00  0.00    +0.000 C 
ENDBRANCH  29  34
ENDBRANCH  28  30
ENDBRANCH  27  28
ENDBRANCH  26  27
ENDBRANCH  24  26
ENDBRANCH  23  25
ENDBRANCH   1  23
TORSDOF 15
ENDMDL
MODEL 9
REMARK VINA RESULT:      -7.1      4.689      7.457
REMARK  Name = Bimatoprost
REMARK  16 active torsions:
REMARK  status: ('A' for Active; 'I' for Inactive)
REMARK    1  A    between atoms: C_1  and  C_2
REMARK    2  A    between atoms: C_2  and  N_3
REMARK    3  A    between atoms: C_4  and  C_6
REMARK    4  A    between atoms: C_6  and  C_7
REMARK    5  A    between atoms: C_7  and  C_8
REMARK    6  A    between atoms: C_8  and  C_9
REMARK    7  A    between atoms: C_10  and  C_11
REMARK    8  A    between atoms: C_11  and  C_12
REMARK    9  A    between atoms: C_13  and  O_14
REMARK   10  A    between atoms: C_16  and  O_17
REMARK   11  A    between atoms: C_18  and  C_19
REMARK   12  A    between atoms: C_20  and  C_21
REMARK   13  A    between atoms: C_21  and  O_22
REMARK   14  A    between atoms: C_21  and  C_23
REMARK   15  A    between atoms: C_23  and  C_24
REMARK   16  A    between atoms: C_24  and  C_25
REMARK                            x       y       z     vdW  Elec       q    Type
REMARK                         _______ _______ _______ _____ _____    ______ ____
ROOT
ATOM      1  C   UNL     1      -6.765   0.209 128.311  0.00  0.00    +0.000 C 
ATOM      2  C   UNL     1      -5.666  -0.710 127.708  0.00  0.00    +0.000 C 
ATOM      3  C   UNL     1      -6.322  -2.036 127.333  0.00  0.00    +0.000 C 
ATOM      4  C   UNL     1      -7.797  -1.881 127.672  0.00  0.00    +0.000 C 
ATOM      5  C   UNL     1      -8.059  -0.364 127.676  0.00  0.00    +0.000 C 
ENDROOT
BRANCH   2   6
ATOM      6  O   UNL     1      -4.516  -0.993 128.477  0.00  0.00    +0.000 OA
ATOM      7  H   UNL     1      -3.917  -1.535 127.932  0.00  0.00    +0.000 HD
ENDBRANCH   2   6
BRANCH   4   8
ATOM      8  O   UNL     1      -8.082  -2.469 128.942  0.00  0.00    +0.000 OA
ATOM      9  H   UNL     1      -9.011  -2.309 129.180  0.00  0.00    +0.000 HD
ENDBRANCH   4   8
BRANCH   5  10
ATOM     10  C   UNL     1      -8.287   0.157 126.285  0.00  0.00    +0.000 C 
ATOM     11  C   UNL     1      -9.503   0.504 125.842  0.00  0.00    +0.000 C 
BRANCH  11  12
ATOM     12  C   UNL     1      -9.735   1.034 124.466  0.00  0.00    +0.000 C 
BRANCH  12  13
ATOM     13  O   UNL     1      -9.720   2.454 124.521  0.00  0.00    +0.000 OA
ATOM     14  H   UNL     1     -10.315   2.774 123.821  0.00  0.00    +0.000 HD
ENDBRANCH  12  13
BRANCH  12  15
ATOM     15  C   UNL     1      -8.661   0.533 123.512  0.00  0.00    +0.000 C 
BRANCH  15  16
ATOM     16  C   UNL     1      -9.049  -0.829 122.956  0.00  0.00    +0.000 C 
BRANCH  16  17
ATOM     17  C   UNL     1      -8.017  -1.864 123.298  0.00  0.00    +0.000 A 
ATOM     18  C   UNL     1      -8.372  -3.019 124.002  0.00  0.00    +0.000 A 
ATOM     19  C   UNL     1      -7.382  -3.903 124.425  0.00  0.00    +0.000 A 
ATOM     20  C   UNL     1      -6.052  -3.687 124.066  0.00  0.00    +0.000 A 
ATOM     21  C   UNL     1      -5.702  -2.568 123.314  0.00  0.00    +0.000 A 
ATOM     22  C   UNL     1      -6.681  -1.654 122.938  0.00  0.00    +0.000 A 
ENDBRANCH  16  17
ENDBRANCH  15  16
ENDBRANCH  12  15
ENDBRANCH  11  12
ENDBRANCH   5  10
BRANCH   1  23
ATOM     23  C   UNL     1      -6.968   0.353 129.828  0.00  0.00    +0.000 C 
BRANCH  23  25
ATOM     24  C   UNL     1      -8.681   2.139 130.155  0.00  0.00    +0.000 C 
ATOM     25  C   UNL     1      -8.302   0.866 130.246  0.00  0.00    +0.000 C 
BRANCH  24  26
ATOM     26  C   UNL     1      -7.686   3.221 129.924  0.00  0.00    +0.000 C 
BRANCH  26  27
ATOM     27  C   UNL     1      -8.371   4.557 130.074  0.00  0.00    +0.000 C 
BRANCH  27  28
ATOM     28  C   UNL     1      -9.713   4.402 130.771  0.00  0.00    +0.000 C 
BRANCH  28  30
ATOM     29  N   UNL     1     -10.280   6.562 129.816  0.00  0.00    +0.000 N 
ATOM     30  C   UNL     1     -10.727   5.296 130.099  0.00  0.00    +0.000 C 
ATOM     31  O   UNL     1     -11.870   4.923 129.824  0.00  0.00    +0.000 OA
ATOM     32  H   UNL     1      -9.335   6.835 130.056  0.00  0.00    +0.000 HD
BRANCH  29  34
ATOM     33  C   UNL     1     -10.440   8.458 128.249  0.00  0.00    +0.000 C 
ATOM     34  C   UNL     1     -11.170   7.501 129.166  0.00  0.00    +0.000 C 
ENDBRANCH  29  34
ENDBRANCH  28  30
ENDBRANCH  27  28
ENDBRANCH  26  27
ENDBRANCH  24  26
ENDBRANCH  23  25
ENDBRANCH   1  23
TORSDOF 15
ENDMDL
