MODEL 1
REMARK VINA RESULT:      -8.8      0.000      0.000
REMARK  Name = Binimetinib
REMARK  8 active torsions:
REMARK  status: ('A' for Active; 'I' for Inactive)
REMARK    1  A    between atoms: C_1  and  N_2
REMARK    2  A    between atoms: C_8  and  N_9
REMARK    3  A    between atoms: N_9  and  C_10
REMARK    4  A    between atoms: C_18  and  C_21
REMARK    5  A    between atoms: N_23  and  O_24
REMARK    6  A    between atoms: O_24  and  C_25
REMARK    7  A    between atoms: C_25  and  C_26
REMARK    8  A    between atoms: C_26  and  O_27
REMARK                            x       y       z     vdW  Elec       q    Type
REMARK                         _______ _______ _______ _____ _____    ______ ____
ROOT
ATOM      1  C   UNL     1     -11.617   6.178 131.718  0.00  0.00    +0.000 C 
ATOM      2  N   UNL     1     -10.361   6.627 131.168  0.00  0.00    +0.000 N 
ATOM      3  C   UNL     1     -10.150   7.333 130.024  0.00  0.00    +0.000 A 
ATOM      4  N   UNL     1      -8.867   7.582 129.838  0.00  0.00    +0.000 NA
ATOM      5  C   UNL     1      -8.202   6.976 130.890  0.00  0.00    +0.000 A 
ATOM      6  C   UNL     1      -6.821   6.878 131.223  0.00  0.00    +0.000 A 
ATOM      7  F   UNL     1      -5.901   7.494 130.460  0.00  0.00    +0.000 F 
ATOM      8  C   UNL     1      -6.398   6.164 132.379  0.00  0.00    +0.000 A 
ATOM      9  C   UNL     1      -7.448   5.582 133.174  0.00  0.00    +0.000 A 
ATOM     10  C   UNL     1      -8.808   5.679 132.866  0.00  0.00    +0.000 A 
ATOM     11  C   UNL     1      -9.137   6.372 131.723  0.00  0.00    +0.000 A 
ENDROOT
BRANCH   9  12
ATOM     12  C   UNL     1      -7.253   5.068 134.542  0.00  0.00    +0.000 C 
ATOM     13  O   UNL     1      -6.286   4.348 134.876  0.00  0.00    +0.000 OA
ATOM     14  N   UNL     1      -8.337   5.347 135.302  0.00  0.00    +0.000 N 
ATOM     15  H   UNL     1      -8.977   5.837 134.689  0.00  0.00    +0.000 HD
BRANCH  14  16
ATOM     16  O   UNL     1      -7.916   6.264 136.400  0.00  0.00    +0.000 OA
BRANCH  16  17
ATOM     17  C   UNL     1      -8.548   7.440 137.851  0.00  0.00    +0.000 C 
BRANCH  17  18
ATOM     18  C   UNL     1      -9.763   8.520 137.634  0.00  0.00    +0.000 C 
BRANCH  18  19
ATOM     19  O   UNL     1     -10.132   8.709 136.288  0.00  0.00    +0.000 OA
ATOM     20  H   UNL     1      -9.447   8.249 135.786  0.00  0.00    +0.000 HD
ENDBRANCH  18  19
ENDBRANCH  17  18
ENDBRANCH  16  17
ENDBRANCH  14  16
ENDBRANCH   9  12
BRANCH   8  21
ATOM     21  N   UNL     1      -4.957   6.057 132.663  0.00  0.00    +0.000 N 
ATOM     22  H   UNL     1      -4.733   6.270 133.638  0.00  0.00    +0.000 HD
BRANCH  21  23
ATOM     23  C   UNL     1      -3.847   5.267 131.950  0.00  0.00    +0.000 A 
ATOM     24  C   UNL     1      -4.368   3.597 131.403  0.00  0.00    +0.000 A 
ATOM     25  C   UNL     1      -3.990   3.054 129.683  0.00  0.00    +0.000 A 
ATOM     26  C   UNL     1      -3.032   4.152 128.549  0.00  0.00    +0.000 A 
ATOM     27 BR   UNL     1      -2.233   3.509 126.885  0.00  0.00    +0.000 Br
ATOM     28  C   UNL     1      -2.388   5.731 129.194  0.00  0.00    +0.000 A 
ATOM     29  C   UNL     1      -2.872   6.309 130.838  0.00  0.00    +0.000 A 
ATOM     30  F   UNL     1      -3.126   7.629 130.944  0.00  0.00    +0.000 F 
ENDBRANCH  21  23
ENDBRANCH   8  21
TORSDOF 7
ENDMDL
MODEL 2
REMARK VINA RESULT:      -8.2      7.766     10.316
REMARK  Name = Binimetinib
REMARK  8 active torsions:
REMARK  status: ('A' for Active; 'I' for Inactive)
REMARK    1  A    between atoms: C_1  and  N_2
REMARK    2  A    between atoms: C_8  and  N_9
REMARK    3  A    between atoms: N_9  and  C_10
REMARK    4  A    between atoms: C_18  and  C_21
REMARK    5  A    between atoms: N_23  and  O_24
REMARK    6  A    between atoms: O_24  and  C_25
REMARK    7  A    between atoms: C_25  and  C_26
REMARK    8  A    between atoms: C_26  and  O_27
REMARK                            x       y       z     vdW  Elec       q    Type
REMARK                         _______ _______ _______ _____ _____    ______ ____
ROOT
ATOM      1  C   UNL     1      -9.645  -2.935 123.392  0.00  0.00    +0.000 C 
ATOM      2  N   UNL     1      -8.372  -2.580 123.971  0.00  0.00    +0.000 N 
ATOM      3  C   UNL     1      -7.356  -3.408 124.335  0.00  0.00    +0.000 A 
ATOM      4  N   UNL     1      -6.330  -2.733 124.821  0.00  0.00    +0.000 NA
ATOM      5  C   UNL     1      -6.709  -1.401 124.810  0.00  0.00    +0.000 A 
ATOM      6  C   UNL     1      -6.046  -0.212 125.227  0.00  0.00    +0.000 A 
ATOM      7  F   UNL     1      -4.787  -0.274 125.696  0.00  0.00    +0.000 F 
ATOM      8  C   UNL     1      -6.684   1.055 125.120  0.00  0.00    +0.000 A 
ATOM      9  C   UNL     1      -8.008   1.043 124.554  0.00  0.00    +0.000 A 
ATOM     10  C   UNL     1      -8.667  -0.115 124.130  0.00  0.00    +0.000 A 
ATOM     11  C   UNL     1      -7.991  -1.303 124.281  0.00  0.00    +0.000 A 
ENDROOT
BRANCH   9  12
ATOM     12  C   UNL     1      -8.713   2.251 124.088  0.00  0.00    +0.000 C 
ATOM     13  O   UNL     1      -8.880   3.268 124.797  0.00  0.00    +0.000 OA
ATOM     14  N   UNL     1      -9.276   2.023 122.880  0.00  0.00    +0.000 N 
ATOM     15  H   UNL     1      -9.042   1.065 122.649  0.00  0.00    +0.000 HD
BRANCH  14  16
ATOM     16  O   UNL     1      -8.638   2.934 121.885  0.00  0.00    +0.000 OA
BRANCH  16  17
ATOM     17  C   UNL     1      -6.928   3.667 121.235  0.00  0.00    +0.000 C 
BRANCH  17  18
ATOM     18  C   UNL     1      -5.726   4.120 122.256  0.00  0.00    +0.000 C 
BRANCH  18  19
ATOM     19  O   UNL     1      -6.174   4.530 123.526  0.00  0.00    +0.000 OA
ATOM     20  H   UNL     1      -5.883   3.826 124.120  0.00  0.00    +0.000 HD
ENDBRANCH  18  19
ENDBRANCH  17  18
ENDBRANCH  16  17
ENDBRANCH  14  16
ENDBRANCH   9  12
BRANCH   8  21
ATOM     21  N   UNL     1      -5.975   2.254 125.599  0.00  0.00    +0.000 N 
ATOM     22  H   UNL     1      -6.338   3.116 125.185  0.00  0.00    +0.000 HD
BRANCH  21  23
ATOM     23  C   UNL     1      -5.166   2.498 126.884  0.00  0.00    +0.000 A 
ATOM     24  C   UNL     1      -3.357   2.605 126.605  0.00  0.00    +0.000 A 
ATOM     25  C   UNL     1      -2.411   3.994 127.361  0.00  0.00    +0.000 A 
ATOM     26  C   UNL     1      -3.264   5.220 128.446  0.00  0.00    +0.000 A 
ATOM     27 BR   UNL     1      -2.291   6.454 129.609  0.00  0.00    +0.000 Br
ATOM     28  C   UNL     1      -5.028   4.972 128.832  0.00  0.00    +0.000 A 
ATOM     29  C   UNL     1      -5.973   3.683 127.986  0.00  0.00    +0.000 A 
ATOM     30  F   UNL     1      -7.227   4.020 127.621  0.00  0.00    +0.000 F 
ENDBRANCH  21  23
ENDBRANCH   8  21
TORSDOF 7
ENDMDL
MODEL 3
REMARK VINA RESULT:      -7.9      8.004     10.384
REMARK  Name = Binimetinib
REMARK  8 active torsions:
REMARK  status: ('A' for Active; 'I' for Inactive)
REMARK    1  A    between atoms: C_1  and  N_2
REMARK    2  A    between atoms: C_8  and  N_9
REMARK    3  A    between atoms: N_9  and  C_10
REMARK    4  A    between atoms: C_18  and  C_21
REMARK    5  A    between atoms: N_23  and  O_24
REMARK    6  A    between atoms: O_24  and  C_25
REMARK    7  A    between atoms: C_25  and  C_26
REMARK    8  A    between atoms: C_26  and  O_27
REMARK                            x       y       z     vdW  Elec       q    Type
REMARK                         _______ _______ _______ _____ _____    ______ ____
ROOT
ATOM      1  C   UNL     1      -7.202   4.257 118.979  0.00  0.00    +0.000 C 
ATOM      2  N   UNL     1      -6.348   4.443 120.127  0.00  0.00    +0.000 N 
ATOM      3  C   UNL     1      -5.205   5.174 120.213  0.00  0.00    +0.000 A 
ATOM      4  N   UNL     1      -4.690   5.130 121.428  0.00  0.00    +0.000 NA
ATOM      5  C   UNL     1      -5.516   4.296 122.163  0.00  0.00    +0.000 A 
ATOM      6  C   UNL     1      -5.468   3.848 123.513  0.00  0.00    +0.000 A 
ATOM      7  F   UNL     1      -4.502   4.293 124.336  0.00  0.00    +0.000 F 
ATOM      8  C   UNL     1      -6.456   2.959 124.021  0.00  0.00    +0.000 A 
ATOM      9  C   UNL     1      -7.489   2.575 123.095  0.00  0.00    +0.000 A 
ATOM     10  C   UNL     1      -7.554   3.015 121.770  0.00  0.00    +0.000 A 
ATOM     11  C   UNL     1      -6.554   3.861 121.348  0.00  0.00    +0.000 A 
ENDROOT
BRANCH   9  12
ATOM     12  C   UNL     1      -8.745   1.914 123.493  0.00  0.00    +0.000 C 
ATOM     13  O   UNL     1      -9.204   0.902 122.918  0.00  0.00    +0.000 OA
ATOM     14  N   UNL     1      -9.382   2.652 124.431  0.00  0.00    +0.000 N 
ATOM     15  H   UNL     1      -8.792   3.462 124.583  0.00  0.00    +0.000 HD
BRANCH  14  16
ATOM     16  O   UNL     1      -9.450   1.855 125.689  0.00  0.00    +0.000 OA
BRANCH  16  17
ATOM     17  C   UNL     1      -8.935   0.160 126.555  0.00  0.00    +0.000 C 
BRANCH  17  18
ATOM     18  C   UNL     1      -8.917  -1.266 125.744  0.00  0.00    +0.000 C 
BRANCH  18  19
ATOM     19  O   UNL     1      -9.643  -1.251 124.537  0.00  0.00    +0.000 OA
ATOM     20  H   UNL     1      -9.358  -0.439 124.098  0.00  0.00    +0.000 HD
ENDBRANCH  18  19
ENDBRANCH  17  18
ENDBRANCH  16  17
ENDBRANCH  14  16
ENDBRANCH   9  12
BRANCH   8  21
ATOM     21  N   UNL     1      -6.346   2.492 125.414  0.00  0.00    +0.000 N 
ATOM     22  H   UNL     1      -7.239   2.530 125.912  0.00  0.00    +0.000 HD
BRANCH  21  23
ATOM     23  C   UNL     1      -5.323   1.560 126.085  0.00  0.00    +0.000 A 
ATOM     24  C   UNL     1      -5.125   1.858 127.882  0.00  0.00    +0.000 A 
ATOM     25  C   UNL     1      -5.160   0.426 129.042  0.00  0.00    +0.000 A 
ATOM     26  C   UNL     1      -5.320  -1.295 128.391  0.00  0.00    +0.000 A 
ATOM     27 BR   UNL     1      -4.949  -2.873 129.484  0.00  0.00    +0.000 Br
ATOM     28  C   UNL     1      -5.341  -1.552 126.587  0.00  0.00    +0.000 A 
ATOM     29  C   UNL     1      -5.433  -0.137 125.466  0.00  0.00    +0.000 A 
ATOM     30  F   UNL     1      -6.239  -0.288 124.395  0.00  0.00    +0.000 F 
ENDBRANCH  21  23
ENDBRANCH   8  21
TORSDOF 7
ENDMDL
MODEL 4
REMARK VINA RESULT:      -7.9      7.633     10.375
REMARK  Name = Binimetinib
REMARK  8 active torsions:
REMARK  status: ('A' for Active; 'I' for Inactive)
REMARK    1  A    between atoms: C_1  and  N_2
REMARK    2  A    between atoms: C_8  and  N_9
REMARK    3  A    between atoms: N_9  and  C_10
REMARK    4  A    between atoms: C_18  and  C_21
REMARK    5  A    between atoms: N_23  and  O_24
REMARK    6  A    between atoms: O_24  and  C_25
REMARK    7  A    between atoms: C_25  and  C_26
REMARK    8  A    between atoms: C_26  and  O_27
REMARK                            x       y       z     vdW  Elec       q    Type
REMARK                         _______ _______ _______ _____ _____    ______ ____
ROOT
ATOM      1  C   UNL     1      -8.906  -0.922 122.897  0.00  0.00    +0.000 C 
ATOM      2  N   UNL     1      -7.944  -0.775 123.963  0.00  0.00    +0.000 N 
ATOM      3  C   UNL     1      -7.548  -1.708 124.870  0.00  0.00    +0.000 A 
ATOM      4  N   UNL     1      -6.636  -1.227 125.695  0.00  0.00    +0.000 NA
ATOM      5  C   UNL     1      -6.456   0.098 125.334  0.00  0.00    +0.000 A 
ATOM      6  C   UNL     1      -5.630   1.131 125.861  0.00  0.00    +0.000 A 
ATOM      7  F   UNL     1      -4.790   0.867 126.877  0.00  0.00    +0.000 F 
ATOM      8  C   UNL     1      -5.651   2.439 125.301  0.00  0.00    +0.000 A 
ATOM      9  C   UNL     1      -6.534   2.626 124.179  0.00  0.00    +0.000 A 
ATOM     10  C   UNL     1      -7.343   1.618 123.645  0.00  0.00    +0.000 A 
ATOM     11  C   UNL     1      -7.278   0.385 124.251  0.00  0.00    +0.000 A 
ENDROOT
BRANCH   9  12
ATOM     12  C   UNL     1      -6.488   3.795 123.283  0.00  0.00    +0.000 C 
ATOM     13  O   UNL     1      -5.646   4.714 123.392  0.00  0.00    +0.000 OA
ATOM     14  N   UNL     1      -7.567   3.798 122.468  0.00  0.00    +0.000 N 
ATOM     15  H   UNL     1      -8.101   2.976 122.723  0.00  0.00    +0.000 HD
BRANCH  14  16
ATOM     16  O   UNL     1      -7.093   3.653 121.061  0.00  0.00    +0.000 OA
BRANCH  16  17
ATOM     17  C   UNL     1      -6.676   4.617 119.393  0.00  0.00    +0.000 C 
BRANCH  17  18
ATOM     18  C   UNL     1      -5.398   5.639 119.269  0.00  0.00    +0.000 C 
BRANCH  18  19
ATOM     19  O   UNL     1      -4.787   5.948 120.499  0.00  0.00    +0.000 OA
ATOM     20  H   UNL     1      -3.888   5.607 120.410  0.00  0.00    +0.000 HD
ENDBRANCH  18  19
ENDBRANCH  17  18
ENDBRANCH  16  17
ENDBRANCH  14  16
ENDBRANCH   9  12
BRANCH   8  21
ATOM     21  N   UNL     1      -4.807   3.486 125.903  0.00  0.00    +0.000 N 
ATOM     22  H   UNL     1      -4.860   4.372 125.394  0.00  0.00    +0.000 HD
BRANCH  21  23
ATOM     23  C   UNL     1      -4.269   3.645 127.335  0.00  0.00    +0.000 A 
ATOM     24  C   UNL     1      -2.640   4.481 127.419  0.00  0.00    +0.000 A 
ATOM     25  C   UNL     1      -2.394   5.854 128.624  0.00  0.00    +0.000 A 
ATOM     26  C   UNL     1      -3.751   6.332 129.781  0.00  0.00    +0.000 A 
ATOM     27 BR   UNL     1      -3.452   7.465 131.346  0.00  0.00    +0.000 Br
ATOM     28  C   UNL     1      -5.292   5.358 129.776  0.00  0.00    +0.000 A 
ATOM     29  C   UNL     1      -5.570   4.099 128.507  0.00  0.00    +0.000 A 
ATOM     30  F   UNL     1      -6.820   4.038 128.005  0.00  0.00    +0.000 F 
ENDBRANCH  21  23
ENDBRANCH   8  21
TORSDOF 7
ENDMDL
MODEL 5
REMARK VINA RESULT:      -7.8      7.756     10.164
REMARK  Name = Binimetinib
REMARK  8 active torsions:
REMARK  status: ('A' for Active; 'I' for Inactive)
REMARK    1  A    between atoms: C_1  and  N_2
REMARK    2  A    between atoms: C_8  and  N_9
REMARK    3  A    between atoms: N_9  and  C_10
REMARK    4  A    between atoms: C_18  and  C_21
REMARK    5  A    between atoms: N_23  and  O_24
REMARK    6  A    between atoms: O_24  and  C_25
REMARK    7  A    between atoms: C_25  and  C_26
REMARK    8  A    between atoms: C_26  and  O_27
REMARK                            x       y       z     vdW  Elec       q    Type
REMARK                         _______ _______ _______ _____ _____    ______ ____
ROOT
ATOM      1  C   UNL     1      -7.450   4.372 118.779  0.00  0.00    +0.000 C 
ATOM      2  N   UNL     1      -6.548   4.503 119.897  0.00  0.00    +0.000 N 
ATOM      3  C   UNL     1      -5.355   5.156 119.940  0.00  0.00    +0.000 A 
ATOM      4  N   UNL     1      -4.803   5.081 121.138  0.00  0.00    +0.000 NA
ATOM      5  C   UNL     1      -5.658   4.308 121.904  0.00  0.00    +0.000 A 
ATOM      6  C   UNL     1      -5.596   3.862 123.255  0.00  0.00    +0.000 A 
ATOM      7  F   UNL     1      -4.575   4.243 124.042  0.00  0.00    +0.000 F 
ATOM      8  C   UNL     1      -6.623   3.043 123.801  0.00  0.00    +0.000 A 
ATOM      9  C   UNL     1      -7.711   2.726 122.912  0.00  0.00    +0.000 A 
ATOM     10  C   UNL     1      -7.791   3.166 121.587  0.00  0.00    +0.000 A 
ATOM     11  C   UNL     1      -6.751   3.940 121.127  0.00  0.00    +0.000 A 
ENDROOT
BRANCH   9  12
ATOM     12  C   UNL     1      -8.994   2.153 123.355  0.00  0.00    +0.000 C 
ATOM     13  O   UNL     1      -9.679   1.373 122.657  0.00  0.00    +0.000 OA
ATOM     14  N   UNL     1      -9.378   2.721 124.521  0.00  0.00    +0.000 N 
ATOM     15  H   UNL     1      -8.652   3.390 124.748  0.00  0.00    +0.000 HD
BRANCH  14  16
ATOM     16  O   UNL     1      -9.410   1.662 125.571  0.00  0.00    +0.000 OA
BRANCH  16  17
ATOM     17  C   UNL     1      -8.660  -0.070 126.138  0.00  0.00    +0.000 C 
BRANCH  17  18
ATOM     18  C   UNL     1      -8.741  -1.410 125.194  0.00  0.00    +0.000 C 
BRANCH  18  19
ATOM     19  O   UNL     1      -9.549  -1.259 124.050  0.00  0.00    +0.000 OA
ATOM     20  H   UNL     1      -9.084  -0.605 123.514  0.00  0.00    +0.000 HD
ENDBRANCH  18  19
ENDBRANCH  17  18
ENDBRANCH  16  17
ENDBRANCH  14  16
ENDBRANCH   9  12
BRANCH   8  21
ATOM     21  N   UNL     1      -6.498   2.574 125.192  0.00  0.00    +0.000 N 
ATOM     22  H   UNL     1      -6.405   1.558 125.256  0.00  0.00    +0.000 HD
BRANCH  21  23
ATOM     23  C   UNL     1      -6.022   3.303 126.460  0.00  0.00    +0.000 A 
ATOM     24  C   UNL     1      -7.339   3.529 127.715  0.00  0.00    +0.000 A 
ATOM     25  C   UNL     1      -6.991   3.093 129.472  0.00  0.00    +0.000 A 
ATOM     26  C   UNL     1      -5.313   2.507 129.972  0.00  0.00    +0.000 A 
ATOM     27 BR   UNL     1      -4.738   2.427 131.838  0.00  0.00    +0.000 Br
ATOM     28  C   UNL     1      -3.990   2.462 128.719  0.00  0.00    +0.000 A 
ATOM     29  C   UNL     1      -4.373   2.769 126.978  0.00  0.00    +0.000 A 
ATOM     30  F   UNL     1      -3.738   1.978 126.090  0.00  0.00    +0.000 F 
ENDBRANCH  21  23
ENDBRANCH   8  21
TORSDOF 7
ENDMDL
MODEL 6
REMARK VINA RESULT:      -7.6      7.942     10.436
REMARK  Name = Binimetinib
REMARK  8 active torsions:
REMARK  status: ('A' for Active; 'I' for Inactive)
REMARK    1  A    between atoms: C_1  and  N_2
REMARK    2  A    between atoms: C_8  and  N_9
REMARK    3  A    between atoms: N_9  and  C_10
REMARK    4  A    between atoms: C_18  and  C_21
REMARK    5  A    between atoms: N_23  and  O_24
REMARK    6  A    between atoms: O_24  and  C_25
REMARK    7  A    between atoms: C_25  and  C_26
REMARK    8  A    between atoms: C_26  and  O_27
REMARK                            x       y       z     vdW  Elec       q    Type
REMARK                         _______ _______ _______ _____ _____    ______ ____
ROOT
ATOM      1  C   UNL     1      -9.533  -3.181 123.474  0.00  0.00    +0.000 C 
ATOM      2  N   UNL     1      -8.265  -2.750 124.013  0.00  0.00    +0.000 N 
ATOM      3  C   UNL     1      -7.193  -3.517 124.350  0.00  0.00    +0.000 A 
ATOM      4  N   UNL     1      -6.193  -2.782 124.801  0.00  0.00    +0.000 NA
ATOM      5  C   UNL     1      -6.648  -1.475 124.796  0.00  0.00    +0.000 A 
ATOM      6  C   UNL     1      -6.041  -0.247 125.188  0.00  0.00    +0.000 A 
ATOM      7  F   UNL     1      -4.767  -0.235 125.619  0.00  0.00    +0.000 F 
ATOM      8  C   UNL     1      -6.753   0.981 125.095  0.00  0.00    +0.000 A 
ATOM      9  C   UNL     1      -8.091   0.891 124.570  0.00  0.00    +0.000 A 
ATOM     10  C   UNL     1      -8.696  -0.305 124.171  0.00  0.00    +0.000 A 
ATOM     11  C   UNL     1      -7.949  -1.453 124.307  0.00  0.00    +0.000 A 
ENDROOT
BRANCH   9  12
ATOM     12  C   UNL     1      -8.877   2.054 124.121  0.00  0.00    +0.000 C 
ATOM     13  O   UNL     1      -9.219   2.989 124.878  0.00  0.00    +0.000 OA
ATOM     14  N   UNL     1      -9.297   1.867 122.848  0.00  0.00    +0.000 N 
ATOM     15  H   UNL     1      -8.939   0.960 122.576  0.00  0.00    +0.000 HD
BRANCH  14  16
ATOM     16  O   UNL     1      -8.672   2.915 121.990  0.00  0.00    +0.000 OA
BRANCH  16  17
ATOM     17  C   UNL     1      -6.970   3.629 121.297  0.00  0.00    +0.000 C 
BRANCH  17  18
ATOM     18  C   UNL     1      -5.749   4.094 122.288  0.00  0.00    +0.000 C 
BRANCH  18  19
ATOM     19  O   UNL     1      -6.176   4.572 123.542  0.00  0.00    +0.000 OA
ATOM     20  H   UNL     1      -5.634   5.357 123.695  0.00  0.00    +0.000 HD
ENDBRANCH  18  19
ENDBRANCH  17  18
ENDBRANCH  16  17
ENDBRANCH  14  16
ENDBRANCH   9  12
BRANCH   8  21
ATOM     21  N   UNL     1      -6.099   2.221 125.547  0.00  0.00    +0.000 N 
ATOM     22  H   UNL     1      -6.033   2.922 124.805  0.00  0.00    +0.000 HD
BRANCH  21  23
ATOM     23  C   UNL     1      -5.938   2.818 126.955  0.00  0.00    +0.000 A 
ATOM     24  C   UNL     1      -7.326   2.421 128.084  0.00  0.00    +0.000 A 
ATOM     25  C   UNL     1      -6.958   1.800 129.780  0.00  0.00    +0.000 A 
ATOM     26  C   UNL     1      -5.210   1.650 130.357  0.00  0.00    +0.000 A 
ATOM     27 BR   UNL     1      -4.740   1.410 132.239  0.00  0.00    +0.000 Br
ATOM     28  C   UNL     1      -3.872   2.219 129.259  0.00  0.00    +0.000 A 
ATOM     29  C   UNL     1      -4.235   2.706 127.556  0.00  0.00    +0.000 A 
ATOM     30  F   UNL     1      -3.342   2.307 126.628  0.00  0.00    +0.000 F 
ENDBRANCH  21  23
ENDBRANCH   8  21
TORSDOF 7
ENDMDL
MODEL 7
REMARK VINA RESULT:      -7.5      4.086      6.412
REMARK  Name = Binimetinib
REMARK  8 active torsions:
REMARK  status: ('A' for Active; 'I' for Inactive)
REMARK    1  A    between atoms: C_1  and  N_2
REMARK    2  A    between atoms: C_8  and  N_9
REMARK    3  A    between atoms: N_9  and  C_10
REMARK    4  A    between atoms: C_18  and  C_21
REMARK    5  A    between atoms: N_23  and  O_24
REMARK    6  A    between atoms: O_24  and  C_25
REMARK    7  A    between atoms: C_25  and  C_26
REMARK    8  A    between atoms: C_26  and  O_27
REMARK                            x       y       z     vdW  Elec       q    Type
REMARK                         _______ _______ _______ _____ _____    ______ ____
ROOT
ATOM      1  C   UNL     1     -10.927   7.867 126.556  0.00  0.00    +0.000 C 
ATOM      2  N   UNL     1     -11.416   7.917 127.912  0.00  0.00    +0.000 N 
ATOM      3  C   UNL     1     -12.318   8.784 128.447  0.00  0.00    +0.000 A 
ATOM      4  N   UNL     1     -12.542   8.526 129.723  0.00  0.00    +0.000 NA
ATOM      5  C   UNL     1     -11.715   7.463 130.048  0.00  0.00    +0.000 A 
ATOM      6  C   UNL     1     -11.494   6.759 131.266  0.00  0.00    +0.000 A 
ATOM      7  F   UNL     1     -12.203   7.075 132.364  0.00  0.00    +0.000 F 
ATOM      8  C   UNL     1     -10.553   5.693 131.331  0.00  0.00    +0.000 A 
ATOM      9  C   UNL     1      -9.877   5.378 130.100  0.00  0.00    +0.000 A 
ATOM     10  C   UNL     1     -10.093   6.054 128.894  0.00  0.00    +0.000 A 
ATOM     11  C   UNL     1     -11.005   7.083 128.915  0.00  0.00    +0.000 A 
ENDROOT
BRANCH   9  12
ATOM     12  C   UNL     1      -9.102   4.144 129.880  0.00  0.00    +0.000 C 
ATOM     13  O   UNL     1      -9.567   2.997 130.060  0.00  0.00    +0.000 OA
ATOM     14  N   UNL     1      -7.808   4.447 129.629  0.00  0.00    +0.000 N 
ATOM     15  H   UNL     1      -7.754   5.458 129.670  0.00  0.00    +0.000 HD
BRANCH  14  16
ATOM     16  O   UNL     1      -7.480   3.997 128.245  0.00  0.00    +0.000 OA
BRANCH  16  17
ATOM     17  C   UNL     1      -7.805   4.314 126.327  0.00  0.00    +0.000 C 
BRANCH  17  18
ATOM     18  C   UNL     1      -8.084   3.088 125.273  0.00  0.00    +0.000 C 
BRANCH  18  19
ATOM     19  O   UNL     1      -9.352   3.133 124.662  0.00  0.00    +0.000 OA
ATOM     20  H   UNL     1      -9.960   2.839 125.352  0.00  0.00    +0.000 HD
ENDBRANCH  18  19
ENDBRANCH  17  18
ENDBRANCH  16  17
ENDBRANCH  14  16
ENDBRANCH   9  12
BRANCH   8  21
ATOM     21  N   UNL     1     -10.330   5.018 132.621  0.00  0.00    +0.000 N 
ATOM     22  H   UNL     1     -11.132   4.456 132.914  0.00  0.00    +0.000 HD
BRANCH  21  23
ATOM     23  C   UNL     1      -9.027   4.625 133.338  0.00  0.00    +0.000 A 
ATOM     24  C   UNL     1      -8.735   2.817 133.393  0.00  0.00    +0.000 A 
ATOM     25  C   UNL     1      -7.080   2.157 132.920  0.00  0.00    +0.000 A 
ATOM     26  C   UNL     1      -5.712   3.312 132.468  0.00  0.00    +0.000 A 
ATOM     27 BR   UNL     1      -3.844   2.744 132.365  0.00  0.00    +0.000 Br
ATOM     28  C   UNL     1      -6.002   5.107 132.595  0.00  0.00    +0.000 A 
ATOM     29  C   UNL     1      -7.661   5.741 132.935  0.00  0.00    +0.000 A 
ATOM     30  F   UNL     1      -8.023   6.839 132.241  0.00  0.00    +0.000 F 
ENDBRANCH  21  23
ENDBRANCH   8  21
TORSDOF 7
ENDMDL
MODEL 8
REMARK VINA RESULT:      -7.5      1.803      2.635
REMARK  Name = Binimetinib
REMARK  8 active torsions:
REMARK  status: ('A' for Active; 'I' for Inactive)
REMARK    1  A    between atoms: C_1  and  N_2
REMARK    2  A    between atoms: C_8  and  N_9
REMARK    3  A    between atoms: N_9  and  C_10
REMARK    4  A    between atoms: C_18  and  C_21
REMARK    5  A    between atoms: N_23  and  O_24
REMARK    6  A    between atoms: O_24  and  C_25
REMARK    7  A    between atoms: C_25  and  C_26
REMARK    8  A    between atoms: C_26  and  O_27
REMARK                            x       y       z     vdW  Elec       q    Type
REMARK                         _______ _______ _______ _____ _____    ______ ____
ROOT
ATOM      1  C   UNL     1     -12.290   6.485 130.938  0.00  0.00    +0.000 C 
ATOM      2  N   UNL     1     -10.941   6.874 130.602  0.00  0.00    +0.000 N 
ATOM      3  C   UNL     1     -10.524   7.636 129.556  0.00  0.00    +0.000 A 
ATOM      4  N   UNL     1      -9.214   7.800 129.567  0.00  0.00    +0.000 NA
ATOM      5  C   UNL     1      -8.747   7.076 130.651  0.00  0.00    +0.000 A 
ATOM      6  C   UNL     1      -7.437   6.852 131.162  0.00  0.00    +0.000 A 
ATOM      7  F   UNL     1      -6.379   7.447 130.583  0.00  0.00    +0.000 F 
ATOM      8  C   UNL     1      -7.231   6.034 132.308  0.00  0.00    +0.000 A 
ATOM      9  C   UNL     1      -8.420   5.481 132.904  0.00  0.00    +0.000 A 
ATOM     10  C   UNL     1      -9.713   5.701 132.420  0.00  0.00    +0.000 A 
ATOM     11  C   UNL     1      -9.829   6.491 131.299  0.00  0.00    +0.000 A 
ENDROOT
BRANCH   9  12
ATOM     12  C   UNL     1      -8.456   4.864 134.242  0.00  0.00    +0.000 C 
ATOM     13  O   UNL     1      -8.953   3.738 134.468  0.00  0.00    +0.000 OA
ATOM     14  N   UNL     1      -8.038   5.750 135.174  0.00  0.00    +0.000 N 
ATOM     15  H   UNL     1      -7.821   6.597 134.663  0.00  0.00    +0.000 HD
BRANCH  14  16
ATOM     16  O   UNL     1      -6.789   5.222 135.797  0.00  0.00    +0.000 OA
BRANCH  16  17
ATOM     17  C   UNL     1      -5.442   3.785 135.740  0.00  0.00    +0.000 C 
BRANCH  17  18
ATOM     18  C   UNL     1      -4.474   3.442 137.019  0.00  0.00    +0.000 C 
BRANCH  18  19
ATOM     19  O   UNL     1      -3.199   2.961 136.664  0.00  0.00    +0.000 OA
ATOM     20  H   UNL     1      -2.642   3.750 136.653  0.00  0.00    +0.000 HD
ENDBRANCH  18  19
ENDBRANCH  17  18
ENDBRANCH  16  17
ENDBRANCH  14  16
ENDBRANCH   9  12
BRANCH   8  21
ATOM     21  N   UNL     1      -5.855   5.799 132.779  0.00  0.00    +0.000 N 
ATOM     22  H   UNL     1      -5.761   5.923 133.789  0.00  0.00    +0.000 HD
BRANCH  21  23
ATOM     23  C   UNL     1      -4.706   4.983 132.163  0.00  0.00    +0.000 A 
ATOM     24  C   UNL     1      -5.262   3.458 131.312  0.00  0.00    +0.000 A 
ATOM     25  C   UNL     1      -4.625   3.086 129.623  0.00  0.00    +0.000 A 
ATOM     26  C   UNL     1      -3.385   4.200 128.829  0.00  0.00    +0.000 A 
ATOM     27 BR   UNL     1      -2.355   3.677 127.253  0.00  0.00    +0.000 Br
ATOM     28  C   UNL     1      -2.735   5.610 129.784  0.00  0.00    +0.000 A 
ATOM     29  C   UNL     1      -3.458   6.037 131.386  0.00  0.00    +0.000 A 
ATOM     30  F   UNL     1      -3.612   7.355 131.627  0.00  0.00    +0.000 F 
ENDBRANCH  21  23
ENDBRANCH   8  21
TORSDOF 7
ENDMDL
MODEL 9
REMARK VINA RESULT:      -7.4      6.572      8.707
REMARK  Name = Binimetinib
REMARK  8 active torsions:
REMARK  status: ('A' for Active; 'I' for Inactive)
REMARK    1  A    between atoms: C_1  and  N_2
REMARK    2  A    between atoms: C_8  and  N_9
REMARK    3  A    between atoms: N_9  and  C_10
REMARK    4  A    between atoms: C_18  and  C_21
REMARK    5  A    between atoms: N_23  and  O_24
REMARK    6  A    between atoms: O_24  and  C_25
REMARK    7  A    between atoms: C_25  and  C_26
REMARK    8  A    between atoms: C_26  and  O_27
REMARK                            x       y       z     vdW  Elec       q    Type
REMARK                         _______ _______ _______ _____ _____    ______ ____
ROOT
ATOM      1  C   UNL     1      -3.813   6.645 127.729  0.00  0.00    +0.000 C 
ATOM      2  N   UNL     1      -3.663   5.230 127.485  0.00  0.00    +0.000 N 
ATOM      3  C   UNL     1      -2.634   4.420 127.853  0.00  0.00    +0.000 A 
ATOM      4  N   UNL     1      -2.838   3.172 127.472  0.00  0.00    +0.000 NA
ATOM      5  C   UNL     1      -4.041   3.174 126.788  0.00  0.00    +0.000 A 
ATOM      6  C   UNL     1      -4.771   2.144 126.129  0.00  0.00    +0.000 A 
ATOM      7  F   UNL     1      -4.317   0.878 126.154  0.00  0.00    +0.000 F 
ATOM      8  C   UNL     1      -6.001   2.426 125.473  0.00  0.00    +0.000 A 
ATOM      9  C   UNL     1      -6.448   3.793 125.541  0.00  0.00    +0.000 A 
ATOM     10  C   UNL     1      -5.748   4.813 126.193  0.00  0.00    +0.000 A 
ATOM     11  C   UNL     1      -4.558   4.464 126.791  0.00  0.00    +0.000 A 
ENDROOT
BRANCH   9  12
ATOM     12  C   UNL     1      -7.812   4.231 125.193  0.00  0.00    +0.000 C 
ATOM     13  O   UNL     1      -8.628   3.514 124.572  0.00  0.00    +0.000 OA
ATOM     14  N   UNL     1      -7.970   5.540 125.492  0.00  0.00    +0.000 N 
ATOM     15  H   UNL     1      -7.081   5.840 125.873  0.00  0.00    +0.000 HD
BRANCH  14  16
ATOM     16  O   UNL     1      -9.018   5.658 126.546  0.00  0.00    +0.000 OA
BRANCH  16  17
ATOM     17  C   UNL     1     -10.096   6.916 127.615  0.00  0.00    +0.000 C 
BRANCH  17  18
ATOM     18  C   UNL     1     -11.673   7.220 127.280  0.00  0.00    +0.000 C 
BRANCH  18  19
ATOM     19  O   UNL     1     -12.123   6.658 126.070  0.00  0.00    +0.000 OA
ATOM     20  H   UNL     1     -12.168   5.710 126.250  0.00  0.00    +0.000 HD
ENDBRANCH  18  19
ENDBRANCH  17  18
ENDBRANCH  16  17
ENDBRANCH  14  16
ENDBRANCH   9  12
BRANCH   8  21
ATOM     21  N   UNL     1      -6.703   1.337 124.773  0.00  0.00    +0.000 N 
ATOM     22  H   UNL     1      -6.524   1.337 123.766  0.00  0.00    +0.000 HD
BRANCH  21  23
ATOM     23  C   UNL     1      -7.233  -0.012 125.288  0.00  0.00    +0.000 A 
ATOM     24  C   UNL     1      -6.014  -1.376 125.167  0.00  0.00    +0.000 A 
ATOM     25  C   UNL     1      -5.736  -2.467 126.626  0.00  0.00    +0.000 A 
ATOM     26  C   UNL     1      -6.729  -2.234 128.166  0.00  0.00    +0.000 A 
ATOM     27 BR   UNL     1      -6.805  -3.577 129.584  0.00  0.00    +0.000 Br
ATOM     28  C   UNL     1      -8.048  -0.976 128.177  0.00  0.00    +0.000 A 
ATOM     29  C   UNL     1      -8.226   0.170 126.789  0.00  0.00    +0.000 A 
ATOM     30  F   UNL     1      -8.513   1.447 127.116  0.00  0.00    +0.000 F 
ENDBRANCH  21  23
ENDBRANCH   8  21
TORSDOF 7
ENDMDL
