MODEL 1
REMARK VINA RESULT:      -7.1      0.000      0.000
REMARK  Name = Bioallethrin
REMARK  11 active torsions:
REMARK  status: ('A' for Active; 'I' for Inactive)
REMARK    1  A    between atoms: C_1  and  C_2
REMARK    2  A    between atoms: C_2  and  C_3
REMARK    3  A    between atoms: C_4  and  C_5
REMARK    4  A    between atoms: C_6  and  C_7
REMARK    5  A    between atoms: C_7  and  O_9
REMARK    6  A    between atoms: O_9  and  C_10
REMARK    7  A    between atoms: C_14  and  C_15
REMARK    8  A    between atoms: C_15  and  C_16
REMARK    9  A    between atoms: C_18  and  C_19
REMARK   10  A    between atoms: C_20  and  C_21
REMARK   11  A    between atoms: C_20  and  C_22
REMARK                            x       y       z     vdW  Elec       q    Type
REMARK                         _______ _______ _______ _____ _____    ______ ____
ROOT
ATOM      1  C   UNL     1      -9.350   0.138 122.861  0.00  0.00    +0.000 C 
ATOM      2  O   UNL     1     -10.532   0.374 122.750  0.00  0.00    +0.000 OA
ENDROOT
BRANCH   1   4
ATOM      3  C   UNL     1      -7.464  -1.478 123.741  0.00  0.00    +0.000 C 
ATOM      4  C   UNL     1      -8.793  -1.253 123.030  0.00  0.00    +0.000 C 
ATOM      5  C   UNL     1      -8.770  -1.909 124.414  0.00  0.00    +0.000 C 
ATOM      6  C   UNL     1      -9.207  -3.366 124.487  0.00  0.00    +0.000 C 
ATOM      7  C   UNL     1      -9.181  -1.120 125.633  0.00  0.00    +0.000 C 
BRANCH   3  11
ATOM      8  C   UNL     1      -4.536  -4.048 123.555  0.00  0.00    +0.000 C 
ATOM      9  C   UNL     1      -5.504  -3.029 124.085  0.00  0.00    +0.000 C 
ATOM     10  C   UNL     1      -5.321  -2.644 125.527  0.00  0.00    +0.000 C 
ATOM     11  C   UNL     1      -6.481  -2.498 123.314  0.00  0.00    +0.000 C 
ENDBRANCH   3  11
ENDBRANCH   1   4
BRANCH   1  12
ATOM     12  O   UNL     1      -8.359   1.078 122.802  0.00  0.00    +0.000 OA
BRANCH  12  13
ATOM     13  C   UNL     1      -8.692   2.373 123.344  0.00  0.00    +0.000 C 
ATOM     14  C   UNL     1      -9.126   2.336 124.801  0.00  0.00    +0.000 C 
ATOM     15  C   UNL     1      -8.211   3.344 125.439  0.00  0.00    +0.000 C 
ATOM     16  O   UNL     1      -8.301   3.705 126.604  0.00  0.00    +0.000 OA
ATOM     17  C   UNL     1      -7.165   3.843 124.503  0.00  0.00    +0.000 C 
ATOM     18  C   UNL     1      -7.435   3.225 123.334  0.00  0.00    +0.000 C 
ATOM     19  C   UNL     1      -6.707   3.263 122.024  0.00  0.00    +0.000 C 
BRANCH  17  20
ATOM     20  C   UNL     1      -6.131   4.830 124.996  0.00  0.00    +0.000 C 
BRANCH  20  21
ATOM     21  C   UNL     1      -4.824   4.213 125.406  0.00  0.00    +0.000 C 
ATOM     22  C   UNL     1      -4.560   3.075 126.050  0.00  0.00    +0.000 C 
ENDBRANCH  20  21
ENDBRANCH  17  20
ENDBRANCH  12  13
ENDBRANCH   1  12
TORSDOF 6
ENDMDL
MODEL 2
REMARK VINA RESULT:      -7.0      1.865      2.675
REMARK  Name = Bioallethrin
REMARK  11 active torsions:
REMARK  status: ('A' for Active; 'I' for Inactive)
REMARK    1  A    between atoms: C_1  and  C_2
REMARK    2  A    between atoms: C_2  and  C_3
REMARK    3  A    between atoms: C_4  and  C_5
REMARK    4  A    between atoms: C_6  and  C_7
REMARK    5  A    between atoms: C_7  and  O_9
REMARK    6  A    between atoms: O_9  and  C_10
REMARK    7  A    between atoms: C_14  and  C_15
REMARK    8  A    between atoms: C_15  and  C_16
REMARK    9  A    between atoms: C_18  and  C_19
REMARK   10  A    between atoms: C_20  and  C_21
REMARK   11  A    between atoms: C_20  and  C_22
REMARK                            x       y       z     vdW  Elec       q    Type
REMARK                         _______ _______ _______ _____ _____    ______ ____
ROOT
ATOM      1  C   UNL     1      -8.910  -0.172 125.119  0.00  0.00    +0.000 C 
ATOM      2  O   UNL     1     -10.026   0.144 125.470  0.00  0.00    +0.000 OA
ENDROOT
BRANCH   1   4
ATOM      3  C   UNL     1      -6.763  -1.555 125.765  0.00  0.00    +0.000 C 
ATOM      4  C   UNL     1      -8.261  -1.479 125.497  0.00  0.00    +0.000 C 
ATOM      5  C   UNL     1      -7.751  -1.700 126.924  0.00  0.00    +0.000 C 
ATOM      6  C   UNL     1      -8.067  -3.048 127.561  0.00  0.00    +0.000 C 
ATOM      7  C   UNL     1      -7.778  -0.568 127.921  0.00  0.00    +0.000 C 
BRANCH   3  11
ATOM      8  C   UNL     1      -4.706  -4.205 123.775  0.00  0.00    +0.000 C 
ATOM      9  C   UNL     1      -5.544  -2.999 124.094  0.00  0.00    +0.000 C 
ATOM     10  C   UNL     1      -5.925  -2.141 122.919  0.00  0.00    +0.000 C 
ATOM     11  C   UNL     1      -5.925  -2.704 125.358  0.00  0.00    +0.000 C 
ENDBRANCH   3  11
ENDBRANCH   1   4
BRANCH   1  12
ATOM     12  O   UNL     1      -8.109   0.576 124.302  0.00  0.00    +0.000 OA
BRANCH  12  13
ATOM     13  C   UNL     1      -7.781   1.896 124.785  0.00  0.00    +0.000 C 
ATOM     14  C   UNL     1      -6.562   1.931 125.694  0.00  0.00    +0.000 C 
ATOM     15  C   UNL     1      -5.700   2.977 125.042  0.00  0.00    +0.000 C 
ATOM     16  O   UNL     1      -4.657   3.396 125.522  0.00  0.00    +0.000 OA
ATOM     17  C   UNL     1      -6.244   3.432 123.731  0.00  0.00    +0.000 C 
ATOM     18  C   UNL     1      -7.401   2.753 123.591  0.00  0.00    +0.000 C 
ATOM     19  C   UNL     1      -8.381   2.728 122.456  0.00  0.00    +0.000 C 
BRANCH  17  20
ATOM     20  C   UNL     1      -5.476   4.450 122.918  0.00  0.00    +0.000 C 
BRANCH  20  21
ATOM     21  C   UNL     1      -5.168   4.021 121.511  0.00  0.00    +0.000 C 
ATOM     22  C   UNL     1      -5.524   4.551 120.340  0.00  0.00    +0.000 C 
ENDBRANCH  20  21
ENDBRANCH  17  20
ENDBRANCH  12  13
ENDBRANCH   1  12
TORSDOF 6
ENDMDL
MODEL 3
REMARK VINA RESULT:      -6.7      2.026      6.261
REMARK  Name = Bioallethrin
REMARK  11 active torsions:
REMARK  status: ('A' for Active; 'I' for Inactive)
REMARK    1  A    between atoms: C_1  and  C_2
REMARK    2  A    between atoms: C_2  and  C_3
REMARK    3  A    between atoms: C_4  and  C_5
REMARK    4  A    between atoms: C_6  and  C_7
REMARK    5  A    between atoms: C_7  and  O_9
REMARK    6  A    between atoms: O_9  and  C_10
REMARK    7  A    between atoms: C_14  and  C_15
REMARK    8  A    between atoms: C_15  and  C_16
REMARK    9  A    between atoms: C_18  and  C_19
REMARK   10  A    between atoms: C_20  and  C_21
REMARK   11  A    between atoms: C_20  and  C_22
REMARK                            x       y       z     vdW  Elec       q    Type
REMARK                         _______ _______ _______ _____ _____    ______ ____
ROOT
ATOM      1  C   UNL     1      -8.426   1.056 123.231  0.00  0.00    +0.000 C 
ATOM      2  O   UNL     1      -9.516   1.314 122.769  0.00  0.00    +0.000 OA
ENDROOT
BRANCH   1   4
ATOM      3  C   UNL     1      -7.364   3.339 122.458  0.00  0.00    +0.000 C 
ATOM      4  C   UNL     1      -7.228   1.960 123.090  0.00  0.00    +0.000 C 
ATOM      5  C   UNL     1      -7.104   3.213 123.960  0.00  0.00    +0.000 C 
ATOM      6  C   UNL     1      -5.736   3.485 124.575  0.00  0.00    +0.000 C 
ATOM      7  C   UNL     1      -8.238   3.620 124.869  0.00  0.00    +0.000 C 
BRANCH   3  11
ATOM      8  C   UNL     1      -5.405   4.898 119.467  0.00  0.00    +0.000 C 
ATOM      9  C   UNL     1      -6.521   4.325 120.294  0.00  0.00    +0.000 C 
ATOM     10  C   UNL     1      -7.857   4.227 119.609  0.00  0.00    +0.000 C 
ATOM     11  C   UNL     1      -6.335   3.930 121.575  0.00  0.00    +0.000 C 
ENDBRANCH   3  11
ENDBRANCH   1   4
BRANCH   1  12
ATOM     12  O   UNL     1      -8.141  -0.053 123.978  0.00  0.00    +0.000 OA
BRANCH  12  13
ATOM     13  C   UNL     1      -6.772  -0.176 124.418  0.00  0.00    +0.000 C 
ATOM     14  C   UNL     1      -6.613  -0.205 125.930  0.00  0.00    +0.000 C 
ATOM     15  C   UNL     1      -5.813  -1.458 126.150  0.00  0.00    +0.000 C 
ATOM     16  O   UNL     1      -5.368  -1.802 127.237  0.00  0.00    +0.000 OA
ATOM     17  C   UNL     1      -5.637  -2.253 124.902  0.00  0.00    +0.000 C 
ATOM     18  C   UNL     1      -6.246  -1.521 123.947  0.00  0.00    +0.000 C 
ATOM     19  C   UNL     1      -6.464  -1.811 122.492  0.00  0.00    +0.000 C 
BRANCH  17  20
ATOM     20  C   UNL     1      -4.894  -3.569 124.954  0.00  0.00    +0.000 C 
BRANCH  20  21
ATOM     21  C   UNL     1      -4.400  -4.061 123.623  0.00  0.00    +0.000 C 
ATOM     22  C   UNL     1      -4.095  -5.291 123.206  0.00  0.00    +0.000 C 
ENDBRANCH  20  21
ENDBRANCH  17  20
ENDBRANCH  12  13
ENDBRANCH   1  12
TORSDOF 6
ENDMDL
MODEL 4
REMARK VINA RESULT:      -6.6      1.626      2.156
REMARK  Name = Bioallethrin
REMARK  11 active torsions:
REMARK  status: ('A' for Active; 'I' for Inactive)
REMARK    1  A    between atoms: C_1  and  C_2
REMARK    2  A    between atoms: C_2  and  C_3
REMARK    3  A    between atoms: C_4  and  C_5
REMARK    4  A    between atoms: C_6  and  C_7
REMARK    5  A    between atoms: C_7  and  O_9
REMARK    6  A    between atoms: O_9  and  C_10
REMARK    7  A    between atoms: C_14  and  C_15
REMARK    8  A    between atoms: C_15  and  C_16
REMARK    9  A    between atoms: C_18  and  C_19
REMARK   10  A    between atoms: C_20  and  C_21
REMARK   11  A    between atoms: C_20  and  C_22
REMARK                            x       y       z     vdW  Elec       q    Type
REMARK                         _______ _______ _______ _____ _____    ______ ____
ROOT
ATOM      1  C   UNL     1      -9.102   0.245 124.978  0.00  0.00    +0.000 C 
ATOM      2  O   UNL     1     -10.257   0.608 125.008  0.00  0.00    +0.000 OA
ENDROOT
BRANCH   1   4
ATOM      3  C   UNL     1      -7.490  -1.815 124.665  0.00  0.00    +0.000 C 
ATOM      4  C   UNL     1      -8.621  -0.926 124.161  0.00  0.00    +0.000 C 
ATOM      5  C   UNL     1      -8.921  -2.357 124.616  0.00  0.00    +0.000 C 
ATOM      6  C   UNL     1      -9.386  -3.332 123.543  0.00  0.00    +0.000 C 
ATOM      7  C   UNL     1      -9.584  -2.604 125.949  0.00  0.00    +0.000 C 
BRANCH   3  11
ATOM      8  C   UNL     1      -4.310  -3.534 123.202  0.00  0.00    +0.000 C 
ATOM      9  C   UNL     1      -5.318  -3.004 124.181  0.00  0.00    +0.000 C 
ATOM     10  C   UNL     1      -4.990  -3.211 125.633  0.00  0.00    +0.000 C 
ATOM     11  C   UNL     1      -6.452  -2.385 123.778  0.00  0.00    +0.000 C 
ENDBRANCH   3  11
ENDBRANCH   1   4
BRANCH   1  12
ATOM     12  O   UNL     1      -8.075   0.865 125.634  0.00  0.00    +0.000 OA
BRANCH  12  13
ATOM     13  C   UNL     1      -7.224   1.698 124.819  0.00  0.00    +0.000 C 
ATOM     14  C   UNL     1      -7.747   3.114 124.633  0.00  0.00    +0.000 C 
ATOM     15  C   UNL     1      -6.575   3.952 125.061  0.00  0.00    +0.000 C 
ATOM     16  O   UNL     1      -6.537   5.171 124.962  0.00  0.00    +0.000 OA
ATOM     17  C   UNL     1      -5.470   3.140 125.643  0.00  0.00    +0.000 C 
ATOM     18  C   UNL     1      -5.898   1.865 125.541  0.00  0.00    +0.000 C 
ATOM     19  C   UNL     1      -5.265   0.587 126.005  0.00  0.00    +0.000 C 
BRANCH  17  20
ATOM     20  C   UNL     1      -4.232   3.832 126.168  0.00  0.00    +0.000 C 
BRANCH  20  21
ATOM     21  C   UNL     1      -3.155   2.903 126.651  0.00  0.00    +0.000 C 
ATOM     22  C   UNL     1      -1.829   3.045 126.679  0.00  0.00    +0.000 C 
ENDBRANCH  20  21
ENDBRANCH  17  20
ENDBRANCH  12  13
ENDBRANCH   1  12
TORSDOF 6
ENDMDL
MODEL 5
REMARK VINA RESULT:      -6.5      2.321      3.683
REMARK  Name = Bioallethrin
REMARK  11 active torsions:
REMARK  status: ('A' for Active; 'I' for Inactive)
REMARK    1  A    between atoms: C_1  and  C_2
REMARK    2  A    between atoms: C_2  and  C_3
REMARK    3  A    between atoms: C_4  and  C_5
REMARK    4  A    between atoms: C_6  and  C_7
REMARK    5  A    between atoms: C_7  and  O_9
REMARK    6  A    between atoms: O_9  and  C_10
REMARK    7  A    between atoms: C_14  and  C_15
REMARK    8  A    between atoms: C_15  and  C_16
REMARK    9  A    between atoms: C_18  and  C_19
REMARK   10  A    between atoms: C_20  and  C_21
REMARK   11  A    between atoms: C_20  and  C_22
REMARK                            x       y       z     vdW  Elec       q    Type
REMARK                         _______ _______ _______ _____ _____    ______ ____
ROOT
ATOM      1  C   UNL     1      -9.279   0.102 125.832  0.00  0.00    +0.000 C 
ATOM      2  O   UNL     1     -10.480  -0.057 125.838  0.00  0.00    +0.000 OA
ENDROOT
BRANCH   1   4
ATOM      3  C   UNL     1      -8.779  -2.373 126.584  0.00  0.00    +0.000 C 
ATOM      4  C   UNL     1      -8.296  -0.978 126.206  0.00  0.00    +0.000 C 
ATOM      5  C   UNL     1      -8.049  -2.155 125.257  0.00  0.00    +0.000 C 
ATOM      6  C   UNL     1      -6.598  -2.570 125.049  0.00  0.00    +0.000 C 
ATOM      7  C   UNL     1      -8.880  -2.307 124.007  0.00  0.00    +0.000 C 
BRANCH   3  11
ATOM      8  C   UNL     1      -7.058  -3.625 129.852  0.00  0.00    +0.000 C 
ATOM      9  C   UNL     1      -7.702  -2.722 128.838  0.00  0.00    +0.000 C 
ATOM     10  C   UNL     1      -7.818  -1.276 129.232  0.00  0.00    +0.000 C 
ATOM     11  C   UNL     1      -8.152  -3.186 127.649  0.00  0.00    +0.000 C 
ENDBRANCH   3  11
ENDBRANCH   1   4
BRANCH   1  12
ATOM     12  O   UNL     1      -8.647   1.251 125.445  0.00  0.00    +0.000 OA
BRANCH  12  13
ATOM     13  C   UNL     1      -8.199   1.288 124.074  0.00  0.00    +0.000 C 
ATOM     14  C   UNL     1      -9.162   1.992 123.131  0.00  0.00    +0.000 C 
ATOM     15  C   UNL     1      -8.280   3.010 122.465  0.00  0.00    +0.000 C 
ATOM     16  O   UNL     1      -8.642   3.727 121.542  0.00  0.00    +0.000 OA
ATOM     17  C   UNL     1      -6.917   3.070 123.065  0.00  0.00    +0.000 C 
ATOM     18  C   UNL     1      -6.926   2.114 124.017  0.00  0.00    +0.000 C 
ATOM     19  C   UNL     1      -5.873   1.722 125.010  0.00  0.00    +0.000 C 
BRANCH  17  20
ATOM     20  C   UNL     1      -5.915   4.075 122.544  0.00  0.00    +0.000 C 
BRANCH  20  21
ATOM     21  C   UNL     1      -5.503   3.862 121.115  0.00  0.00    +0.000 C 
ATOM     22  C   UNL     1      -5.456   4.709 120.085  0.00  0.00    +0.000 C 
ENDBRANCH  20  21
ENDBRANCH  17  20
ENDBRANCH  12  13
ENDBRANCH   1  12
TORSDOF 6
ENDMDL
MODEL 6
REMARK VINA RESULT:      -6.5      1.505      2.392
REMARK  Name = Bioallethrin
REMARK  11 active torsions:
REMARK  status: ('A' for Active; 'I' for Inactive)
REMARK    1  A    between atoms: C_1  and  C_2
REMARK    2  A    between atoms: C_2  and  C_3
REMARK    3  A    between atoms: C_4  and  C_5
REMARK    4  A    between atoms: C_6  and  C_7
REMARK    5  A    between atoms: C_7  and  O_9
REMARK    6  A    between atoms: O_9  and  C_10
REMARK    7  A    between atoms: C_14  and  C_15
REMARK    8  A    between atoms: C_15  and  C_16
REMARK    9  A    between atoms: C_18  and  C_19
REMARK   10  A    between atoms: C_20  and  C_21
REMARK   11  A    between atoms: C_20  and  C_22
REMARK                            x       y       z     vdW  Elec       q    Type
REMARK                         _______ _______ _______ _____ _____    ______ ____
ROOT
ATOM      1  C   UNL     1      -8.883  -0.160 123.585  0.00  0.00    +0.000 C 
ATOM      2  O   UNL     1     -10.071  -0.333 123.424  0.00  0.00    +0.000 OA
ENDROOT
BRANCH   1   4
ATOM      3  C   UNL     1      -8.651  -1.765 125.662  0.00  0.00    +0.000 C 
ATOM      4  C   UNL     1      -8.034  -1.022 124.483  0.00  0.00    +0.000 C 
ATOM      5  C   UNL     1      -8.169  -2.547 124.438  0.00  0.00    +0.000 C 
ATOM      6  C   UNL     1      -6.873  -3.348 124.442  0.00  0.00    +0.000 C 
ATOM      7  C   UNL     1      -9.243  -3.187 123.592  0.00  0.00    +0.000 C 
BRANCH   3  11
ATOM      8  C   UNL     1      -7.473  -2.982 129.175  0.00  0.00    +0.000 C 
ATOM      9  C   UNL     1      -8.208  -2.908 127.867  0.00  0.00    +0.000 C 
ATOM     10  C   UNL     1      -9.221  -3.992 127.626  0.00  0.00    +0.000 C 
ATOM     11  C   UNL     1      -7.966  -1.930 126.963  0.00  0.00    +0.000 C 
ENDBRANCH   3  11
ENDBRANCH   1   4
BRANCH   1  12
ATOM     12  O   UNL     1      -8.142   0.798 122.951  0.00  0.00    +0.000 OA
BRANCH  12  13
ATOM     13  C   UNL     1      -8.472   2.164 123.278  0.00  0.00    +0.000 C 
ATOM     14  C   UNL     1      -9.045   2.339 124.676  0.00  0.00    +0.000 C 
ATOM     15  C   UNL     1      -8.155   3.399 125.262  0.00  0.00    +0.000 C 
ATOM     16  O   UNL     1      -8.341   3.918 126.354  0.00  0.00    +0.000 OA
ATOM     17  C   UNL     1      -7.003   3.735 124.379  0.00  0.00    +0.000 C 
ATOM     18  C   UNL     1      -7.185   2.970 123.282  0.00  0.00    +0.000 C 
ATOM     19  C   UNL     1      -6.333   2.808 122.059  0.00  0.00    +0.000 C 
BRANCH  17  20
ATOM     20  C   UNL     1      -5.982   4.751 124.838  0.00  0.00    +0.000 C 
BRANCH  20  21
ATOM     21  C   UNL     1      -4.714   4.159 125.384  0.00  0.00    +0.000 C 
ATOM     22  C   UNL     1      -4.512   3.093 126.160  0.00  0.00    +0.000 C 
ENDBRANCH  20  21
ENDBRANCH  17  20
ENDBRANCH  12  13
ENDBRANCH   1  12
TORSDOF 6
ENDMDL
MODEL 7
REMARK VINA RESULT:      -6.5      1.635      6.281
REMARK  Name = Bioallethrin
REMARK  11 active torsions:
REMARK  status: ('A' for Active; 'I' for Inactive)
REMARK    1  A    between atoms: C_1  and  C_2
REMARK    2  A    between atoms: C_2  and  C_3
REMARK    3  A    between atoms: C_4  and  C_5
REMARK    4  A    between atoms: C_6  and  C_7
REMARK    5  A    between atoms: C_7  and  O_9
REMARK    6  A    between atoms: O_9  and  C_10
REMARK    7  A    between atoms: C_14  and  C_15
REMARK    8  A    between atoms: C_15  and  C_16
REMARK    9  A    between atoms: C_18  and  C_19
REMARK   10  A    between atoms: C_20  and  C_21
REMARK   11  A    between atoms: C_20  and  C_22
REMARK                            x       y       z     vdW  Elec       q    Type
REMARK                         _______ _______ _______ _____ _____    ______ ____
ROOT
ATOM      1  C   UNL     1      -8.085   1.900 125.505  0.00  0.00    +0.000 C 
ATOM      2  O   UNL     1      -9.101   2.545 125.368  0.00  0.00    +0.000 OA
ENDROOT
BRANCH   1   4
ATOM      3  C   UNL     1      -6.552   3.755 124.432  0.00  0.00    +0.000 C 
ATOM      4  C   UNL     1      -6.740   2.352 124.996  0.00  0.00    +0.000 C 
ATOM      5  C   UNL     1      -5.929   3.388 125.781  0.00  0.00    +0.000 C 
ATOM      6  C   UNL     1      -4.440   3.111 125.941  0.00  0.00    +0.000 C 
ATOM      7  C   UNL     1      -6.528   4.057 126.994  0.00  0.00    +0.000 C 
BRANCH   3  11
ATOM      8  C   UNL     1      -5.056   4.199 120.858  0.00  0.00    +0.000 C 
ATOM      9  C   UNL     1      -6.016   3.888 121.970  0.00  0.00    +0.000 C 
ATOM     10  C   UNL     1      -7.370   3.392 121.544  0.00  0.00    +0.000 C 
ATOM     11  C   UNL     1      -5.684   4.052 123.272  0.00  0.00    +0.000 C 
ENDBRANCH   3  11
ENDBRANCH   1   4
BRANCH   1  12
ATOM     12  O   UNL     1      -8.002   0.709 126.171  0.00  0.00    +0.000 OA
BRANCH  12  13
ATOM     13  C   UNL     1      -8.642  -0.413 125.528  0.00  0.00    +0.000 C 
ATOM     14  C   UNL     1      -8.759  -0.271 124.018  0.00  0.00    +0.000 C 
ATOM     15  C   UNL     1      -8.132  -1.544 123.522  0.00  0.00    +0.000 C 
ATOM     16  O   UNL     1      -8.118  -1.884 122.347  0.00  0.00    +0.000 OA
ATOM     17  C   UNL     1      -7.505  -2.340 124.615  0.00  0.00    +0.000 C 
ATOM     18  C   UNL     1      -7.765  -1.636 125.736  0.00  0.00    +0.000 C 
ATOM     19  C   UNL     1      -7.349  -1.882 127.156  0.00  0.00    +0.000 C 
BRANCH  17  20
ATOM     20  C   UNL     1      -6.788  -3.628 124.283  0.00  0.00    +0.000 C 
BRANCH  20  21
ATOM     21  C   UNL     1      -5.298  -3.496 124.142  0.00  0.00    +0.000 C 
ATOM     22  C   UNL     1      -4.391  -4.336 123.641  0.00  0.00    +0.000 C 
ENDBRANCH  20  21
ENDBRANCH  17  20
ENDBRANCH  12  13
ENDBRANCH   1  12
TORSDOF 6
ENDMDL
MODEL 8
REMARK VINA RESULT:      -6.4      7.426     10.231
REMARK  Name = Bioallethrin
REMARK  11 active torsions:
REMARK  status: ('A' for Active; 'I' for Inactive)
REMARK    1  A    between atoms: C_1  and  C_2
REMARK    2  A    between atoms: C_2  and  C_3
REMARK    3  A    between atoms: C_4  and  C_5
REMARK    4  A    between atoms: C_6  and  C_7
REMARK    5  A    between atoms: C_7  and  O_9
REMARK    6  A    between atoms: O_9  and  C_10
REMARK    7  A    between atoms: C_14  and  C_15
REMARK    8  A    between atoms: C_15  and  C_16
REMARK    9  A    between atoms: C_18  and  C_19
REMARK   10  A    between atoms: C_20  and  C_21
REMARK   11  A    between atoms: C_20  and  C_22
REMARK                            x       y       z     vdW  Elec       q    Type
REMARK                         _______ _______ _______ _____ _____    ______ ____
ROOT
ATOM      1  C   UNL     1      -5.022   5.547 132.913  0.00  0.00    +0.000 C 
ATOM      2  O   UNL     1      -4.955   5.981 134.042  0.00  0.00    +0.000 OA
ENDROOT
BRANCH   1   4
ATOM      3  C   UNL     1      -3.890   5.314 130.545  0.00  0.00    +0.000 C 
ATOM      4  C   UNL     1      -3.811   5.250 132.066  0.00  0.00    +0.000 C 
ATOM      5  C   UNL     1      -3.104   6.380 131.312  0.00  0.00    +0.000 C 
ATOM      6  C   UNL     1      -1.582   6.388 131.364  0.00  0.00    +0.000 C 
ATOM      7  C   UNL     1      -3.691   7.770 131.308  0.00  0.00    +0.000 C 
BRANCH   3  11
ATOM      8  C   UNL     1      -2.379   3.423 127.487  0.00  0.00    +0.000 C 
ATOM      9  C   UNL     1      -3.108   4.448 128.308  0.00  0.00    +0.000 C 
ATOM     10  C   UNL     1      -3.744   5.571 127.536  0.00  0.00    +0.000 C 
ATOM     11  C   UNL     1      -3.181   4.367 129.657  0.00  0.00    +0.000 C 
ENDBRANCH   3  11
ENDBRANCH   1   4
BRANCH   1  12
ATOM     12  O   UNL     1      -6.184   5.224 132.270  0.00  0.00    +0.000 OA
BRANCH  12  13
ATOM     13  C   UNL     1      -7.213   6.235 132.290  0.00  0.00    +0.000 C 
ATOM     14  C   UNL     1      -7.284   7.064 131.017  0.00  0.00    +0.000 C 
ATOM     15  C   UNL     1      -8.729   6.933 130.624  0.00  0.00    +0.000 C 
ATOM     16  O   UNL     1      -9.241   7.545 129.697  0.00  0.00    +0.000 OA
ATOM     17  C   UNL     1      -9.469   5.957 131.472  0.00  0.00    +0.000 C 
ATOM     18  C   UNL     1      -8.558   5.536 132.374  0.00  0.00    +0.000 C 
ATOM     19  C   UNL     1      -8.670   4.508 133.461  0.00  0.00    +0.000 C 
BRANCH  17  20
ATOM     20  C   UNL     1     -10.924   5.669 131.182  0.00  0.00    +0.000 C 
BRANCH  20  21
ATOM     21  C   UNL     1     -11.886   6.666 131.764  0.00  0.00    +0.000 C 
ATOM     22  C   UNL     1     -12.714   7.528 131.172  0.00  0.00    +0.000 C 
ENDBRANCH  20  21
ENDBRANCH  17  20
ENDBRANCH  12  13
ENDBRANCH   1  12
TORSDOF 6
ENDMDL
MODEL 9
REMARK VINA RESULT:      -6.3      2.464      3.849
REMARK  Name = Bioallethrin
REMARK  11 active torsions:
REMARK  status: ('A' for Active; 'I' for Inactive)
REMARK    1  A    between atoms: C_1  and  C_2
REMARK    2  A    between atoms: C_2  and  C_3
REMARK    3  A    between atoms: C_4  and  C_5
REMARK    4  A    between atoms: C_6  and  C_7
REMARK    5  A    between atoms: C_7  and  O_9
REMARK    6  A    between atoms: O_9  and  C_10
REMARK    7  A    between atoms: C_14  and  C_15
REMARK    8  A    between atoms: C_15  and  C_16
REMARK    9  A    between atoms: C_18  and  C_19
REMARK   10  A    between atoms: C_20  and  C_21
REMARK   11  A    between atoms: C_20  and  C_22
REMARK                            x       y       z     vdW  Elec       q    Type
REMARK                         _______ _______ _______ _____ _____    ______ ____
ROOT
ATOM      1  C   UNL     1      -7.239   0.550 128.016  0.00  0.00    +0.000 C 
ATOM      2  O   UNL     1      -7.257   0.981 129.148  0.00  0.00    +0.000 OA
ENDROOT
BRANCH   1   4
ATOM      3  C   UNL     1      -7.694  -1.390 126.294  0.00  0.00    +0.000 C 
ATOM      4  C   UNL     1      -8.056  -0.633 127.566  0.00  0.00    +0.000 C 
ATOM      5  C   UNL     1      -7.476  -2.048 127.658  0.00  0.00    +0.000 C 
ATOM      6  C   UNL     1      -8.402  -3.132 128.197  0.00  0.00    +0.000 C 
ATOM      7  C   UNL     1      -6.041  -2.252 128.076  0.00  0.00    +0.000 C 
BRANCH   3  11
ATOM      8  C   UNL     1      -9.583  -3.385 123.525  0.00  0.00    +0.000 C 
ATOM      9  C   UNL     1      -8.495  -2.909 124.445  0.00  0.00    +0.000 C 
ATOM     10  C   UNL     1      -7.162  -3.587 124.286  0.00  0.00    +0.000 C 
ATOM     11  C   UNL     1      -8.705  -1.936 125.362  0.00  0.00    +0.000 C 
ENDBRANCH   3  11
ENDBRANCH   1   4
BRANCH   1  12
ATOM     12  O   UNL     1      -6.523   1.096 126.987  0.00  0.00    +0.000 OA
BRANCH  12  13
ATOM     13  C   UNL     1      -7.084   2.287 126.397  0.00  0.00    +0.000 C 
ATOM     14  C   UNL     1      -6.633   3.575 127.069  0.00  0.00    +0.000 C 
ATOM     15  C   UNL     1      -6.108   4.379 125.912  0.00  0.00    +0.000 C 
ATOM     16  O   UNL     1      -5.741   5.543 126.001  0.00  0.00    +0.000 OA
ATOM     17  C   UNL     1      -6.061   3.598 124.644  0.00  0.00    +0.000 C 
ATOM     18  C   UNL     1      -6.570   2.392 124.972  0.00  0.00    +0.000 C 
ATOM     19  C   UNL     1      -6.733   1.150 124.148  0.00  0.00    +0.000 C 
BRANCH  17  20
ATOM     20  C   UNL     1      -5.514   4.242 123.390  0.00  0.00    +0.000 C 
BRANCH  20  21
ATOM     21  C   UNL     1      -6.142   3.758 122.114  0.00  0.00    +0.000 C 
ATOM     22  C   UNL     1      -5.649   3.669 120.878  0.00  0.00    +0.000 C 
ENDBRANCH  20  21
ENDBRANCH  17  20
ENDBRANCH  12  13
ENDBRANCH   1  12
TORSDOF 6
ENDMDL
