MODEL 1
REMARK VINA RESULT:      -5.8      0.000      0.000
REMARK  Name = Biotin
REMARK  6 active torsions:
REMARK  status: ('A' for Active; 'I' for Inactive)
REMARK    1  A    between atoms: C_5  and  C_6
REMARK    2  A    between atoms: C_6  and  C_7
REMARK    3  A    between atoms: C_7  and  C_8
REMARK    4  A    between atoms: C_8  and  C_9
REMARK    5  A    between atoms: C_9  and  C_10
REMARK    6  A    between atoms: C_10  and  O_11
REMARK                            x       y       z     vdW  Elec       q    Type
REMARK                         _______ _______ _______ _____ _____    ______ ____
ROOT
ATOM      1  C   UNL     1      -8.327   6.054 132.209  0.00  0.00    +0.000 C 
ATOM      2  C   UNL     1      -7.911   6.190 130.742  0.00  0.00    +0.000 C 
ATOM      3  S   UNL     1      -9.366   5.746 129.779  0.00  0.00    +0.000 S 
ATOM      4  C   UNL     1     -10.453   6.565 130.970  0.00  0.00    +0.000 C 
ATOM      5  C   UNL     1      -9.859   6.236 132.348  0.00  0.00    +0.000 C 
ATOM      6  N   UNL     1     -10.295   4.971 132.908  0.00  0.00    +0.000 N 
ATOM      7  C   UNL     1      -9.263   4.087 133.076  0.00  0.00    +0.000 C 
ATOM      8  O   UNL     1      -9.374   2.942 133.481  0.00  0.00    +0.000 OA
ATOM      9  N   UNL     1      -8.097   4.721 132.732  0.00  0.00    +0.000 N 
ATOM     10  H   UNL     1     -11.241   4.678 133.117  0.00  0.00    +0.000 HD
ATOM     11  H   UNL     1      -7.210   4.243 132.811  0.00  0.00    +0.000 HD
ENDROOT
BRANCH   4  12
ATOM     12  C   UNL     1     -11.901   6.149 130.787  0.00  0.00    +0.000 C 
BRANCH  12  13
ATOM     13  C   UNL     1     -12.789   7.384 130.767  0.00  0.00    +0.000 C 
BRANCH  13  14
ATOM     14  C   UNL     1     -12.362   8.256 129.605  0.00  0.00    +0.000 C 
BRANCH  14  15
ATOM     15  C   UNL     1     -12.787   7.661 128.279  0.00  0.00    +0.000 C 
BRANCH  15  16
ATOM     16  C   UNL     1     -11.702   7.617 127.229  0.00  0.00    +0.000 C 
ATOM     17  O   UNL     1     -10.811   8.455 127.194  0.00  0.00    +0.000 OA
BRANCH  16  18
ATOM     18  O   UNL     1     -11.754   6.620 126.326  0.00  0.00    +0.000 OA
ATOM     19  H   UNL     1     -12.202   5.792 126.578  0.00  0.00    +0.000 HD
ENDBRANCH  16  18
ENDBRANCH  15  16
ENDBRANCH  14  15
ENDBRANCH  13  14
ENDBRANCH  12  13
ENDBRANCH   4  12
TORSDOF 6
ENDMDL
MODEL 2
REMARK VINA RESULT:      -5.8      3.116      5.309
REMARK  Name = Biotin
REMARK  6 active torsions:
REMARK  status: ('A' for Active; 'I' for Inactive)
REMARK    1  A    between atoms: C_5  and  C_6
REMARK    2  A    between atoms: C_6  and  C_7
REMARK    3  A    between atoms: C_7  and  C_8
REMARK    4  A    between atoms: C_8  and  C_9
REMARK    5  A    between atoms: C_9  and  C_10
REMARK    6  A    between atoms: C_10  and  O_11
REMARK                            x       y       z     vdW  Elec       q    Type
REMARK                         _______ _______ _______ _____ _____    ______ ____
ROOT
ATOM      1  C   UNL     1     -11.625   8.660 128.151  0.00  0.00    +0.000 C 
ATOM      2  C   UNL     1     -13.146   8.526 128.273  0.00  0.00    +0.000 C 
ATOM      3  S   UNL     1     -13.431   6.955 129.106  0.00  0.00    +0.000 S 
ATOM      4  C   UNL     1     -11.995   7.216 130.174  0.00  0.00    +0.000 C 
ATOM      5  C   UNL     1     -10.926   7.842 129.265  0.00  0.00    +0.000 C 
ATOM      6  N   UNL     1     -10.128   6.884 128.522  0.00  0.00    +0.000 N 
ATOM      7  C   UNL     1     -10.288   7.003 127.168  0.00  0.00    +0.000 C 
ATOM      8  O   UNL     1      -9.769   6.286 126.330  0.00  0.00    +0.000 OA
ATOM      9  N   UNL     1     -11.111   8.074 126.928  0.00  0.00    +0.000 N 
ATOM     10  H   UNL     1      -9.546   6.143 128.891  0.00  0.00    +0.000 HD
ATOM     11  H   UNL     1     -11.335   8.347 125.981  0.00  0.00    +0.000 HD
ENDROOT
BRANCH   4  12
ATOM     12  C   UNL     1     -11.569   5.933 130.865  0.00  0.00    +0.000 C 
BRANCH  12  13
ATOM     13  C   UNL     1     -10.746   6.267 132.101  0.00  0.00    +0.000 C 
BRANCH  13  14
ATOM     14  C   UNL     1      -9.526   5.370 132.114  0.00  0.00    +0.000 C 
BRANCH  14  15
ATOM     15  C   UNL     1      -8.248   6.173 132.225  0.00  0.00    +0.000 C 
BRANCH  15  16
ATOM     16  C   UNL     1      -7.575   6.477 130.908  0.00  0.00    +0.000 C 
ATOM     17  O   UNL     1      -6.787   7.407 130.791  0.00  0.00    +0.000 OA
BRANCH  16  18
ATOM     18  O   UNL     1      -7.877   5.687 129.861  0.00  0.00    +0.000 OA
ATOM     19  H   UNL     1      -8.509   4.958 129.999  0.00  0.00    +0.000 HD
ENDBRANCH  16  18
ENDBRANCH  15  16
ENDBRANCH  14  15
ENDBRANCH  13  14
ENDBRANCH  12  13
ENDBRANCH   4  12
TORSDOF 6
ENDMDL
MODEL 3
REMARK VINA RESULT:      -5.7      9.268     10.610
REMARK  Name = Biotin
REMARK  6 active torsions:
REMARK  status: ('A' for Active; 'I' for Inactive)
REMARK    1  A    between atoms: C_5  and  C_6
REMARK    2  A    between atoms: C_6  and  C_7
REMARK    3  A    between atoms: C_7  and  C_8
REMARK    4  A    between atoms: C_8  and  C_9
REMARK    5  A    between atoms: C_9  and  C_10
REMARK    6  A    between atoms: C_10  and  O_11
REMARK                            x       y       z     vdW  Elec       q    Type
REMARK                         _______ _______ _______ _____ _____    ______ ____
ROOT
ATOM      1  C   UNL     1      -8.735   2.184 124.611  0.00  0.00    +0.000 C 
ATOM      2  C   UNL     1      -8.535   1.844 126.091  0.00  0.00    +0.000 C 
ATOM      3  S   UNL     1      -7.959   0.138 126.125  0.00  0.00    +0.000 S 
ATOM      4  C   UNL     1      -6.962   0.403 124.639  0.00  0.00    +0.000 C 
ATOM      5  C   UNL     1      -7.823   1.294 123.731  0.00  0.00    +0.000 C 
ATOM      6  N   UNL     1      -8.768   0.573 122.898  0.00  0.00    +0.000 N 
ATOM      7  C   UNL     1     -10.069   0.885 123.187  0.00  0.00    +0.000 C 
ATOM      8  O   UNL     1     -11.049   0.380 122.666  0.00  0.00    +0.000 OA
ATOM      9  N   UNL     1     -10.070   1.869 124.143  0.00  0.00    +0.000 N 
ATOM     10  H   UNL     1      -8.568  -0.139 122.207  0.00  0.00    +0.000 HD
ATOM     11  H   UNL     1     -10.940   2.259 124.477  0.00  0.00    +0.000 HD
ENDROOT
BRANCH   4  12
ATOM     12  C   UNL     1      -6.526  -0.909 124.014  0.00  0.00    +0.000 C 
BRANCH  12  13
ATOM     13  C   UNL     1      -6.629  -2.025 125.043  0.00  0.00    +0.000 C 
BRANCH  13  14
ATOM     14  C   UNL     1      -6.824  -3.334 124.305  0.00  0.00    +0.000 C 
BRANCH  14  15
ATOM     15  C   UNL     1      -8.147  -3.978 124.661  0.00  0.00    +0.000 C 
BRANCH  15  16
ATOM     16  C   UNL     1      -9.352  -3.083 124.499  0.00  0.00    +0.000 C 
ATOM     17  O   UNL     1      -9.630  -2.571 123.422  0.00  0.00    +0.000 OA
BRANCH  16  18
ATOM     18  O   UNL     1     -10.111  -2.862 125.589  0.00  0.00    +0.000 OA
ATOM     19  H   UNL     1     -11.040  -2.597 125.458  0.00  0.00    +0.000 HD
ENDBRANCH  16  18
ENDBRANCH  15  16
ENDBRANCH  14  15
ENDBRANCH  13  14
ENDBRANCH  12  13
ENDBRANCH   4  12
TORSDOF 6
ENDMDL
MODEL 4
REMARK VINA RESULT:      -5.5      3.122      5.511
REMARK  Name = Biotin
REMARK  6 active torsions:
REMARK  status: ('A' for Active; 'I' for Inactive)
REMARK    1  A    between atoms: C_5  and  C_6
REMARK    2  A    between atoms: C_6  and  C_7
REMARK    3  A    between atoms: C_7  and  C_8
REMARK    4  A    between atoms: C_8  and  C_9
REMARK    5  A    between atoms: C_9  and  C_10
REMARK    6  A    between atoms: C_10  and  O_11
REMARK                            x       y       z     vdW  Elec       q    Type
REMARK                         _______ _______ _______ _____ _____    ______ ____
ROOT
ATOM      1  C   UNL     1     -13.099   8.199 128.239  0.00  0.00    +0.000 C 
ATOM      2  C   UNL     1     -11.902   8.018 127.301  0.00  0.00    +0.000 C 
ATOM      3  S   UNL     1     -10.468   7.825 128.374  0.00  0.00    +0.000 S 
ATOM      4  C   UNL     1     -11.434   6.855 129.556  0.00  0.00    +0.000 C 
ATOM      5  C   UNL     1     -12.809   7.540 129.610  0.00  0.00    +0.000 C 
ATOM      6  N   UNL     1     -12.895   8.651 130.538  0.00  0.00    +0.000 N 
ATOM      7  C   UNL     1     -13.153   9.841 129.912  0.00  0.00    +0.000 C 
ATOM      8  O   UNL     1     -13.222  10.927 130.461  0.00  0.00    +0.000 OA
ATOM      9  N   UNL     1     -13.336   9.589 128.576  0.00  0.00    +0.000 N 
ATOM     10  H   UNL     1     -12.733   8.639 131.537  0.00  0.00    +0.000 HD
ATOM     11  H   UNL     1     -13.564  10.340 127.939  0.00  0.00    +0.000 HD
ENDROOT
BRANCH   4  12
ATOM     12  C   UNL     1     -10.730   6.740 130.896  0.00  0.00    +0.000 C 
BRANCH  12  13
ATOM     13  C   UNL     1      -9.248   7.035 130.722  0.00  0.00    +0.000 C 
BRANCH  13  14
ATOM     14  C   UNL     1      -8.464   5.845 131.237  0.00  0.00    +0.000 C 
BRANCH  14  15
ATOM     15  C   UNL     1      -7.712   5.152 130.122  0.00  0.00    +0.000 C 
BRANCH  15  16
ATOM     16  C   UNL     1      -8.586   4.482 129.090  0.00  0.00    +0.000 C 
ATOM     17  O   UNL     1      -9.421   3.643 129.404  0.00  0.00    +0.000 OA
BRANCH  16  18
ATOM     18  O   UNL     1      -8.411   4.838 127.803  0.00  0.00    +0.000 OA
ATOM     19  H   UNL     1      -7.502   4.883 127.456  0.00  0.00    +0.000 HD
ENDBRANCH  16  18
ENDBRANCH  15  16
ENDBRANCH  14  15
ENDBRANCH  13  14
ENDBRANCH  12  13
ENDBRANCH   4  12
TORSDOF 6
ENDMDL
MODEL 5
REMARK VINA RESULT:      -5.4      8.227      9.431
REMARK  Name = Biotin
REMARK  6 active torsions:
REMARK  status: ('A' for Active; 'I' for Inactive)
REMARK    1  A    between atoms: C_5  and  C_6
REMARK    2  A    between atoms: C_6  and  C_7
REMARK    3  A    between atoms: C_7  and  C_8
REMARK    4  A    between atoms: C_8  and  C_9
REMARK    5  A    between atoms: C_9  and  C_10
REMARK    6  A    between atoms: C_10  and  O_11
REMARK                            x       y       z     vdW  Elec       q    Type
REMARK                         _______ _______ _______ _____ _____    ______ ____
ROOT
ATOM      1  C   UNL     1      -8.670   1.452 126.006  0.00  0.00    +0.000 C 
ATOM      2  C   UNL     1      -7.326   0.720 125.987  0.00  0.00    +0.000 C 
ATOM      3  S   UNL     1      -6.519   1.222 124.458  0.00  0.00    +0.000 S 
ATOM      4  C   UNL     1      -7.152   2.908 124.631  0.00  0.00    +0.000 C 
ATOM      5  C   UNL     1      -8.586   2.746 125.159  0.00  0.00    +0.000 C 
ATOM      6  N   UNL     1      -9.589   2.537 124.132  0.00  0.00    +0.000 N 
ATOM      7  C   UNL     1     -10.204   1.319 124.238  0.00  0.00    +0.000 C 
ATOM      8  O   UNL     1     -11.044   0.883 123.469  0.00  0.00    +0.000 OA
ATOM      9  N   UNL     1      -9.726   0.696 125.362  0.00  0.00    +0.000 N 
ATOM     10  H   UNL     1      -9.819   3.145 123.357  0.00  0.00    +0.000 HD
ATOM     11  H   UNL     1     -10.077  -0.213 125.634  0.00  0.00    +0.000 HD
ENDROOT
BRANCH   4  12
ATOM     12  C   UNL     1      -7.037   3.687 123.333  0.00  0.00    +0.000 C 
BRANCH  12  13
ATOM     13  C   UNL     1      -6.370   2.822 122.274  0.00  0.00    +0.000 C 
BRANCH  13  14
ATOM     14  C   UNL     1      -5.430   3.697 121.472  0.00  0.00    +0.000 C 
BRANCH  14  15
ATOM     15  C   UNL     1      -6.038   4.091 120.143  0.00  0.00    +0.000 C 
BRANCH  15  16
ATOM     16  C   UNL     1      -5.542   5.404 119.584  0.00  0.00    +0.000 C 
ATOM     17  O   UNL     1      -5.884   5.799 118.478  0.00  0.00    +0.000 OA
BRANCH  16  18
ATOM     18  O   UNL     1      -4.702   6.126 120.351  0.00  0.00    +0.000 OA
ATOM     19  H   UNL     1      -4.702   7.095 120.248  0.00  0.00    +0.000 HD
ENDBRANCH  16  18
ENDBRANCH  15  16
ENDBRANCH  14  15
ENDBRANCH  13  14
ENDBRANCH  12  13
ENDBRANCH   4  12
TORSDOF 6
ENDMDL
MODEL 6
REMARK VINA RESULT:      -5.4      2.288      2.717
REMARK  Name = Biotin
REMARK  6 active torsions:
REMARK  status: ('A' for Active; 'I' for Inactive)
REMARK    1  A    between atoms: C_5  and  C_6
REMARK    2  A    between atoms: C_6  and  C_7
REMARK    3  A    between atoms: C_7  and  C_8
REMARK    4  A    between atoms: C_8  and  C_9
REMARK    5  A    between atoms: C_9  and  C_10
REMARK    6  A    between atoms: C_10  and  O_11
REMARK                            x       y       z     vdW  Elec       q    Type
REMARK                         _______ _______ _______ _____ _____    ______ ____
ROOT
ATOM      1  C   UNL     1      -9.543   3.693 130.957  0.00  0.00    +0.000 C 
ATOM      2  C   UNL     1      -9.489   4.041 132.447  0.00  0.00    +0.000 C 
ATOM      3  S   UNL     1      -9.586   5.837 132.532  0.00  0.00    +0.000 S 
ATOM      4  C   UNL     1     -10.768   5.878 131.164  0.00  0.00    +0.000 C 
ATOM      5  C   UNL     1     -10.273   4.812 130.173  0.00  0.00    +0.000 C 
ATOM      6  N   UNL     1      -9.265   5.277 129.240  0.00  0.00    +0.000 N 
ATOM      7  C   UNL     1      -8.070   4.626 129.390  0.00  0.00    +0.000 C 
ATOM      8  O   UNL     1      -7.051   4.866 128.764  0.00  0.00    +0.000 OA
ATOM      9  N   UNL     1      -8.229   3.655 130.346  0.00  0.00    +0.000 N 
ATOM     10  H   UNL     1      -9.340   6.031 128.570  0.00  0.00    +0.000 HD
ATOM     11  H   UNL     1      -7.462   3.042 130.588  0.00  0.00    +0.000 HD
ENDROOT
BRANCH   4  12
ATOM     12  C   UNL     1     -10.904   7.272 130.580  0.00  0.00    +0.000 C 
BRANCH  12  13
ATOM     13  C   UNL     1     -12.182   7.362 129.761  0.00  0.00    +0.000 C 
BRANCH  13  14
ATOM     14  C   UNL     1     -11.929   8.284 128.587  0.00  0.00    +0.000 C 
BRANCH  14  15
ATOM     15  C   UNL     1     -12.126   7.570 127.267  0.00  0.00    +0.000 C 
BRANCH  15  16
ATOM     16  C   UNL     1     -10.868   7.391 126.450  0.00  0.00    +0.000 C 
ATOM     17  O   UNL     1      -9.980   6.626 126.802  0.00  0.00    +0.000 OA
BRANCH  16  18
ATOM     18  O   UNL     1     -10.758   8.110 125.317  0.00  0.00    +0.000 OA
ATOM     19  H   UNL     1     -10.595   7.634 124.483  0.00  0.00    +0.000 HD
ENDBRANCH  16  18
ENDBRANCH  15  16
ENDBRANCH  14  15
ENDBRANCH  13  14
ENDBRANCH  12  13
ENDBRANCH   4  12
TORSDOF 6
ENDMDL
MODEL 7
REMARK VINA RESULT:      -5.3      2.369      6.093
REMARK  Name = Biotin
REMARK  6 active torsions:
REMARK  status: ('A' for Active; 'I' for Inactive)
REMARK    1  A    between atoms: C_5  and  C_6
REMARK    2  A    between atoms: C_6  and  C_7
REMARK    3  A    between atoms: C_7  and  C_8
REMARK    4  A    between atoms: C_8  and  C_9
REMARK    5  A    between atoms: C_9  and  C_10
REMARK    6  A    between atoms: C_10  and  O_11
REMARK                            x       y       z     vdW  Elec       q    Type
REMARK                         _______ _______ _______ _____ _____    ______ ____
ROOT
ATOM      1  C   UNL     1     -12.126   8.415 129.263  0.00  0.00    +0.000 C 
ATOM      2  C   UNL     1     -12.783   7.695 130.444  0.00  0.00    +0.000 C 
ATOM      3  S   UNL     1     -11.746   6.262 130.781  0.00  0.00    +0.000 S 
ATOM      4  C   UNL     1     -10.249   7.214 130.424  0.00  0.00    +0.000 C 
ATOM      5  C   UNL     1     -10.611   8.097 129.220  0.00  0.00    +0.000 C 
ATOM      6  N   UNL     1     -10.442   7.457 127.929  0.00  0.00    +0.000 N 
ATOM      7  C   UNL     1     -11.622   7.329 127.248  0.00  0.00    +0.000 C 
ATOM      8  O   UNL     1     -11.757   6.782 126.166  0.00  0.00    +0.000 OA
ATOM      9  N   UNL     1     -12.608   7.937 127.982  0.00  0.00    +0.000 N 
ATOM     10  H   UNL     1      -9.595   7.067 127.536  0.00  0.00    +0.000 HD
ATOM     11  H   UNL     1     -13.557   7.974 127.636  0.00  0.00    +0.000 HD
ENDROOT
BRANCH   4  12
ATOM     12  C   UNL     1      -9.047   6.311 130.212  0.00  0.00    +0.000 C 
BRANCH  12  13
ATOM     13  C   UNL     1      -7.982   6.624 131.251  0.00  0.00    +0.000 C 
BRANCH  13  14
ATOM     14  C   UNL     1      -8.254   5.781 132.479  0.00  0.00    +0.000 C 
BRANCH  14  15
ATOM     15  C   UNL     1      -8.346   4.310 132.133  0.00  0.00    +0.000 C 
BRANCH  15  16
ATOM     16  C   UNL     1      -9.207   3.493 133.065  0.00  0.00    +0.000 C 
ATOM     17  O   UNL     1      -9.337   2.284 132.923  0.00  0.00    +0.000 OA
BRANCH  16  18
ATOM     18  O   UNL     1      -9.835   4.146 134.062  0.00  0.00    +0.000 OA
ATOM     19  H   UNL     1      -9.883   3.718 134.936  0.00  0.00    +0.000 HD
ENDBRANCH  16  18
ENDBRANCH  15  16
ENDBRANCH  14  15
ENDBRANCH  13  14
ENDBRANCH  12  13
ENDBRANCH   4  12
TORSDOF 6
ENDMDL
MODEL 8
REMARK VINA RESULT:      -5.2      3.543      6.129
REMARK  Name = Biotin
REMARK  6 active torsions:
REMARK  status: ('A' for Active; 'I' for Inactive)
REMARK    1  A    between atoms: C_5  and  C_6
REMARK    2  A    between atoms: C_6  and  C_7
REMARK    3  A    between atoms: C_7  and  C_8
REMARK    4  A    between atoms: C_8  and  C_9
REMARK    5  A    between atoms: C_9  and  C_10
REMARK    6  A    between atoms: C_10  and  O_11
REMARK                            x       y       z     vdW  Elec       q    Type
REMARK                         _______ _______ _______ _____ _____    ______ ____
ROOT
ATOM      1  C   UNL     1     -12.215   8.258 129.380  0.00  0.00    +0.000 C 
ATOM      2  C   UNL     1     -12.800   7.471 130.557  0.00  0.00    +0.000 C 
ATOM      3  S   UNL     1     -11.741   6.028 130.752  0.00  0.00    +0.000 S 
ATOM      4  C   UNL     1     -10.270   7.005 130.362  0.00  0.00    +0.000 C 
ATOM      5  C   UNL     1     -10.705   7.951 129.231  0.00  0.00    +0.000 C 
ATOM      6  N   UNL     1     -10.610   7.383 127.900  0.00  0.00    +0.000 N 
ATOM      7  C   UNL     1     -11.828   7.286 127.282  0.00  0.00    +0.000 C 
ATOM      8  O   UNL     1     -12.025   6.799 126.182  0.00  0.00    +0.000 OA
ATOM      9  N   UNL     1     -12.770   7.848 128.105  0.00  0.00    +0.000 N 
ATOM     10  H   UNL     1      -9.787   7.020 127.437  0.00  0.00    +0.000 HD
ATOM     11  H   UNL     1     -13.738   7.898 127.818  0.00  0.00    +0.000 HD
ENDROOT
BRANCH   4  12
ATOM     12  C   UNL     1      -9.081   6.123 130.030  0.00  0.00    +0.000 C 
BRANCH  12  13
ATOM     13  C   UNL     1      -8.176   6.005 131.247  0.00  0.00    +0.000 C 
BRANCH  13  14
ATOM     14  C   UNL     1      -7.094   7.059 131.137  0.00  0.00    +0.000 C 
BRANCH  14  15
ATOM     15  C   UNL     1      -5.725   6.435 130.975  0.00  0.00    +0.000 C 
BRANCH  15  16
ATOM     16  C   UNL     1      -4.612   7.415 130.692  0.00  0.00    +0.000 C 
ATOM     17  O   UNL     1      -3.624   7.487 131.411  0.00  0.00    +0.000 OA
BRANCH  16  18
ATOM     18  O   UNL     1      -4.748   8.215 129.617  0.00  0.00    +0.000 OA
ATOM     19  H   UNL     1      -5.525   8.802 129.574  0.00  0.00    +0.000 HD
ENDBRANCH  16  18
ENDBRANCH  15  16
ENDBRANCH  14  15
ENDBRANCH  13  14
ENDBRANCH  12  13
ENDBRANCH   4  12
TORSDOF 6
ENDMDL
MODEL 9
REMARK VINA RESULT:      -5.1     10.692     12.064
REMARK  Name = Biotin
REMARK  6 active torsions:
REMARK  status: ('A' for Active; 'I' for Inactive)
REMARK    1  A    between atoms: C_5  and  C_6
REMARK    2  A    between atoms: C_6  and  C_7
REMARK    3  A    between atoms: C_7  and  C_8
REMARK    4  A    between atoms: C_8  and  C_9
REMARK    5  A    between atoms: C_9  and  C_10
REMARK    6  A    between atoms: C_10  and  O_11
REMARK                            x       y       z     vdW  Elec       q    Type
REMARK                         _______ _______ _______ _____ _____    ______ ____
ROOT
ATOM      1  C   UNL     1      -7.149  -1.357 123.295  0.00  0.00    +0.000 C 
ATOM      2  C   UNL     1      -8.488  -1.703 122.637  0.00  0.00    +0.000 C 
ATOM      3  S   UNL     1      -9.156  -3.080 123.586  0.00  0.00    +0.000 S 
ATOM      4  C   UNL     1      -8.538  -2.367 125.130  0.00  0.00    +0.000 C 
ATOM      5  C   UNL     1      -7.157  -1.791 124.782  0.00  0.00    +0.000 C 
ATOM      6  N   UNL     1      -6.068  -2.746 124.855  0.00  0.00    +0.000 N 
ATOM      7  C   UNL     1      -5.466  -2.951 123.643  0.00  0.00    +0.000 C 
ATOM      8  O   UNL     1      -4.561  -3.741 123.428  0.00  0.00    +0.000 OA
ATOM      9  N   UNL     1      -6.042  -2.104 122.731  0.00  0.00    +0.000 N 
ATOM     10  H   UNL     1      -5.769  -3.286 125.656  0.00  0.00    +0.000 HD
ATOM     11  H   UNL     1      -5.718  -2.082 121.774  0.00  0.00    +0.000 HD
ENDROOT
BRANCH   4  12
ATOM     12  C   UNL     1      -8.537  -3.384 126.257  0.00  0.00    +0.000 C 
BRANCH  12  13
ATOM     13  C   UNL     1      -8.372  -2.670 127.590  0.00  0.00    +0.000 C 
BRANCH  13  14
ATOM     14  C   UNL     1      -8.424  -3.706 128.693  0.00  0.00    +0.000 C 
BRANCH  14  15
ATOM     15  C   UNL     1      -7.603  -3.282 129.892  0.00  0.00    +0.000 C 
BRANCH  15  16
ATOM     16  C   UNL     1      -6.187  -3.805 129.907  0.00  0.00    +0.000 C 
ATOM     17  O   UNL     1      -5.885  -4.817 130.526  0.00  0.00    +0.000 OA
BRANCH  16  18
ATOM     18  O   UNL     1      -5.262  -3.112 129.215  0.00  0.00    +0.000 OA
ATOM     19  H   UNL     1      -5.568  -2.415 128.606  0.00  0.00    +0.000 HD
ENDBRANCH  16  18
ENDBRANCH  15  16
ENDBRANCH  14  15
ENDBRANCH  13  14
ENDBRANCH  12  13
ENDBRANCH   4  12
TORSDOF 6
ENDMDL
