MODEL 1
REMARK VINA RESULT:      -7.5      0.000      0.000
REMARK  Name = Biperiden
REMARK  6 active torsions:
REMARK  status: ('A' for Active; 'I' for Inactive)
REMARK    1  A    between atoms: O_1  and  C_2
REMARK    2  A    between atoms: C_2  and  C_3
REMARK    3  A    between atoms: C_2  and  C_11
REMARK    4  A    between atoms: C_2  and  C_18
REMARK    5  A    between atoms: C_3  and  C_4
REMARK    6  A    between atoms: C_4  and  N_5
REMARK                            x       y       z     vdW  Elec       q    Type
REMARK                         _______ _______ _______ _____ _____    ______ ____
ROOT
ATOM      1  C   UNL     1      -7.973  -1.550 125.973  0.00  0.00    +0.000 C 
ENDROOT
BRANCH   1   2
ATOM      2  C   UNL     1      -7.878  -2.271 124.393  0.00  0.00    +0.000 C 
ATOM      3  C   UNL     1      -6.965  -3.397 124.615  0.00  0.00    +0.000 C 
ATOM      4  C   UNL     1      -5.622  -2.721 124.448  0.00  0.00    +0.000 C 
ATOM      5  C   UNL     1      -5.917  -1.157 124.133  0.00  0.00    +0.000 C 
ATOM      6  C   UNL     1      -7.014  -1.555 123.196  0.00  0.00    +0.000 C 
ATOM      7  C   UNL     1      -5.906  -2.244 122.332  0.00  0.00    +0.000 C 
ATOM      8  C   UNL     1      -5.161  -3.014 123.081  0.00  0.00    +0.000 C 
ENDBRANCH   1   2
BRANCH   1   9
ATOM      9  C   UNL     1      -7.664  -2.458 127.216  0.00  0.00    +0.000 A 
ATOM     10  C   UNL     1      -8.649  -3.266 127.777  0.00  0.00    +0.000 A 
ATOM     11  C   UNL     1      -8.571  -3.654 129.117  0.00  0.00    +0.000 A 
ATOM     12  C   UNL     1      -7.392  -3.516 129.841  0.00  0.00    +0.000 A 
ATOM     13  C   UNL     1      -6.319  -2.888 129.269  0.00  0.00    +0.000 A 
ATOM     14  C   UNL     1      -6.506  -2.287 128.042  0.00  0.00    +0.000 A 
ENDBRANCH   1   9
BRANCH   1  15
ATOM     15  O   UNL     1      -6.997  -0.524 126.301  0.00  0.00    +0.000 OA
ATOM     16  H   UNL     1      -7.384   0.349 126.482  0.00  0.00    +0.000 HD
ENDBRANCH   1  15
BRANCH   1  17
ATOM     17  C   UNL     1      -9.363  -0.952 125.912  0.00  0.00    +0.000 C 
BRANCH  17  18
ATOM     18  C   UNL     1      -9.476   0.566 125.908  0.00  0.00    +0.000 C 
BRANCH  18  19
ATOM     19  N   UNL     1      -8.905   1.134 124.686  0.00  0.00    +0.000 NA
ATOM     20  C   UNL     1      -9.967   1.278 123.697  0.00  0.00    +0.000 C 
ATOM     21  C   UNL     1      -9.366   1.741 122.384  0.00  0.00    +0.000 C 
ATOM     22  C   UNL     1      -8.604   3.052 122.558  0.00  0.00    +0.000 C 
ATOM     23  C   UNL     1      -7.549   2.933 123.650  0.00  0.00    +0.000 C 
ATOM     24  C   UNL     1      -8.189   2.405 124.911  0.00  0.00    +0.000 C 
ENDBRANCH  18  19
ENDBRANCH  17  18
ENDBRANCH   1  17
TORSDOF 6
ENDMDL
MODEL 2
REMARK VINA RESULT:      -7.4      3.552      7.272
REMARK  Name = Biperiden
REMARK  6 active torsions:
REMARK  status: ('A' for Active; 'I' for Inactive)
REMARK    1  A    between atoms: O_1  and  C_2
REMARK    2  A    between atoms: C_2  and  C_3
REMARK    3  A    between atoms: C_2  and  C_11
REMARK    4  A    between atoms: C_2  and  C_18
REMARK    5  A    between atoms: C_3  and  C_4
REMARK    6  A    between atoms: C_4  and  N_5
REMARK                            x       y       z     vdW  Elec       q    Type
REMARK                         _______ _______ _______ _____ _____    ______ ____
ROOT
ATOM      1  C   UNL     1      -7.016   3.231 123.726  0.00  0.00    +0.000 C 
ENDROOT
BRANCH   1   2
ATOM      2  C   UNL     1      -6.706   1.661 124.406  0.00  0.00    +0.000 C 
ATOM      3  C   UNL     1      -7.361   0.767 123.444  0.00  0.00    +0.000 C 
ATOM      4  C   UNL     1      -8.782   0.772 123.963  0.00  0.00    +0.000 C 
ATOM      5  C   UNL     1      -8.808   1.747 125.258  0.00  0.00    +0.000 C 
ATOM      6  C   UNL     1      -7.522   1.147 125.733  0.00  0.00    +0.000 C 
ATOM      7  C   UNL     1      -8.302  -0.204 125.861  0.00  0.00    +0.000 C 
ATOM      8  C   UNL     1      -8.953  -0.456 124.756  0.00  0.00    +0.000 C 
ENDBRANCH   1   2
BRANCH   1   9
ATOM      9  C   UNL     1      -7.271   3.326 122.179  0.00  0.00    +0.000 A 
ATOM     10  C   UNL     1      -6.227   3.576 121.294  0.00  0.00    +0.000 A 
ATOM     11  C   UNL     1      -6.474   4.163 120.050  0.00  0.00    +0.000 A 
ATOM     12  C   UNL     1      -7.762   4.236 119.531  0.00  0.00    +0.000 A 
ATOM     13  C   UNL     1      -8.822   3.828 120.294  0.00  0.00    +0.000 A 
ATOM     14  C   UNL     1      -8.575   3.496 121.609  0.00  0.00    +0.000 A 
ENDBRANCH   1   9
BRANCH   1  15
ATOM     15  O   UNL     1      -8.248   3.898 124.113  0.00  0.00    +0.000 OA
ATOM     16  H   UNL     1      -9.028   3.621 123.604  0.00  0.00    +0.000 HD
ENDBRANCH   1  15
BRANCH   1  17
ATOM     17  C   UNL     1      -5.818   3.994 124.253  0.00  0.00    +0.000 C 
BRANCH  17  18
ATOM     18  C   UNL     1      -5.988   4.753 125.561  0.00  0.00    +0.000 C 
BRANCH  18  19
ATOM     19  N   UNL     1      -4.988   4.339 126.546  0.00  0.00    +0.000 NA
ATOM     20  C   UNL     1      -3.977   3.531 125.872  0.00  0.00    +0.000 C 
ATOM     21  C   UNL     1      -3.008   2.985 126.902  0.00  0.00    +0.000 C 
ATOM     22  C   UNL     1      -2.359   4.113 127.699  0.00  0.00    +0.000 C 
ATOM     23  C   UNL     1      -3.410   5.012 128.336  0.00  0.00    +0.000 C 
ATOM     24  C   UNL     1      -4.386   5.469 127.280  0.00  0.00    +0.000 C 
ENDBRANCH  18  19
ENDBRANCH  17  18
ENDBRANCH   1  17
TORSDOF 6
ENDMDL
MODEL 3
REMARK VINA RESULT:      -7.2      7.666      9.706
REMARK  Name = Biperiden
REMARK  6 active torsions:
REMARK  status: ('A' for Active; 'I' for Inactive)
REMARK    1  A    between atoms: O_1  and  C_2
REMARK    2  A    between atoms: C_2  and  C_3
REMARK    3  A    between atoms: C_2  and  C_11
REMARK    4  A    between atoms: C_2  and  C_18
REMARK    5  A    between atoms: C_3  and  C_4
REMARK    6  A    between atoms: C_4  and  N_5
REMARK                            x       y       z     vdW  Elec       q    Type
REMARK                         _______ _______ _______ _____ _____    ______ ____
ROOT
ATOM      1  C   UNL     1      -8.867   6.131 130.502  0.00  0.00    +0.000 C 
ENDROOT
BRANCH   1   2
ATOM      2  C   UNL     1      -9.954   7.481 130.352  0.00  0.00    +0.000 C 
ATOM      3  C   UNL     1     -11.262   6.858 130.582  0.00  0.00    +0.000 C 
ATOM      4  C   UNL     1     -11.597   6.362 129.193  0.00  0.00    +0.000 C 
ATOM      5  C   UNL     1     -10.354   6.769 128.234  0.00  0.00    +0.000 C 
ATOM      6  C   UNL     1     -10.300   8.117 128.880  0.00  0.00    +0.000 C 
ATOM      7  C   UNL     1     -11.734   8.355 128.302  0.00  0.00    +0.000 C 
ATOM      8  C   UNL     1     -12.513   7.348 128.595  0.00  0.00    +0.000 C 
ENDBRANCH   1   2
BRANCH   1   9
ATOM      9  C   UNL     1      -9.357   4.878 131.312  0.00  0.00    +0.000 A 
ATOM     10  C   UNL     1      -9.279   4.846 132.701  0.00  0.00    +0.000 A 
ATOM     11  C   UNL     1      -9.208   3.628 133.381  0.00  0.00    +0.000 A 
ATOM     12  C   UNL     1      -9.513   2.429 132.747  0.00  0.00    +0.000 A 
ATOM     13  C   UNL     1      -9.782   2.424 131.405  0.00  0.00    +0.000 A 
ATOM     14  C   UNL     1      -9.593   3.600 130.709  0.00  0.00    +0.000 A 
ENDBRANCH   1   9
BRANCH   1  15
ATOM     15  O   UNL     1      -8.538   5.398 129.292  0.00  0.00    +0.000 OA
ATOM     16  H   UNL     1      -9.082   5.635 128.522  0.00  0.00    +0.000 HD
ENDBRANCH   1  15
BRANCH   1  17
ATOM     17  C   UNL     1      -7.638   6.835 131.040  0.00  0.00    +0.000 C 
BRANCH  17  18
ATOM     18  C   UNL     1      -6.327   6.061 131.037  0.00  0.00    +0.000 C 
BRANCH  18  19
ATOM     19  N   UNL     1      -5.478   6.467 129.916  0.00  0.00    +0.000 NA
ATOM     20  C   UNL     1      -4.558   7.501 130.377  0.00  0.00    +0.000 C 
ATOM     21  C   UNL     1      -3.764   8.024 129.196  0.00  0.00    +0.000 C 
ATOM     22  C   UNL     1      -3.008   6.897 128.499  0.00  0.00    +0.000 C 
ATOM     23  C   UNL     1      -3.951   5.773 128.090  0.00  0.00    +0.000 C 
ATOM     24  C   UNL     1      -4.764   5.339 129.286  0.00  0.00    +0.000 C 
ENDBRANCH  18  19
ENDBRANCH  17  18
ENDBRANCH   1  17
TORSDOF 6
ENDMDL
MODEL 4
REMARK VINA RESULT:      -6.9      1.413      2.094
REMARK  Name = Biperiden
REMARK  6 active torsions:
REMARK  status: ('A' for Active; 'I' for Inactive)
REMARK    1  A    between atoms: O_1  and  C_2
REMARK    2  A    between atoms: C_2  and  C_3
REMARK    3  A    between atoms: C_2  and  C_11
REMARK    4  A    between atoms: C_2  and  C_18
REMARK    5  A    between atoms: C_3  and  C_4
REMARK    6  A    between atoms: C_4  and  N_5
REMARK                            x       y       z     vdW  Elec       q    Type
REMARK                         _______ _______ _______ _____ _____    ______ ____
ROOT
ATOM      1  C   UNL     1      -7.648  -0.857 126.851  0.00  0.00    +0.000 C 
ENDROOT
BRANCH   1   2
ATOM      2  C   UNL     1      -8.988  -1.576 126.007  0.00  0.00    +0.000 C 
ATOM      3  C   UNL     1      -8.765  -3.009 126.224  0.00  0.00    +0.000 C 
ATOM      4  C   UNL     1      -7.810  -3.330 125.095  0.00  0.00    +0.000 C 
ATOM      5  C   UNL     1      -7.552  -1.947 124.288  0.00  0.00    +0.000 C 
ATOM      6  C   UNL     1      -9.013  -1.631 124.367  0.00  0.00    +0.000 C 
ATOM      7  C   UNL     1      -9.247  -2.912 123.499  0.00  0.00    +0.000 C 
ATOM      8  C   UNL     1      -8.610  -3.930 124.015  0.00  0.00    +0.000 C 
ENDBRANCH   1   2
BRANCH   1   9
ATOM      9  C   UNL     1      -7.084  -1.607 128.110  0.00  0.00    +0.000 A 
ATOM     10  C   UNL     1      -5.812  -2.171 128.100  0.00  0.00    +0.000 A 
ATOM     11  C   UNL     1      -5.500  -3.236 128.948  0.00  0.00    +0.000 A 
ATOM     12  C   UNL     1      -6.319  -3.568 130.021  0.00  0.00    +0.000 A 
ATOM     13  C   UNL     1      -7.509  -2.913 130.190  0.00  0.00    +0.000 A 
ATOM     14  C   UNL     1      -7.912  -2.047 129.194  0.00  0.00    +0.000 A 
ENDBRANCH   1   9
BRANCH   1  15
ATOM     15  O   UNL     1      -6.377  -0.782 126.150  0.00  0.00    +0.000 OA
ATOM     16  H   UNL     1      -5.896   0.052 126.287  0.00  0.00    +0.000 HD
ENDBRANCH   1  15
BRANCH   1  17
ATOM     17  C   UNL     1      -8.197   0.534 127.092  0.00  0.00    +0.000 C 
BRANCH  17  18
ATOM     18  C   UNL     1      -7.445   1.704 126.475  0.00  0.00    +0.000 C 
BRANCH  18  19
ATOM     19  N   UNL     1      -7.620   1.737 125.023  0.00  0.00    +0.000 NA
ATOM     20  C   UNL     1      -9.013   2.056 124.728  0.00  0.00    +0.000 C 
ATOM     21  C   UNL     1      -9.238   1.963 123.231  0.00  0.00    +0.000 C 
ATOM     22  C   UNL     1      -8.295   2.892 122.473  0.00  0.00    +0.000 C 
ATOM     23  C   UNL     1      -6.842   2.621 122.841  0.00  0.00    +0.000 C 
ATOM     24  C   UNL     1      -6.690   2.658 124.342  0.00  0.00    +0.000 C 
ENDBRANCH  18  19
ENDBRANCH  17  18
ENDBRANCH   1  17
TORSDOF 6
ENDMDL
MODEL 5
REMARK VINA RESULT:      -6.8      7.454      9.609
REMARK  Name = Biperiden
REMARK  6 active torsions:
REMARK  status: ('A' for Active; 'I' for Inactive)
REMARK    1  A    between atoms: O_1  and  C_2
REMARK    2  A    between atoms: C_2  and  C_3
REMARK    3  A    between atoms: C_2  and  C_11
REMARK    4  A    between atoms: C_2  and  C_18
REMARK    5  A    between atoms: C_3  and  C_4
REMARK    6  A    between atoms: C_4  and  N_5
REMARK                            x       y       z     vdW  Elec       q    Type
REMARK                         _______ _______ _______ _____ _____    ______ ____
ROOT
ATOM      1  C   UNL     1      -8.993   5.176 131.818  0.00  0.00    +0.000 C 
ENDROOT
BRANCH   1   2
ATOM      2  C   UNL     1      -7.844   5.811 132.959  0.00  0.00    +0.000 C 
ATOM      3  C   UNL     1      -6.713   4.888 132.814  0.00  0.00    +0.000 C 
ATOM      4  C   UNL     1      -7.121   3.777 133.757  0.00  0.00    +0.000 C 
ATOM      5  C   UNL     1      -8.553   4.198 134.390  0.00  0.00    +0.000 C 
ATOM      6  C   UNL     1      -8.060   5.599 134.571  0.00  0.00    +0.000 C 
ATOM      7  C   UNL     1      -7.006   5.005 135.564  0.00  0.00    +0.000 C 
ATOM      8  C   UNL     1      -6.387   3.994 135.015  0.00  0.00    +0.000 C 
ENDBRANCH   1   2
BRANCH   1   9
ATOM      9  C   UNL     1      -8.455   4.252 130.668  0.00  0.00    +0.000 A 
ATOM     10  C   UNL     1      -7.947   4.793 129.491  0.00  0.00    +0.000 A 
ATOM     11  C   UNL     1      -7.955   4.052 128.307  0.00  0.00    +0.000 A 
ATOM     12  C   UNL     1      -8.176   2.679 128.317  0.00  0.00    +0.000 A 
ATOM     13  C   UNL     1      -8.501   2.056 129.491  0.00  0.00    +0.000 A 
ATOM     14  C   UNL     1      -8.739   2.849 130.593  0.00  0.00    +0.000 A 
ENDBRANCH   1   9
BRANCH   1  15
ATOM     15  O   UNL     1      -9.976   4.227 132.314  0.00  0.00    +0.000 OA
ATOM     16  H   UNL     1      -9.648   3.314 132.384  0.00  0.00    +0.000 HD
ENDBRANCH   1  15
BRANCH   1  17
ATOM     17  C   UNL     1      -9.674   6.457 131.381  0.00  0.00    +0.000 C 
BRANCH  17  18
ATOM     18  C   UNL     1     -11.171   6.401 131.113  0.00  0.00    +0.000 C 
BRANCH  18  19
ATOM     19  N   UNL     1     -11.517   7.139 129.897  0.00  0.00    +0.000 NA
ATOM     20  C   UNL     1     -10.289   7.438 129.168  0.00  0.00    +0.000 C 
ATOM     21  C   UNL     1     -10.619   8.316 127.977  0.00  0.00    +0.000 C 
ATOM     22  C   UNL     1     -11.642   7.645 127.065  0.00  0.00    +0.000 C 
ATOM     23  C   UNL     1     -12.894   7.253 127.839  0.00  0.00    +0.000 C 
ATOM     24  C   UNL     1     -12.502   6.440 129.049  0.00  0.00    +0.000 C 
ENDBRANCH  18  19
ENDBRANCH  17  18
ENDBRANCH   1  17
TORSDOF 6
ENDMDL
MODEL 6
REMARK VINA RESULT:      -6.8      1.832      5.888
REMARK  Name = Biperiden
REMARK  6 active torsions:
REMARK  status: ('A' for Active; 'I' for Inactive)
REMARK    1  A    between atoms: O_1  and  C_2
REMARK    2  A    between atoms: C_2  and  C_3
REMARK    3  A    between atoms: C_2  and  C_11
REMARK    4  A    between atoms: C_2  and  C_18
REMARK    5  A    between atoms: C_3  and  C_4
REMARK    6  A    between atoms: C_4  and  N_5
REMARK                            x       y       z     vdW  Elec       q    Type
REMARK                         _______ _______ _______ _____ _____    ______ ____
ROOT
ATOM      1  C   UNL     1      -7.541  -1.605 125.627  0.00  0.00    +0.000 C 
ENDROOT
BRANCH   1   2
ATOM      2  C   UNL     1      -9.055  -1.017 125.004  0.00  0.00    +0.000 C 
ATOM      3  C   UNL     1      -8.751  -0.810 123.584  0.00  0.00    +0.000 C 
ATOM      4  C   UNL     1      -8.158   0.581 123.612  0.00  0.00    +0.000 C 
ATOM      5  C   UNL     1      -8.171   1.068 125.159  0.00  0.00    +0.000 C 
ATOM      6  C   UNL     1      -9.552   0.514 125.320  0.00  0.00    +0.000 C 
ATOM      7  C   UNL     1     -10.003   1.567 124.253  0.00  0.00    +0.000 C 
ATOM      8  C   UNL     1      -9.225   1.510 123.205  0.00  0.00    +0.000 C 
ENDBRANCH   1   2
BRANCH   1   9
ATOM      9  C   UNL     1      -6.645  -2.479 124.680  0.00  0.00    +0.000 A 
ATOM     10  C   UNL     1      -6.855  -3.849 124.555  0.00  0.00    +0.000 A 
ATOM     11  C   UNL     1      -5.814  -4.695 124.165  0.00  0.00    +0.000 A 
ATOM     12  C   UNL     1      -4.646  -4.190 123.603  0.00  0.00    +0.000 A 
ATOM     13  C   UNL     1      -4.463  -2.836 123.530  0.00  0.00    +0.000 A 
ATOM     14  C   UNL     1      -5.389  -2.028 124.155  0.00  0.00    +0.000 A 
ENDBRANCH   1   9
BRANCH   1  15
ATOM     15  O   UNL     1      -6.514  -0.623 125.929  0.00  0.00    +0.000 OA
ATOM     16  H   UNL     1      -6.296  -0.552 126.874  0.00  0.00    +0.000 HD
ENDBRANCH   1  15
BRANCH   1  17
ATOM     17  C   UNL     1      -8.017  -2.275 126.900  0.00  0.00    +0.000 C 
BRANCH  17  18
ATOM     18  C   UNL     1      -7.367  -1.844 128.207  0.00  0.00    +0.000 C 
BRANCH  18  19
ATOM     19  N   UNL     1      -6.420  -2.853 128.683  0.00  0.00    +0.000 NA
ATOM     20  C   UNL     1      -5.078  -2.282 128.659  0.00  0.00    +0.000 C 
ATOM     21  C   UNL     1      -4.073  -3.357 129.023  0.00  0.00    +0.000 C 
ATOM     22  C   UNL     1      -4.382  -3.961 130.390  0.00  0.00    +0.000 C 
ATOM     23  C   UNL     1      -5.812  -4.483 130.450  0.00  0.00    +0.000 C 
ATOM     24  C   UNL     1      -6.762  -3.395 130.013  0.00  0.00    +0.000 C 
ENDBRANCH  18  19
ENDBRANCH  17  18
ENDBRANCH   1  17
TORSDOF 6
ENDMDL
MODEL 7
REMARK VINA RESULT:      -6.7      2.878      4.117
REMARK  Name = Biperiden
REMARK  6 active torsions:
REMARK  status: ('A' for Active; 'I' for Inactive)
REMARK    1  A    between atoms: O_1  and  C_2
REMARK    2  A    between atoms: C_2  and  C_3
REMARK    3  A    between atoms: C_2  and  C_11
REMARK    4  A    between atoms: C_2  and  C_18
REMARK    5  A    between atoms: C_3  and  C_4
REMARK    6  A    between atoms: C_4  and  N_5
REMARK                            x       y       z     vdW  Elec       q    Type
REMARK                         _______ _______ _______ _____ _____    ______ ____
ROOT
ATOM      1  C   UNL     1      -6.937  -1.001 127.155  0.00  0.00    +0.000 C 
ENDROOT
BRANCH   1   2
ATOM      2  C   UNL     1      -7.500  -1.384 125.555  0.00  0.00    +0.000 C 
ATOM      3  C   UNL     1      -7.165  -2.807 125.436  0.00  0.00    +0.000 C 
ATOM      4  C   UNL     1      -5.727  -2.730 124.972  0.00  0.00    +0.000 C 
ATOM      5  C   UNL     1      -5.347  -1.157 124.873  0.00  0.00    +0.000 C 
ATOM      6  C   UNL     1      -6.670  -0.880 124.233  0.00  0.00    +0.000 C 
ATOM      7  C   UNL     1      -6.191  -1.789 123.053  0.00  0.00    +0.000 C 
ATOM      8  C   UNL     1      -5.736  -2.925 123.513  0.00  0.00    +0.000 C 
ENDBRANCH   1   2
BRANCH   1   9
ATOM      9  C   UNL     1      -6.783  -2.177 128.183  0.00  0.00    +0.000 A 
ATOM     10  C   UNL     1      -7.872  -2.636 128.917  0.00  0.00    +0.000 A 
ATOM     11  C   UNL     1      -7.684  -3.274 130.146  0.00  0.00    +0.000 A 
ATOM     12  C   UNL     1      -6.432  -3.740 130.532  0.00  0.00    +0.000 A 
ATOM     13  C   UNL     1      -5.341  -3.475 129.749  0.00  0.00    +0.000 A 
ATOM     14  C   UNL     1      -5.513  -2.625 128.676  0.00  0.00    +0.000 A 
ENDBRANCH   1   9
BRANCH   1  15
ATOM     15  O   UNL     1      -5.573  -0.517 127.288  0.00  0.00    +0.000 OA
ATOM     16  H   UNL     1      -5.480   0.446 127.193  0.00  0.00    +0.000 HD
ENDBRANCH   1  15
BRANCH   1  17
ATOM     17  C   UNL     1      -7.919   0.090 127.531  0.00  0.00    +0.000 C 
BRANCH  17  18
ATOM     18  C   UNL     1      -7.485   1.093 128.591  0.00  0.00    +0.000 C 
BRANCH  18  19
ATOM     19  N   UNL     1      -8.517   1.257 129.616  0.00  0.00    +0.000 NA
ATOM     20  C   UNL     1      -8.129   0.490 130.795  0.00  0.00    +0.000 C 
ATOM     21  C   UNL     1      -9.251   0.543 131.814  0.00  0.00    +0.000 C 
ATOM     22  C   UNL     1      -9.586   1.984 132.189  0.00  0.00    +0.000 C 
ATOM     23  C   UNL     1      -9.909   2.813 130.953  0.00  0.00    +0.000 C 
ATOM     24  C   UNL     1      -8.794   2.668 129.946  0.00  0.00    +0.000 C 
ENDBRANCH  18  19
ENDBRANCH  17  18
ENDBRANCH   1  17
TORSDOF 6
ENDMDL
MODEL 8
REMARK VINA RESULT:      -6.7      2.960      5.816
REMARK  Name = Biperiden
REMARK  6 active torsions:
REMARK  status: ('A' for Active; 'I' for Inactive)
REMARK    1  A    between atoms: O_1  and  C_2
REMARK    2  A    between atoms: C_2  and  C_3
REMARK    3  A    between atoms: C_2  and  C_11
REMARK    4  A    between atoms: C_2  and  C_18
REMARK    5  A    between atoms: C_3  and  C_4
REMARK    6  A    between atoms: C_4  and  N_5
REMARK                            x       y       z     vdW  Elec       q    Type
REMARK                         _______ _______ _______ _____ _____    ______ ____
ROOT
ATOM      1  C   UNL     1      -7.273   0.333 124.744  0.00  0.00    +0.000 C 
ENDROOT
BRANCH   1   2
ATOM      2  C   UNL     1      -6.906  -1.344 124.463  0.00  0.00    +0.000 C 
ATOM      3  C   UNL     1      -7.562  -1.598 123.176  0.00  0.00    +0.000 C 
ATOM      4  C   UNL     1      -8.969  -1.924 123.626  0.00  0.00    +0.000 C 
ATOM      5  C   UNL     1      -8.987  -1.806 125.243  0.00  0.00    +0.000 C 
ATOM      6  C   UNL     1      -7.674  -2.522 125.308  0.00  0.00    +0.000 C 
ATOM      7  C   UNL     1      -8.415  -3.754 124.689  0.00  0.00    +0.000 C 
ATOM      8  C   UNL     1      -9.089  -3.391 123.630  0.00  0.00    +0.000 C 
ENDBRANCH   1   2
BRANCH   1   9
ATOM      9  C   UNL     1      -7.522   1.251 123.495  0.00  0.00    +0.000 A 
ATOM     10  C   UNL     1      -6.473   1.929 122.881  0.00  0.00    +0.000 A 
ATOM     11  C   UNL     1      -6.710   3.096 122.152  0.00  0.00    +0.000 A 
ATOM     12  C   UNL     1      -7.995   3.453 121.759  0.00  0.00    +0.000 A 
ATOM     13  C   UNL     1      -9.062   2.709 122.185  0.00  0.00    +0.000 A 
ATOM     14  C   UNL     1      -8.823   1.716 123.112  0.00  0.00    +0.000 A 
ENDBRANCH   1   9
BRANCH   1  15
ATOM     15  O   UNL     1      -8.532   0.643 125.401  0.00  0.00    +0.000 OA
ATOM     16  H   UNL     1      -8.679   0.156 126.230  0.00  0.00    +0.000 HD
ENDBRANCH   1  15
BRANCH   1  17
ATOM     17  C   UNL     1      -6.109   0.718 125.634  0.00  0.00    +0.000 C 
BRANCH  17  18
ATOM     18  C   UNL     1      -6.420   1.506 126.898  0.00  0.00    +0.000 C 
BRANCH  18  19
ATOM     19  N   UNL     1      -5.364   2.477 127.188  0.00  0.00    +0.000 NA
ATOM     20  C   UNL     1      -4.579   1.990 128.317  0.00  0.00    +0.000 C 
ATOM     21  C   UNL     1      -3.566   3.047 128.711  0.00  0.00    +0.000 C 
ATOM     22  C   UNL     1      -2.662   3.410 127.537  0.00  0.00    +0.000 C 
ATOM     23  C   UNL     1      -3.479   3.838 126.325  0.00  0.00    +0.000 C 
ATOM     24  C   UNL     1      -4.515   2.783 126.020  0.00  0.00    +0.000 C 
ENDBRANCH  18  19
ENDBRANCH  17  18
ENDBRANCH   1  17
TORSDOF 6
ENDMDL
MODEL 9
REMARK VINA RESULT:      -6.7      1.815      5.999
REMARK  Name = Biperiden
REMARK  6 active torsions:
REMARK  status: ('A' for Active; 'I' for Inactive)
REMARK    1  A    between atoms: O_1  and  C_2
REMARK    2  A    between atoms: C_2  and  C_3
REMARK    3  A    between atoms: C_2  and  C_11
REMARK    4  A    between atoms: C_2  and  C_18
REMARK    5  A    between atoms: C_3  and  C_4
REMARK    6  A    between atoms: C_4  and  N_5
REMARK                            x       y       z     vdW  Elec       q    Type
REMARK                         _______ _______ _______ _____ _____    ______ ____
ROOT
ATOM      1  C   UNL     1      -7.245   0.031 125.544  0.00  0.00    +0.000 C 
ENDROOT
BRANCH   1   2
ATOM      2  C   UNL     1      -6.883  -1.480 124.763  0.00  0.00    +0.000 C 
ATOM      3  C   UNL     1      -7.715  -1.418 123.557  0.00  0.00    +0.000 C 
ATOM      4  C   UNL     1      -9.033  -1.943 124.085  0.00  0.00    +0.000 C 
ATOM      5  C   UNL     1      -8.814  -2.269 125.659  0.00  0.00    +0.000 C 
ATOM      6  C   UNL     1      -7.489  -2.889 125.344  0.00  0.00    +0.000 C 
ATOM      7  C   UNL     1      -8.283  -3.953 124.515  0.00  0.00    +0.000 C 
ATOM      8  C   UNL     1      -9.115  -3.361 123.699  0.00  0.00    +0.000 C 
ENDBRANCH   1   2
BRANCH   1   9
ATOM      9  C   UNL     1      -7.597   1.263 124.636  0.00  0.00    +0.000 A 
ATOM     10  C   UNL     1      -8.920   1.612 124.381  0.00  0.00    +0.000 A 
ATOM     11  C   UNL     1      -9.258   2.323 123.227  0.00  0.00    +0.000 A 
ATOM     12  C   UNL     1      -8.287   2.962 122.463  0.00  0.00    +0.000 A 
ATOM     13  C   UNL     1      -6.965   2.803 122.781  0.00  0.00    +0.000 A 
ATOM     14  C   UNL     1      -6.647   1.891 123.765  0.00  0.00    +0.000 A 
ENDBRANCH   1   9
BRANCH   1  15
ATOM     15  O   UNL     1      -8.454   0.098 126.347  0.00  0.00    +0.000 OA
ATOM     16  H   UNL     1      -9.058  -0.654 126.222  0.00  0.00    +0.000 HD
ENDBRANCH   1  15
BRANCH   1  17
ATOM     17  C   UNL     1      -6.021   0.179 126.425  0.00  0.00    +0.000 C 
BRANCH  17  18
ATOM     18  C   UNL     1      -6.214   0.031 127.927  0.00  0.00    +0.000 C 
BRANCH  18  19
ATOM     19  N   UNL     1      -6.283  -1.379 128.313  0.00  0.00    +0.000 NA
ATOM     20  C   UNL     1      -5.054  -1.732 129.016  0.00  0.00    +0.000 C 
ATOM     21  C   UNL     1      -5.055  -3.221 129.304  0.00  0.00    +0.000 C 
ATOM     22  C   UNL     1      -6.281  -3.623 130.119  0.00  0.00    +0.000 C 
ATOM     23  C   UNL     1      -7.567  -3.182 129.432  0.00  0.00    +0.000 C 
ATOM     24  C   UNL     1      -7.483  -1.710 129.107  0.00  0.00    +0.000 C 
ENDBRANCH  18  19
ENDBRANCH  17  18
ENDBRANCH   1  17
TORSDOF 6
ENDMDL
