MODEL 1
REMARK VINA RESULT:      -8.1      0.000      0.000
REMARK  Name = Bisacodyl
REMARK  9 active torsions:
REMARK  status: ('A' for Active; 'I' for Inactive)
REMARK    1  A    between atoms: C_1  and  C_2
REMARK    2  A    between atoms: C_2  and  O_4
REMARK    3  A    between atoms: O_4  and  C_5
REMARK    4  A    between atoms: C_8  and  C_11
REMARK    5  A    between atoms: C_11  and  C_12
REMARK    6  A    between atoms: C_11  and  C_22
REMARK    7  A    between atoms: C_15  and  O_16
REMARK    8  A    between atoms: O_16  and  C_17
REMARK    9  A    between atoms: C_17  and  C_18
REMARK                            x       y       z     vdW  Elec       q    Type
REMARK                         _______ _______ _______ _____ _____    ______ ____
ROOT
ATOM      1  C   UNL     1      -7.834   2.974 123.904  0.00  0.00    +0.000 C 
ENDROOT
BRANCH   1   5
ATOM      2  C   UNL     1      -9.165  -1.083 124.797  0.00  0.00    +0.000 A 
ATOM      3  C   UNL     1      -8.401  -0.831 123.656  0.00  0.00    +0.000 A 
ATOM      4  C   UNL     1      -7.884   0.453 123.433  0.00  0.00    +0.000 A 
ATOM      5  C   UNL     1      -8.210   1.520 124.294  0.00  0.00    +0.000 A 
ATOM      6  C   UNL     1      -9.000   1.229 125.418  0.00  0.00    +0.000 A 
ATOM      7  C   UNL     1      -9.428  -0.060 125.696  0.00  0.00    +0.000 A 
BRANCH   2   8
ATOM      8  O   UNL     1      -9.591  -2.401 125.049  0.00  0.00    +0.000 OA
BRANCH   8  10
ATOM      9  C   UNL     1      -8.499  -3.329 126.952  0.00  0.00    +0.000 C 
ATOM     10  C   UNL     1      -8.617  -3.320 125.455  0.00  0.00    +0.000 C 
ATOM     11  O   UNL     1      -7.935  -4.030 124.741  0.00  0.00    +0.000 OA
ENDBRANCH   8  10
ENDBRANCH   2   8
ENDBRANCH   1   5
BRANCH   1  12
ATOM     12  C   UNL     1      -6.558   3.363 124.658  0.00  0.00    +0.000 A 
ATOM     13  C   UNL     1      -5.690   2.467 125.300  0.00  0.00    +0.000 A 
ATOM     14  C   UNL     1      -4.698   2.959 126.170  0.00  0.00    +0.000 A 
ATOM     15  C   UNL     1      -4.610   4.335 126.396  0.00  0.00    +0.000 A 
ATOM     16  C   UNL     1      -5.548   5.168 125.837  0.00  0.00    +0.000 A 
ATOM     17  C   UNL     1      -6.388   4.731 124.854  0.00  0.00    +0.000 A 
BRANCH  15  18
ATOM     18  O   UNL     1      -3.564   4.856 127.205  0.00  0.00    +0.000 OA
BRANCH  18  19
ATOM     19  C   UNL     1      -3.517   5.917 128.128  0.00  0.00    +0.000 C 
ATOM     20  C   UNL     1      -2.293   6.791 128.219  0.00  0.00    +0.000 C 
ATOM     21  O   UNL     1      -4.500   6.172 128.825  0.00  0.00    +0.000 OA
ENDBRANCH  18  19
ENDBRANCH  15  18
ENDBRANCH   1  12
BRANCH   1  22
ATOM     22  C   UNL     1      -7.622   3.168 122.364  0.00  0.00    +0.000 A 
ATOM     23  C   UNL     1      -6.334   3.224 121.841  0.00  0.00    +0.000 A 
ATOM     24  C   UNL     1      -6.153   3.724 120.550  0.00  0.00    +0.000 A 
ATOM     25  C   UNL     1      -7.253   4.093 119.784  0.00  0.00    +0.000 A 
ATOM     26  C   UNL     1      -8.505   3.942 120.335  0.00  0.00    +0.000 A 
ATOM     27  N   UNL     1      -8.698   3.489 121.586  0.00  0.00    +0.000 NA
ENDBRANCH   1  22
TORSDOF 7
ENDMDL
MODEL 2
REMARK VINA RESULT:      -7.6      2.854      6.641
REMARK  Name = Bisacodyl
REMARK  9 active torsions:
REMARK  status: ('A' for Active; 'I' for Inactive)
REMARK    1  A    between atoms: C_1  and  C_2
REMARK    2  A    between atoms: C_2  and  O_4
REMARK    3  A    between atoms: O_4  and  C_5
REMARK    4  A    between atoms: C_8  and  C_11
REMARK    5  A    between atoms: C_11  and  C_12
REMARK    6  A    between atoms: C_11  and  C_22
REMARK    7  A    between atoms: C_15  and  O_16
REMARK    8  A    between atoms: O_16  and  C_17
REMARK    9  A    between atoms: C_17  and  C_18
REMARK                            x       y       z     vdW  Elec       q    Type
REMARK                         _______ _______ _______ _____ _____    ______ ____
ROOT
ATOM      1  C   UNL     1      -8.005   1.720 124.292  0.00  0.00    +0.000 C 
ENDROOT
BRANCH   1   5
ATOM      2  C   UNL     1      -4.635   2.511 126.945  0.00  0.00    +0.000 A 
ATOM      3  C   UNL     1      -5.514   3.540 126.603  0.00  0.00    +0.000 A 
ATOM      4  C   UNL     1      -6.656   3.255 125.840  0.00  0.00    +0.000 A 
ATOM      5  C   UNL     1      -6.876   1.962 125.327  0.00  0.00    +0.000 A 
ATOM      6  C   UNL     1      -5.955   0.960 125.677  0.00  0.00    +0.000 A 
ATOM      7  C   UNL     1      -4.880   1.216 126.514  0.00  0.00    +0.000 A 
BRANCH   2   8
ATOM      8  O   UNL     1      -3.549   2.803 127.793  0.00  0.00    +0.000 OA
BRANCH   8  10
ATOM      9  C   UNL     1      -2.482   4.928 127.925  0.00  0.00    +0.000 C 
ATOM     10  C   UNL     1      -2.515   3.581 127.262  0.00  0.00    +0.000 C 
ATOM     11  O   UNL     1      -1.731   3.262 126.388  0.00  0.00    +0.000 OA
ENDBRANCH   8  10
ENDBRANCH   2   8
ENDBRANCH   1   5
BRANCH   1  12
ATOM     12  C   UNL     1      -7.542   2.262 122.935  0.00  0.00    +0.000 A 
ATOM     13  C   UNL     1      -6.211   2.324 122.498  0.00  0.00    +0.000 A 
ATOM     14  C   UNL     1      -5.887   3.071 121.349  0.00  0.00    +0.000 A 
ATOM     15  C   UNL     1      -6.901   3.758 120.675  0.00  0.00    +0.000 A 
ATOM     16  C   UNL     1      -8.171   3.763 121.197  0.00  0.00    +0.000 A 
ATOM     17  C   UNL     1      -8.531   2.901 122.192  0.00  0.00    +0.000 A 
BRANCH  15  18
ATOM     18  O   UNL     1      -6.608   4.449 119.467  0.00  0.00    +0.000 OA
BRANCH  18  19
ATOM     19  C   UNL     1      -5.826   5.585 119.190  0.00  0.00    +0.000 C 
ATOM     20  C   UNL     1      -6.016   6.341 117.901  0.00  0.00    +0.000 C 
ATOM     21  O   UNL     1      -5.024   6.001 120.027  0.00  0.00    +0.000 OA
ENDBRANCH  18  19
ENDBRANCH  15  18
ENDBRANCH   1  12
BRANCH   1  22
ATOM     22  C   UNL     1      -8.407   0.212 124.153  0.00  0.00    +0.000 A 
ATOM     23  C   UNL     1      -9.059  -0.433 125.200  0.00  0.00    +0.000 A 
ATOM     24  C   UNL     1      -9.110  -1.828 125.203  0.00  0.00    +0.000 A 
ATOM     25  C   UNL     1      -8.575  -2.549 124.140  0.00  0.00    +0.000 A 
ATOM     26  C   UNL     1      -8.011  -1.844 123.101  0.00  0.00    +0.000 A 
ATOM     27  N   UNL     1      -7.928  -0.503 123.093  0.00  0.00    +0.000 NA
ENDBRANCH   1  22
TORSDOF 7
ENDMDL
MODEL 3
REMARK VINA RESULT:      -7.6      3.524      5.618
REMARK  Name = Bisacodyl
REMARK  9 active torsions:
REMARK  status: ('A' for Active; 'I' for Inactive)
REMARK    1  A    between atoms: C_1  and  C_2
REMARK    2  A    between atoms: C_2  and  O_4
REMARK    3  A    between atoms: O_4  and  C_5
REMARK    4  A    between atoms: C_8  and  C_11
REMARK    5  A    between atoms: C_11  and  C_12
REMARK    6  A    between atoms: C_11  and  C_22
REMARK    7  A    between atoms: C_15  and  O_16
REMARK    8  A    between atoms: O_16  and  C_17
REMARK    9  A    between atoms: C_17  and  C_18
REMARK                            x       y       z     vdW  Elec       q    Type
REMARK                         _______ _______ _______ _____ _____    ______ ____
ROOT
ATOM      1  C   UNL     1      -8.322  -1.905 124.894  0.00  0.00    +0.000 C 
ENDROOT
BRANCH   1   5
ATOM      2  C   UNL     1      -7.997  -2.909 129.126  0.00  0.00    +0.000 A 
ATOM      3  C   UNL     1      -7.396  -1.750 128.633  0.00  0.00    +0.000 A 
ATOM      4  C   UNL     1      -7.598  -1.375 127.297  0.00  0.00    +0.000 A 
ATOM      5  C   UNL     1      -8.315  -2.208 126.415  0.00  0.00    +0.000 A 
ATOM      6  C   UNL     1      -8.884  -3.377 126.947  0.00  0.00    +0.000 A 
ATOM      7  C   UNL     1      -8.773  -3.698 128.291  0.00  0.00    +0.000 A 
BRANCH   2   8
ATOM      8  O   UNL     1      -7.862  -3.212 130.495  0.00  0.00    +0.000 OA
BRANCH   8  10
ATOM      9  C   UNL     1      -5.851  -4.488 130.523  0.00  0.00    +0.000 C 
ATOM     10  C   UNL     1      -6.563  -3.260 131.013  0.00  0.00    +0.000 C 
ATOM     11  O   UNL     1      -6.040  -2.452 131.757  0.00  0.00    +0.000 OA
ENDBRANCH   8  10
ENDBRANCH   2   8
ENDBRANCH   1   5
BRANCH   1  12
ATOM     12  C   UNL     1      -8.327  -0.384 124.704  0.00  0.00    +0.000 A 
ATOM     13  C   UNL     1      -7.189   0.436 124.693  0.00  0.00    +0.000 A 
ATOM     14  C   UNL     1      -7.335   1.835 124.767  0.00  0.00    +0.000 A 
ATOM     15  C   UNL     1      -8.616   2.382 124.872  0.00  0.00    +0.000 A 
ATOM     16  C   UNL     1      -9.697   1.542 124.992  0.00  0.00    +0.000 A 
ATOM     17  C   UNL     1      -9.588   0.206 124.735  0.00  0.00    +0.000 A 
BRANCH  15  18
ATOM     18  O   UNL     1      -8.788   3.793 124.863  0.00  0.00    +0.000 OA
BRANCH  18  19
ATOM     19  C   UNL     1      -8.158   4.829 125.576  0.00  0.00    +0.000 C 
ATOM     20  C   UNL     1      -6.673   5.044 125.449  0.00  0.00    +0.000 C 
ATOM     21  O   UNL     1      -8.829   5.603 126.261  0.00  0.00    +0.000 OA
ENDBRANCH  18  19
ENDBRANCH  15  18
ENDBRANCH   1  12
BRANCH   1  22
ATOM     22  C   UNL     1      -7.108  -2.533 124.130  0.00  0.00    +0.000 A 
ATOM     23  C   UNL     1      -6.222  -3.370 124.801  0.00  0.00    +0.000 A 
ATOM     24  C   UNL     1      -4.985  -3.647 124.217  0.00  0.00    +0.000 A 
ATOM     25  C   UNL     1      -4.680  -3.146 122.956  0.00  0.00    +0.000 A 
ATOM     26  C   UNL     1      -5.633  -2.386 122.315  0.00  0.00    +0.000 A 
ATOM     27  N   UNL     1      -6.818  -2.085 122.872  0.00  0.00    +0.000 NA
ENDBRANCH   1  22
TORSDOF 7
ENDMDL
MODEL 4
REMARK VINA RESULT:      -7.4      5.292      9.686
REMARK  Name = Bisacodyl
REMARK  9 active torsions:
REMARK  status: ('A' for Active; 'I' for Inactive)
REMARK    1  A    between atoms: C_1  and  C_2
REMARK    2  A    between atoms: C_2  and  O_4
REMARK    3  A    between atoms: O_4  and  C_5
REMARK    4  A    between atoms: C_8  and  C_11
REMARK    5  A    between atoms: C_11  and  C_12
REMARK    6  A    between atoms: C_11  and  C_22
REMARK    7  A    between atoms: C_15  and  O_16
REMARK    8  A    between atoms: O_16  and  C_17
REMARK    9  A    between atoms: C_17  and  C_18
REMARK                            x       y       z     vdW  Elec       q    Type
REMARK                         _______ _______ _______ _____ _____    ______ ____
ROOT
ATOM      1  C   UNL     1      -7.693  -2.633 130.316  0.00  0.00    +0.000 C 
ENDROOT
BRANCH   1   5
ATOM      2  C   UNL     1      -8.479   1.629 130.809  0.00  0.00    +0.000 A 
ATOM      3  C   UNL     1      -9.002   0.710 131.721  0.00  0.00    +0.000 A 
ATOM      4  C   UNL     1      -8.654  -0.645 131.620  0.00  0.00    +0.000 A 
ATOM      5  C   UNL     1      -7.865  -1.110 130.549  0.00  0.00    +0.000 A 
ATOM      6  C   UNL     1      -7.378  -0.155 129.641  0.00  0.00    +0.000 A 
ATOM      7  C   UNL     1      -7.635   1.199 129.796  0.00  0.00    +0.000 A 
BRANCH   2   8
ATOM      8  O   UNL     1      -8.763   2.996 130.988  0.00  0.00    +0.000 OA
BRANCH   8  10
ATOM      9  C   UNL     1     -10.994   3.613 130.428  0.00  0.00    +0.000 C 
ATOM     10  C   UNL     1      -9.550   3.619 130.014  0.00  0.00    +0.000 C 
ATOM     11  O   UNL     1      -9.171   4.108 128.967  0.00  0.00    +0.000 OA
ENDBRANCH   8  10
ENDBRANCH   2   8
ENDBRANCH   1   5
BRANCH   1  12
ATOM     12  C   UNL     1      -7.680  -2.894 128.806  0.00  0.00    +0.000 A 
ATOM     13  C   UNL     1      -6.774  -2.332 127.894  0.00  0.00    +0.000 A 
ATOM     14  C   UNL     1      -7.018  -2.442 126.511  0.00  0.00    +0.000 A 
ATOM     15  C   UNL     1      -8.174  -3.093 126.072  0.00  0.00    +0.000 A 
ATOM     16  C   UNL     1      -9.090  -3.532 126.996  0.00  0.00    +0.000 A 
ATOM     17  C   UNL     1      -8.780  -3.598 128.324  0.00  0.00    +0.000 A 
BRANCH  15  18
ATOM     18  O   UNL     1      -8.394  -3.287 124.681  0.00  0.00    +0.000 OA
BRANCH  18  19
ATOM     19  C   UNL     1      -8.630  -2.389 123.624  0.00  0.00    +0.000 C 
ATOM     20  C   UNL     1      -7.474  -1.788 122.866  0.00  0.00    +0.000 C 
ATOM     21  O   UNL     1      -9.783  -2.135 123.275  0.00  0.00    +0.000 OA
ENDBRANCH  18  19
ENDBRANCH  15  18
ENDBRANCH   1  12
BRANCH   1  22
ATOM     22  C   UNL     1      -6.394  -3.218 130.968  0.00  0.00    +0.000 A 
ATOM     23  C   UNL     1      -6.024  -4.536 130.720  0.00  0.00    +0.000 A 
ATOM     24  C   UNL     1      -5.078  -5.137 131.551  0.00  0.00    +0.000 A 
ATOM     25  C   UNL     1      -4.470  -4.402 132.564  0.00  0.00    +0.000 A 
ATOM     26  C   UNL     1      -4.828  -3.081 132.707  0.00  0.00    +0.000 A 
ATOM     27  N   UNL     1      -5.757  -2.492 131.934  0.00  0.00    +0.000 NA
ENDBRANCH   1  22
TORSDOF 7
ENDMDL
MODEL 5
REMARK VINA RESULT:      -7.3      5.593     10.085
REMARK  Name = Bisacodyl
REMARK  9 active torsions:
REMARK  status: ('A' for Active; 'I' for Inactive)
REMARK    1  A    between atoms: C_1  and  C_2
REMARK    2  A    between atoms: C_2  and  O_4
REMARK    3  A    between atoms: O_4  and  C_5
REMARK    4  A    between atoms: C_8  and  C_11
REMARK    5  A    between atoms: C_11  and  C_12
REMARK    6  A    between atoms: C_11  and  C_22
REMARK    7  A    between atoms: C_15  and  O_16
REMARK    8  A    between atoms: O_16  and  C_17
REMARK    9  A    between atoms: C_17  and  C_18
REMARK                            x       y       z     vdW  Elec       q    Type
REMARK                         _______ _______ _______ _____ _____    ______ ____
ROOT
ATOM      1  C   UNL     1      -7.988  -2.418 130.588  0.00  0.00    +0.000 C 
ENDROOT
BRANCH   1   5
ATOM      2  C   UNL     1      -7.637   1.721 131.918  0.00  0.00    +0.000 A 
ATOM      3  C   UNL     1      -6.510   1.032 131.468  0.00  0.00    +0.000 A 
ATOM      4  C   UNL     1      -6.648  -0.260 130.939  0.00  0.00    +0.000 A 
ATOM      5  C   UNL     1      -7.897  -0.913 130.949  0.00  0.00    +0.000 A 
ATOM      6  C   UNL     1      -9.002  -0.191 131.431  0.00  0.00    +0.000 A 
ATOM      7  C   UNL     1      -8.887   1.122 131.860  0.00  0.00    +0.000 A 
BRANCH   2   8
ATOM      8  O   UNL     1      -7.488   3.052 132.353  0.00  0.00    +0.000 OA
BRANCH   8  10
ATOM      9  C   UNL     1      -8.680   3.964 134.202  0.00  0.00    +0.000 C 
ATOM     10  C   UNL     1      -7.433   3.270 133.734  0.00  0.00    +0.000 C 
ATOM     11  O   UNL     1      -6.531   2.963 134.490  0.00  0.00    +0.000 OA
ENDBRANCH   8  10
ENDBRANCH   2   8
ENDBRANCH   1   5
BRANCH   1  12
ATOM     12  C   UNL     1      -7.991  -2.551 129.061  0.00  0.00    +0.000 A 
ATOM     13  C   UNL     1      -7.576  -1.559 128.160  0.00  0.00    +0.000 A 
ATOM     14  C   UNL     1      -7.864  -1.698 126.788  0.00  0.00    +0.000 A 
ATOM     15  C   UNL     1      -8.579  -2.817 126.351  0.00  0.00    +0.000 A 
ATOM     16  C   UNL     1      -9.063  -3.708 127.277  0.00  0.00    +0.000 A 
ATOM     17  C   UNL     1      -8.636  -3.684 128.573  0.00  0.00    +0.000 A 
BRANCH  15  18
ATOM     18  O   UNL     1      -8.806  -3.015 124.962  0.00  0.00    +0.000 OA
BRANCH  18  19
ATOM     19  C   UNL     1      -8.687  -2.162 123.849  0.00  0.00    +0.000 C 
ATOM     20  C   UNL     1      -7.370  -2.031 123.130  0.00  0.00    +0.000 C 
ATOM     21  O   UNL     1      -9.675  -1.563 123.423  0.00  0.00    +0.000 OA
ENDBRANCH  18  19
ENDBRANCH  15  18
ENDBRANCH   1  12
BRANCH   1  22
ATOM     22  C   UNL     1      -6.823  -3.273 131.193  0.00  0.00    +0.000 A 
ATOM     23  C   UNL     1      -6.025  -4.050 130.360  0.00  0.00    +0.000 A 
ATOM     24  C   UNL     1      -5.228  -5.046 130.927  0.00  0.00    +0.000 A 
ATOM     25  C   UNL     1      -5.188  -5.205 132.309  0.00  0.00    +0.000 A 
ATOM     26  C   UNL     1      -5.946  -4.353 133.080  0.00  0.00    +0.000 A 
ATOM     27  N   UNL     1      -6.740  -3.407 132.550  0.00  0.00    +0.000 NA
ENDBRANCH   1  22
TORSDOF 7
ENDMDL
MODEL 6
REMARK VINA RESULT:      -7.2      5.903      8.488
REMARK  Name = Bisacodyl
REMARK  9 active torsions:
REMARK  status: ('A' for Active; 'I' for Inactive)
REMARK    1  A    between atoms: C_1  and  C_2
REMARK    2  A    between atoms: C_2  and  O_4
REMARK    3  A    between atoms: O_4  and  C_5
REMARK    4  A    between atoms: C_8  and  C_11
REMARK    5  A    between atoms: C_11  and  C_12
REMARK    6  A    between atoms: C_11  and  C_22
REMARK    7  A    between atoms: C_15  and  O_16
REMARK    8  A    between atoms: O_16  and  C_17
REMARK    9  A    between atoms: C_17  and  C_18
REMARK                            x       y       z     vdW  Elec       q    Type
REMARK                         _______ _______ _______ _____ _____    ______ ____
ROOT
ATOM      1  C   UNL     1      -6.831  -1.720 130.562  0.00  0.00    +0.000 C 
ENDROOT
BRANCH   1   5
ATOM      2  C   UNL     1      -8.789  -2.944 126.862  0.00  0.00    +0.000 A 
ATOM      3  C   UNL     1      -8.845  -3.765 127.989  0.00  0.00    +0.000 A 
ATOM      4  C   UNL     1      -8.309  -3.316 129.205  0.00  0.00    +0.000 A 
ATOM      5  C   UNL     1      -7.623  -2.088 129.281  0.00  0.00    +0.000 A 
ATOM      6  C   UNL     1      -7.570  -1.302 128.117  0.00  0.00    +0.000 A 
ATOM      7  C   UNL     1      -8.187  -1.696 126.940  0.00  0.00    +0.000 A 
BRANCH   2   8
ATOM      8  O   UNL     1      -9.420  -3.374 125.679  0.00  0.00    +0.000 OA
BRANCH   8  10
ATOM      9  C   UNL     1      -9.324  -3.039 123.323  0.00  0.00    +0.000 C 
ATOM     10  C   UNL     1      -8.614  -3.539 124.548  0.00  0.00    +0.000 C 
ATOM     11  O   UNL     1      -7.494  -4.013 124.508  0.00  0.00    +0.000 OA
ENDBRANCH   8  10
ENDBRANCH   2   8
ENDBRANCH   1   5
BRANCH   1  12
ATOM     12  C   UNL     1      -7.499  -0.503 131.211  0.00  0.00    +0.000 A 
ATOM     13  C   UNL     1      -8.881  -0.331 131.381  0.00  0.00    +0.000 A 
ATOM     14  C   UNL     1      -9.387   0.930 131.755  0.00  0.00    +0.000 A 
ATOM     15  C   UNL     1      -8.500   1.996 131.929  0.00  0.00    +0.000 A 
ATOM     16  C   UNL     1      -7.168   1.815 131.645  0.00  0.00    +0.000 A 
ATOM     17  C   UNL     1      -6.645   0.567 131.467  0.00  0.00    +0.000 A 
BRANCH  15  18
ATOM     18  O   UNL     1      -8.983   3.252 132.386  0.00  0.00    +0.000 OA
BRANCH  18  19
ATOM     19  C   UNL     1      -8.368   4.307 133.085  0.00  0.00    +0.000 C 
ATOM     20  C   UNL     1      -7.969   4.132 134.527  0.00  0.00    +0.000 C 
ATOM     21  O   UNL     1      -8.101   5.360 132.503  0.00  0.00    +0.000 OA
ENDBRANCH  18  19
ENDBRANCH  15  18
ENDBRANCH   1  12
BRANCH   1  22
ATOM     22  C   UNL     1      -6.742  -2.893 131.596  0.00  0.00    +0.000 A 
ATOM     23  C   UNL     1      -7.495  -2.848 132.765  0.00  0.00    +0.000 A 
ATOM     24  C   UNL     1      -7.164  -3.709 133.812  0.00  0.00    +0.000 A 
ATOM     25  C   UNL     1      -6.142  -4.639 133.655  0.00  0.00    +0.000 A 
ATOM     26  C   UNL     1      -5.486  -4.680 132.445  0.00  0.00    +0.000 A 
ATOM     27  N   UNL     1      -5.772  -3.841 131.435  0.00  0.00    +0.000 NA
ENDBRANCH   1  22
TORSDOF 7
ENDMDL
MODEL 7
REMARK VINA RESULT:      -7.1      5.466      8.541
REMARK  Name = Bisacodyl
REMARK  9 active torsions:
REMARK  status: ('A' for Active; 'I' for Inactive)
REMARK    1  A    between atoms: C_1  and  C_2
REMARK    2  A    between atoms: C_2  and  O_4
REMARK    3  A    between atoms: O_4  and  C_5
REMARK    4  A    between atoms: C_8  and  C_11
REMARK    5  A    between atoms: C_11  and  C_12
REMARK    6  A    between atoms: C_11  and  C_22
REMARK    7  A    between atoms: C_15  and  O_16
REMARK    8  A    between atoms: O_16  and  C_17
REMARK    9  A    between atoms: C_17  and  C_18
REMARK                            x       y       z     vdW  Elec       q    Type
REMARK                         _______ _______ _______ _____ _____    ______ ____
ROOT
ATOM      1  C   UNL     1      -7.867  -2.195 130.217  0.00  0.00    +0.000 C 
ENDROOT
BRANCH   1   5
ATOM      2  C   UNL     1      -7.733  -3.073 125.947  0.00  0.00    +0.000 A 
ATOM      3  C   UNL     1      -6.747  -2.276 126.530  0.00  0.00    +0.000 A 
ATOM      4  C   UNL     1      -6.733  -2.089 127.920  0.00  0.00    +0.000 A 
ATOM      5  C   UNL     1      -7.763  -2.611 128.727  0.00  0.00    +0.000 A 
ATOM      6  C   UNL     1      -8.749  -3.389 128.098  0.00  0.00    +0.000 A 
ATOM      7  C   UNL     1      -8.708  -3.661 126.739  0.00  0.00    +0.000 A 
BRANCH   2   8
ATOM      8  O   UNL     1      -7.669  -3.327 124.563  0.00  0.00    +0.000 OA
BRANCH   8  10
ATOM      9  C   UNL     1      -8.029  -1.511 123.065  0.00  0.00    +0.000 C 
ATOM     10  C   UNL     1      -8.625  -2.705 123.755  0.00  0.00    +0.000 C 
ATOM     11  O   UNL     1      -9.784  -3.040 123.599  0.00  0.00    +0.000 OA
ENDBRANCH   8  10
ENDBRANCH   2   8
ENDBRANCH   1   5
BRANCH   1  12
ATOM     12  C   UNL     1      -6.595  -2.653 130.938  0.00  0.00    +0.000 A 
ATOM     13  C   UNL     1      -5.534  -1.818 131.321  0.00  0.00    +0.000 A 
ATOM     14  C   UNL     1      -4.316  -2.385 131.743  0.00  0.00    +0.000 A 
ATOM     15  C   UNL     1      -4.179  -3.776 131.752  0.00  0.00    +0.000 A 
ATOM     16  C   UNL     1      -5.200  -4.555 131.265  0.00  0.00    +0.000 A 
ATOM     17  C   UNL     1      -6.440  -4.033 131.033  0.00  0.00    +0.000 A 
BRANCH  15  18
ATOM     18  O   UNL     1      -2.988  -4.368 132.253  0.00  0.00    +0.000 OA
BRANCH  18  19
ATOM     19  C   UNL     1      -2.644  -4.887 133.514  0.00  0.00    +0.000 C 
ATOM     20  C   UNL     1      -3.260  -6.172 134.001  0.00  0.00    +0.000 C 
ATOM     21  O   UNL     1      -1.792  -4.323 134.202  0.00  0.00    +0.000 OA
ENDBRANCH  18  19
ENDBRANCH  15  18
ENDBRANCH   1  12
BRANCH   1  22
ATOM     22  C   UNL     1      -8.068  -0.654 130.419  0.00  0.00    +0.000 A 
ATOM     23  C   UNL     1      -8.672  -0.177 131.578  0.00  0.00    +0.000 A 
ATOM     24  C   UNL     1      -9.143   1.136 131.600  0.00  0.00    +0.000 A 
ATOM     25  C   UNL     1      -8.945   1.967 130.502  0.00  0.00    +0.000 A 
ATOM     26  C   UNL     1      -8.274   1.454 129.416  0.00  0.00    +0.000 A 
ATOM     27  N   UNL     1      -7.838   0.184 129.365  0.00  0.00    +0.000 NA
ENDBRANCH   1  22
TORSDOF 7
ENDMDL
MODEL 8
REMARK VINA RESULT:      -7.1      3.881      5.580
REMARK  Name = Bisacodyl
REMARK  9 active torsions:
REMARK  status: ('A' for Active; 'I' for Inactive)
REMARK    1  A    between atoms: C_1  and  C_2
REMARK    2  A    between atoms: C_2  and  O_4
REMARK    3  A    between atoms: O_4  and  C_5
REMARK    4  A    between atoms: C_8  and  C_11
REMARK    5  A    between atoms: C_11  and  C_12
REMARK    6  A    between atoms: C_11  and  C_22
REMARK    7  A    between atoms: C_15  and  O_16
REMARK    8  A    between atoms: O_16  and  C_17
REMARK    9  A    between atoms: C_17  and  C_18
REMARK                            x       y       z     vdW  Elec       q    Type
REMARK                         _______ _______ _______ _____ _____    ______ ____
ROOT
ATOM      1  C   UNL     1      -8.043  -0.982 126.979  0.00  0.00    +0.000 C 
ENDROOT
BRANCH   1   5
ATOM      2  C   UNL     1      -6.214  -3.621 129.931  0.00  0.00    +0.000 A 
ATOM      3  C   UNL     1      -7.603  -3.536 129.833  0.00  0.00    +0.000 A 
ATOM      4  C   UNL     1      -8.184  -2.771 128.811  0.00  0.00    +0.000 A 
ATOM      5  C   UNL     1      -7.384  -2.005 127.941  0.00  0.00    +0.000 A 
ATOM      6  C   UNL     1      -5.990  -2.102 128.088  0.00  0.00    +0.000 A 
ATOM      7  C   UNL     1      -5.411  -2.935 129.031  0.00  0.00    +0.000 A 
BRANCH   2   8
ATOM      8  O   UNL     1      -5.654  -4.472 130.904  0.00  0.00    +0.000 OA
BRANCH   8  10
ATOM      9  C   UNL     1      -5.412  -5.079 133.194  0.00  0.00    +0.000 C 
ATOM     10  C   UNL     1      -5.518  -3.960 132.198  0.00  0.00    +0.000 C 
ATOM     11  O   UNL     1      -5.487  -2.789 132.524  0.00  0.00    +0.000 OA
ENDBRANCH   8  10
ENDBRANCH   2   8
ENDBRANCH   1   5
BRANCH   1  12
ATOM     12  C   UNL     1      -7.054   0.163 126.737  0.00  0.00    +0.000 A 
ATOM     13  C   UNL     1      -5.938   0.105 125.889  0.00  0.00    +0.000 A 
ATOM     14  C   UNL     1      -4.965   1.123 125.943  0.00  0.00    +0.000 A 
ATOM     15  C   UNL     1      -5.121   2.165 126.861  0.00  0.00    +0.000 A 
ATOM     16  C   UNL     1      -6.168   2.127 127.749  0.00  0.00    +0.000 A 
ATOM     17  C   UNL     1      -7.206   1.257 127.584  0.00  0.00    +0.000 A 
BRANCH  15  18
ATOM     18  O   UNL     1      -4.194   3.243 126.873  0.00  0.00    +0.000 OA
BRANCH  18  19
ATOM     19  C   UNL     1      -2.923   3.395 127.457  0.00  0.00    +0.000 C 
ATOM     20  C   UNL     1      -1.683   3.041 126.678  0.00  0.00    +0.000 C 
ATOM     21  O   UNL     1      -2.816   3.874 128.586  0.00  0.00    +0.000 OA
ENDBRANCH  18  19
ENDBRANCH  15  18
ENDBRANCH   1  12
BRANCH   1  22
ATOM     22  C   UNL     1      -8.478  -1.608 125.610  0.00  0.00    +0.000 A 
ATOM     23  C   UNL     1      -8.078  -2.899 125.278  0.00  0.00    +0.000 A 
ATOM     24  C   UNL     1      -8.180  -3.313 123.949  0.00  0.00    +0.000 A 
ATOM     25  C   UNL     1      -8.738  -2.468 122.995  0.00  0.00    +0.000 A 
ATOM     26  C   UNL     1      -9.182  -1.233 123.407  0.00  0.00    +0.000 A 
ATOM     27  N   UNL     1      -9.067  -0.805 124.676  0.00  0.00    +0.000 NA
ENDBRANCH   1  22
TORSDOF 7
ENDMDL
MODEL 9
REMARK VINA RESULT:      -7.0      6.406     10.079
REMARK  Name = Bisacodyl
REMARK  9 active torsions:
REMARK  status: ('A' for Active; 'I' for Inactive)
REMARK    1  A    between atoms: C_1  and  C_2
REMARK    2  A    between atoms: C_2  and  O_4
REMARK    3  A    between atoms: O_4  and  C_5
REMARK    4  A    between atoms: C_8  and  C_11
REMARK    5  A    between atoms: C_11  and  C_12
REMARK    6  A    between atoms: C_11  and  C_22
REMARK    7  A    between atoms: C_15  and  O_16
REMARK    8  A    between atoms: O_16  and  C_17
REMARK    9  A    between atoms: C_17  and  C_18
REMARK                            x       y       z     vdW  Elec       q    Type
REMARK                         _______ _______ _______ _____ _____    ______ ____
ROOT
ATOM      1  C   UNL     1      -6.727  -1.717 130.629  0.00  0.00    +0.000 C 
ENDROOT
BRANCH   1   5
ATOM      2  C   UNL     1      -5.750  -4.993 133.339  0.00  0.00    +0.000 A 
ATOM      3  C   UNL     1      -6.647  -3.999 133.736  0.00  0.00    +0.000 A 
ATOM      4  C   UNL     1      -7.041  -3.011 132.821  0.00  0.00    +0.000 A 
ATOM      5  C   UNL     1      -6.466  -2.948 131.537  0.00  0.00    +0.000 A 
ATOM      6  C   UNL     1      -5.550  -3.954 131.186  0.00  0.00    +0.000 A 
ATOM      7  C   UNL     1      -5.236  -4.990 132.051  0.00  0.00    +0.000 A 
BRANCH   2   8
ATOM      8  O   UNL     1      -5.445  -6.029 134.243  0.00  0.00    +0.000 OA
BRANCH   8  10
ATOM      9  C   UNL     1      -3.401  -5.281 135.207  0.00  0.00    +0.000 C 
ATOM     10  C   UNL     1      -4.832  -5.667 135.447  0.00  0.00    +0.000 C 
ATOM     11  O   UNL     1      -5.338  -5.652 136.552  0.00  0.00    +0.000 OA
ENDBRANCH   8  10
ENDBRANCH   2   8
ENDBRANCH   1   5
BRANCH   1  12
ATOM     12  C   UNL     1      -7.616  -2.158 129.461  0.00  0.00    +0.000 A 
ATOM     13  C   UNL     1      -8.278  -3.391 129.365  0.00  0.00    +0.000 A 
ATOM     14  C   UNL     1      -8.852  -3.782 128.140  0.00  0.00    +0.000 A 
ATOM     15  C   UNL     1      -8.733  -2.939 127.031  0.00  0.00    +0.000 A 
ATOM     16  C   UNL     1      -7.983  -1.793 127.137  0.00  0.00    +0.000 A 
ATOM     17  C   UNL     1      -7.585  -1.316 128.352  0.00  0.00    +0.000 A 
BRANCH  15  18
ATOM     18  O   UNL     1      -9.377  -3.277 125.810  0.00  0.00    +0.000 OA
BRANCH  18  19
ATOM     19  C   UNL     1      -8.981  -3.162 124.465  0.00  0.00    +0.000 C 
ATOM     20  C   UNL     1      -7.561  -3.464 124.063  0.00  0.00    +0.000 C 
ATOM     21  O   UNL     1      -9.808  -2.870 123.601  0.00  0.00    +0.000 OA
ENDBRANCH  18  19
ENDBRANCH  15  18
ENDBRANCH   1  12
BRANCH   1  22
ATOM     22  C   UNL     1      -7.397  -0.520 131.385  0.00  0.00    +0.000 A 
ATOM     23  C   UNL     1      -8.783  -0.416 131.434  0.00  0.00    +0.000 A 
ATOM     24  C   UNL     1      -9.354   0.802 131.807  0.00  0.00    +0.000 A 
ATOM     25  C   UNL     1      -8.543   1.865 132.188  0.00  0.00    +0.000 A 
ATOM     26  C   UNL     1      -7.180   1.671 132.189  0.00  0.00    +0.000 A 
ATOM     27  N   UNL     1      -6.611   0.515 131.807  0.00  0.00    +0.000 NA
ENDBRANCH   1  22
TORSDOF 7
ENDMDL
