MODEL 1
REMARK VINA RESULT:      -5.4      0.000      0.000
REMARK  Name = Bisoprolol
REMARK  17 active torsions:
REMARK  status: ('A' for Active; 'I' for Inactive)
REMARK    1  A    between atoms: C_1  and  C_2
REMARK    2  A    between atoms: C_2  and  C_3
REMARK    3  A    between atoms: C_2  and  N_4
REMARK    4  A    between atoms: N_4  and  C_5
REMARK    5  A    between atoms: C_5  and  C_6
REMARK    6  A    between atoms: C_6  and  O_7
REMARK    7  A    between atoms: C_6  and  C_8
REMARK    8  A    between atoms: C_8  and  O_9
REMARK    9  A    between atoms: O_9  and  C_10
REMARK   10  A    between atoms: C_13  and  C_14
REMARK   11  A    between atoms: C_14  and  O_15
REMARK   12  A    between atoms: O_15  and  C_16
REMARK   13  A    between atoms: C_16  and  C_17
REMARK   14  A    between atoms: C_17  and  O_18
REMARK   15  A    between atoms: O_18  and  C_19
REMARK   16  A    between atoms: C_19  and  C_20
REMARK   17  A    between atoms: C_19  and  C_21
REMARK                            x       y       z     vdW  Elec       q    Type
REMARK                         _______ _______ _______ _____ _____    ______ ____
ROOT
ATOM      1  C   UNL     1      -8.168  -2.606 127.440  0.00  0.00    +0.000 A 
ATOM      2  C   UNL     1      -7.790  -1.288 127.702  0.00  0.00    +0.000 A 
ATOM      3  C   UNL     1      -7.576  -0.867 129.014  0.00  0.00    +0.000 A 
ATOM      4  C   UNL     1      -7.785  -1.744 130.083  0.00  0.00    +0.000 A 
ATOM      5  C   UNL     1      -8.147  -3.072 129.807  0.00  0.00    +0.000 A 
ATOM      6  C   UNL     1      -8.333  -3.499 128.491  0.00  0.00    +0.000 A 
ENDROOT
BRANCH   1   7
ATOM      7  O   UNL     1      -8.251  -2.936 126.118  0.00  0.00    +0.000 OA
BRANCH   7   8
ATOM      8  C   UNL     1      -9.444  -2.523 125.454  0.00  0.00    +0.000 C 
BRANCH   8   9
ATOM      9  C   UNL     1      -9.228  -2.652 123.939  0.00  0.00    +0.000 C 
BRANCH   9  10
ATOM     10  O   UNL     1     -10.158  -3.571 123.349  0.00  0.00    +0.000 OA
ATOM     11  H   UNL     1     -10.099  -4.406 123.839  0.00  0.00    +0.000 HD
ENDBRANCH   9  10
BRANCH   9  12
ATOM     12  C   UNL     1      -7.797  -3.145 123.685  0.00  0.00    +0.000 C 
BRANCH  12  13
ATOM     13  N   UNL     1      -6.904  -2.034 123.349  0.00  0.00    +0.000 NA
ATOM     14  H   UNL     1      -6.945  -1.877 122.338  0.00  0.00    +0.000 HD
BRANCH  13  16
ATOM     15  C   UNL     1      -5.281  -1.487 125.082  0.00  0.00    +0.000 C 
ATOM     16  C   UNL     1      -5.526  -2.265 123.789  0.00  0.00    +0.000 C 
ATOM     17  C   UNL     1      -5.268  -3.753 124.041  0.00  0.00    +0.000 C 
ENDBRANCH  13  16
ENDBRANCH  12  13
ENDBRANCH   9  12
ENDBRANCH   8   9
ENDBRANCH   7   8
ENDBRANCH   1   7
BRANCH   4  18
ATOM     18  C   UNL     1      -7.654  -1.225 131.491  0.00  0.00    +0.000 C 
BRANCH  18  19
ATOM     19  O   UNL     1      -7.385  -2.292 132.390  0.00  0.00    +0.000 OA
BRANCH  19  20
ATOM     20  C   UNL     1      -6.165  -2.090 133.092  0.00  0.00    +0.000 C 
BRANCH  20  21
ATOM     21  C   UNL     1      -5.214  -3.190 132.664  0.00  0.00    +0.000 C 
BRANCH  21  22
ATOM     22  O   UNL     1      -4.491  -2.796 131.502  0.00  0.00    +0.000 OA
BRANCH  22  23
ATOM     23  C   UNL     1      -4.335  -3.867 130.564  0.00  0.00    +0.000 C 
ATOM     24  C   UNL     1      -5.399  -4.944 130.770  0.00  0.00    +0.000 C 
ATOM     25  C   UNL     1      -4.467  -3.281 129.163  0.00  0.00    +0.000 C 
ENDBRANCH  22  23
ENDBRANCH  21  22
ENDBRANCH  20  21
ENDBRANCH  19  20
ENDBRANCH  18  19
ENDBRANCH   4  18
TORSDOF 13
ENDMDL
MODEL 2
REMARK VINA RESULT:      -5.3      7.775      9.775
REMARK  Name = Bisoprolol
REMARK  17 active torsions:
REMARK  status: ('A' for Active; 'I' for Inactive)
REMARK    1  A    between atoms: C_1  and  C_2
REMARK    2  A    between atoms: C_2  and  C_3
REMARK    3  A    between atoms: C_2  and  N_4
REMARK    4  A    between atoms: N_4  and  C_5
REMARK    5  A    between atoms: C_5  and  C_6
REMARK    6  A    between atoms: C_6  and  O_7
REMARK    7  A    between atoms: C_6  and  C_8
REMARK    8  A    between atoms: C_8  and  O_9
REMARK    9  A    between atoms: O_9  and  C_10
REMARK   10  A    between atoms: C_13  and  C_14
REMARK   11  A    between atoms: C_14  and  O_15
REMARK   12  A    between atoms: O_15  and  C_16
REMARK   13  A    between atoms: C_16  and  C_17
REMARK   14  A    between atoms: C_17  and  O_18
REMARK   15  A    between atoms: O_18  and  C_19
REMARK   16  A    between atoms: C_19  and  C_20
REMARK   17  A    between atoms: C_19  and  C_21
REMARK                            x       y       z     vdW  Elec       q    Type
REMARK                         _______ _______ _______ _____ _____    ______ ____
ROOT
ATOM      1  C   UNL     1      -7.833   6.195 132.111  0.00  0.00    +0.000 A 
ATOM      2  C   UNL     1      -7.307   6.939 131.053  0.00  0.00    +0.000 A 
ATOM      3  C   UNL     1      -5.927   7.027 130.875  0.00  0.00    +0.000 A 
ATOM      4  C   UNL     1      -5.055   6.413 131.779  0.00  0.00    +0.000 A 
ATOM      5  C   UNL     1      -5.595   5.651 132.828  0.00  0.00    +0.000 A 
ATOM      6  C   UNL     1      -6.977   5.541 132.988  0.00  0.00    +0.000 A 
ENDROOT
BRANCH   1   7
ATOM      7  O   UNL     1      -9.194   6.093 132.131  0.00  0.00    +0.000 OA
BRANCH   7   8
ATOM      8  C   UNL     1      -9.874   6.720 131.045  0.00  0.00    +0.000 C 
BRANCH   8   9
ATOM      9  C   UNL     1     -11.216   6.005 130.831  0.00  0.00    +0.000 C 
BRANCH   9  10
ATOM     10  O   UNL     1     -12.055   6.096 131.990  0.00  0.00    +0.000 OA
ATOM     11  H   UNL     1     -11.531   5.813 132.757  0.00  0.00    +0.000 HD
ENDBRANCH   9  10
BRANCH   9  12
ATOM     12  C   UNL     1     -10.942   4.528 130.518  0.00  0.00    +0.000 C 
BRANCH  12  13
ATOM     13  N   UNL     1      -9.801   4.378 129.612  0.00  0.00    +0.000 NA
ATOM     14  H   UNL     1     -10.145   4.395 128.648  0.00  0.00    +0.000 HD
BRANCH  13  16
ATOM     15  C   UNL     1      -7.540   3.476 129.719  0.00  0.00    +0.000 C 
ATOM     16  C   UNL     1      -9.028   3.162 129.873  0.00  0.00    +0.000 C 
ATOM     17  C   UNL     1      -9.288   2.634 131.286  0.00  0.00    +0.000 C 
ENDBRANCH  13  16
ENDBRANCH  12  13
ENDBRANCH   9  12
ENDBRANCH   8   9
ENDBRANCH   7   8
ENDBRANCH   1   7
BRANCH   4  18
ATOM     18  C   UNL     1      -3.572   6.622 131.621  0.00  0.00    +0.000 C 
BRANCH  18  19
ATOM     19  O   UNL     1      -3.290   7.265 130.386  0.00  0.00    +0.000 OA
BRANCH  19  20
ATOM     20  C   UNL     1      -2.298   6.566 129.645  0.00  0.00    +0.000 C 
BRANCH  20  21
ATOM     21  C   UNL     1      -2.698   6.631 128.185  0.00  0.00    +0.000 C 
BRANCH  21  22
ATOM     22  O   UNL     1      -3.392   5.446 127.808  0.00  0.00    +0.000 OA
BRANCH  22  23
ATOM     23  C   UNL     1      -2.783   4.263 128.338  0.00  0.00    +0.000 C 
ATOM     24  C   UNL     1      -3.804   3.394 129.071  0.00  0.00    +0.000 C 
ATOM     25  C   UNL     1      -2.192   3.481 127.172  0.00  0.00    +0.000 C 
ENDBRANCH  22  23
ENDBRANCH  21  22
ENDBRANCH  20  21
ENDBRANCH  19  20
ENDBRANCH  18  19
ENDBRANCH   4  18
TORSDOF 13
ENDMDL
MODEL 3
REMARK VINA RESULT:      -5.2      8.625     10.439
REMARK  Name = Bisoprolol
REMARK  17 active torsions:
REMARK  status: ('A' for Active; 'I' for Inactive)
REMARK    1  A    between atoms: C_1  and  C_2
REMARK    2  A    between atoms: C_2  and  C_3
REMARK    3  A    between atoms: C_2  and  N_4
REMARK    4  A    between atoms: N_4  and  C_5
REMARK    5  A    between atoms: C_5  and  C_6
REMARK    6  A    between atoms: C_6  and  O_7
REMARK    7  A    between atoms: C_6  and  C_8
REMARK    8  A    between atoms: C_8  and  O_9
REMARK    9  A    between atoms: O_9  and  C_10
REMARK   10  A    between atoms: C_13  and  C_14
REMARK   11  A    between atoms: C_14  and  O_15
REMARK   12  A    between atoms: O_15  and  C_16
REMARK   13  A    between atoms: C_16  and  C_17
REMARK   14  A    between atoms: C_17  and  O_18
REMARK   15  A    between atoms: O_18  and  C_19
REMARK   16  A    between atoms: C_19  and  C_20
REMARK   17  A    between atoms: C_19  and  C_21
REMARK                            x       y       z     vdW  Elec       q    Type
REMARK                         _______ _______ _______ _____ _____    ______ ____
ROOT
ATOM      1  C   UNL     1      -9.224   6.353 132.233  0.00  0.00    +0.000 A 
ATOM      2  C   UNL     1      -8.687   6.890 131.061  0.00  0.00    +0.000 A 
ATOM      3  C   UNL     1      -7.317   6.813 130.818  0.00  0.00    +0.000 A 
ATOM      4  C   UNL     1      -6.460   6.242 131.764  0.00  0.00    +0.000 A 
ATOM      5  C   UNL     1      -7.012   5.689 132.930  0.00  0.00    +0.000 A 
ATOM      6  C   UNL     1      -8.388   5.741 133.158  0.00  0.00    +0.000 A 
ENDROOT
BRANCH   1   7
ATOM      7  O   UNL     1     -10.585   6.392 132.322  0.00  0.00    +0.000 OA
BRANCH   7   8
ATOM      8  C   UNL     1     -11.288   6.146 131.105  0.00  0.00    +0.000 C 
BRANCH   8   9
ATOM      9  C   UNL     1     -12.283   7.293 130.876  0.00  0.00    +0.000 C 
BRANCH   9  10
ATOM     10  O   UNL     1     -13.409   7.200 131.760  0.00  0.00    +0.000 OA
ATOM     11  H   UNL     1     -13.081   7.304 132.667  0.00  0.00    +0.000 HD
ENDBRANCH   9  10
BRANCH   9  12
ATOM     12  C   UNL     1     -12.773   7.237 129.423  0.00  0.00    +0.000 C 
BRANCH  12  13
ATOM     13  N   UNL     1     -12.274   8.377 128.649  0.00  0.00    +0.000 NA
ATOM     14  H   UNL     1     -13.040   9.044 128.520  0.00  0.00    +0.000 HD
BRANCH  13  16
ATOM     15  C   UNL     1     -10.372   7.265 127.607  0.00  0.00    +0.000 C 
ATOM     16  C   UNL     1     -11.702   7.977 127.361  0.00  0.00    +0.000 C 
ATOM     17  C   UNL     1     -12.645   7.037 126.606  0.00  0.00    +0.000 C 
ENDBRANCH  13  16
ENDBRANCH  12  13
ENDBRANCH   9  12
ENDBRANCH   8   9
ENDBRANCH   7   8
ENDBRANCH   1   7
BRANCH   4  18
ATOM     18  C   UNL     1      -4.974   6.277 131.518  0.00  0.00    +0.000 C 
BRANCH  18  19
ATOM     19  O   UNL     1      -4.702   6.490 130.140  0.00  0.00    +0.000 OA
BRANCH  19  20
ATOM     20  C   UNL     1      -4.291   5.291 129.496  0.00  0.00    +0.000 C 
BRANCH  20  21
ATOM     21  C   UNL     1      -3.808   5.669 128.109  0.00  0.00    +0.000 C 
BRANCH  21  22
ATOM     22  O   UNL     1      -2.629   4.941 127.780  0.00  0.00    +0.000 OA
BRANCH  22  23
ATOM     23  C   UNL     1      -2.919   3.676 127.173  0.00  0.00    +0.000 C 
ATOM     24  C   UNL     1      -3.901   3.829 126.014  0.00  0.00    +0.000 C 
ATOM     25  C   UNL     1      -1.607   3.097 126.656  0.00  0.00    +0.000 C 
ENDBRANCH  22  23
ENDBRANCH  21  22
ENDBRANCH  20  21
ENDBRANCH  19  20
ENDBRANCH  18  19
ENDBRANCH   4  18
TORSDOF 13
ENDMDL
MODEL 4
REMARK VINA RESULT:      -5.2      5.897      8.439
REMARK  Name = Bisoprolol
REMARK  17 active torsions:
REMARK  status: ('A' for Active; 'I' for Inactive)
REMARK    1  A    between atoms: C_1  and  C_2
REMARK    2  A    between atoms: C_2  and  C_3
REMARK    3  A    between atoms: C_2  and  N_4
REMARK    4  A    between atoms: N_4  and  C_5
REMARK    5  A    between atoms: C_5  and  C_6
REMARK    6  A    between atoms: C_6  and  O_7
REMARK    7  A    between atoms: C_6  and  C_8
REMARK    8  A    between atoms: C_8  and  O_9
REMARK    9  A    between atoms: O_9  and  C_10
REMARK   10  A    between atoms: C_13  and  C_14
REMARK   11  A    between atoms: C_14  and  O_15
REMARK   12  A    between atoms: O_15  and  C_16
REMARK   13  A    between atoms: C_16  and  C_17
REMARK   14  A    between atoms: C_17  and  O_18
REMARK   15  A    between atoms: O_18  and  C_19
REMARK   16  A    between atoms: C_19  and  C_20
REMARK   17  A    between atoms: C_19  and  C_21
REMARK                            x       y       z     vdW  Elec       q    Type
REMARK                         _______ _______ _______ _____ _____    ______ ____
ROOT
ATOM      1  C   UNL     1      -9.781   2.683 130.714  0.00  0.00    +0.000 A 
ATOM      2  C   UNL     1      -9.929   1.810 131.794  0.00  0.00    +0.000 A 
ATOM      3  C   UNL     1      -9.176   0.639 131.857  0.00  0.00    +0.000 A 
ATOM      4  C   UNL     1      -8.303   0.301 130.819  0.00  0.00    +0.000 A 
ATOM      5  C   UNL     1      -8.148   1.194 129.747  0.00  0.00    +0.000 A 
ATOM      6  C   UNL     1      -8.881   2.381 129.700  0.00  0.00    +0.000 A 
ENDROOT
BRANCH   1   7
ATOM      7  O   UNL     1     -10.490   3.846 130.804  0.00  0.00    +0.000 OA
BRANCH   7   8
ATOM      8  C   UNL     1      -9.714   5.043 130.775  0.00  0.00    +0.000 C 
BRANCH   8   9
ATOM      9  C   UNL     1     -10.547   6.179 131.386  0.00  0.00    +0.000 C 
BRANCH   9  10
ATOM     10  O   UNL     1     -10.839   5.935 132.769  0.00  0.00    +0.000 OA
ATOM     11  H   UNL     1     -10.845   4.974 132.905  0.00  0.00    +0.000 HD
ENDBRANCH   9  10
BRANCH   9  12
ATOM     12  C   UNL     1     -11.862   6.301 130.604  0.00  0.00    +0.000 C 
BRANCH  12  13
ATOM     13  N   UNL     1     -11.632   6.216 129.160  0.00  0.00    +0.000 NA
ATOM     14  H   UNL     1     -10.675   5.886 129.001  0.00  0.00    +0.000 HD
BRANCH  13  16
ATOM     15  C   UNL     1     -12.755   8.370 129.355  0.00  0.00    +0.000 C 
ATOM     16  C   UNL     1     -11.869   7.489 128.474  0.00  0.00    +0.000 C 
ATOM     17  C   UNL     1     -10.553   8.219 128.193  0.00  0.00    +0.000 C 
ENDBRANCH  13  16
ENDBRANCH  12  13
ENDBRANCH   9  12
ENDBRANCH   8   9
ENDBRANCH   7   8
ENDBRANCH   1   7
BRANCH   4  18
ATOM     18  C   UNL     1      -7.590  -1.026 130.866  0.00  0.00    +0.000 C 
BRANCH  18  19
ATOM     19  O   UNL     1      -8.259  -1.979 130.052  0.00  0.00    +0.000 OA
BRANCH  19  20
ATOM     20  C   UNL     1      -7.381  -2.562 129.098  0.00  0.00    +0.000 C 
BRANCH  20  21
ATOM     21  C   UNL     1      -7.913  -2.208 127.723  0.00  0.00    +0.000 C 
BRANCH  21  22
ATOM     22  O   UNL     1      -8.537  -3.340 127.126  0.00  0.00    +0.000 OA
BRANCH  22  23
ATOM     23  C   UNL     1      -9.109  -3.040 125.848  0.00  0.00    +0.000 C 
ATOM     24  C   UNL     1      -9.013  -1.548 125.534  0.00  0.00    +0.000 C 
ATOM     25  C   UNL     1      -8.340  -3.832 124.797  0.00  0.00    +0.000 C 
ENDBRANCH  22  23
ENDBRANCH  21  22
ENDBRANCH  20  21
ENDBRANCH  19  20
ENDBRANCH  18  19
ENDBRANCH   4  18
TORSDOF 13
ENDMDL
MODEL 5
REMARK VINA RESULT:      -5.2      1.245      2.611
REMARK  Name = Bisoprolol
REMARK  17 active torsions:
REMARK  status: ('A' for Active; 'I' for Inactive)
REMARK    1  A    between atoms: C_1  and  C_2
REMARK    2  A    between atoms: C_2  and  C_3
REMARK    3  A    between atoms: C_2  and  N_4
REMARK    4  A    between atoms: N_4  and  C_5
REMARK    5  A    between atoms: C_5  and  C_6
REMARK    6  A    between atoms: C_6  and  O_7
REMARK    7  A    between atoms: C_6  and  C_8
REMARK    8  A    between atoms: C_8  and  O_9
REMARK    9  A    between atoms: O_9  and  C_10
REMARK   10  A    between atoms: C_13  and  C_14
REMARK   11  A    between atoms: C_14  and  O_15
REMARK   12  A    between atoms: O_15  and  C_16
REMARK   13  A    between atoms: C_16  and  C_17
REMARK   14  A    between atoms: C_17  and  O_18
REMARK   15  A    between atoms: O_18  and  C_19
REMARK   16  A    between atoms: C_19  and  C_20
REMARK   17  A    between atoms: C_19  and  C_21
REMARK                            x       y       z     vdW  Elec       q    Type
REMARK                         _______ _______ _______ _____ _____    ______ ____
ROOT
ATOM      1  C   UNL     1      -7.694  -2.540 127.714  0.00  0.00    +0.000 A 
ATOM      2  C   UNL     1      -6.382  -2.072 127.619  0.00  0.00    +0.000 A 
ATOM      3  C   UNL     1      -5.426  -2.472 128.552  0.00  0.00    +0.000 A 
ATOM      4  C   UNL     1      -5.780  -3.306 129.617  0.00  0.00    +0.000 A 
ATOM      5  C   UNL     1      -7.097  -3.786 129.691  0.00  0.00    +0.000 A 
ATOM      6  C   UNL     1      -8.046  -3.407 128.741  0.00  0.00    +0.000 A 
ENDROOT
BRANCH   1   7
ATOM      7  O   UNL     1      -8.520  -2.167 126.693  0.00  0.00    +0.000 OA
BRANCH   7   8
ATOM      8  C   UNL     1      -9.039  -3.234 125.901  0.00  0.00    +0.000 C 
BRANCH   8   9
ATOM      9  C   UNL     1      -9.218  -2.729 124.461  0.00  0.00    +0.000 C 
BRANCH   9  10
ATOM     10  O   UNL     1     -10.100  -3.575 123.711  0.00  0.00    +0.000 OA
ATOM     11  H   UNL     1     -10.485  -4.220 124.325  0.00  0.00    +0.000 HD
ENDBRANCH   9  10
BRANCH   9  12
ATOM     12  C   UNL     1      -7.845  -2.694 123.777  0.00  0.00    +0.000 C 
BRANCH  12  13
ATOM     13  N   UNL     1      -6.935  -3.683 124.360  0.00  0.00    +0.000 NA
ATOM     14  H   UNL     1      -7.136  -3.762 125.361  0.00  0.00    +0.000 HD
BRANCH  13  16
ATOM     15  C   UNL     1      -4.757  -4.648 123.848  0.00  0.00    +0.000 C 
ATOM     16  C   UNL     1      -5.525  -3.357 124.132  0.00  0.00    +0.000 C 
ATOM     17  C   UNL     1      -5.364  -2.403 122.945  0.00  0.00    +0.000 C 
ENDBRANCH  13  16
ENDBRANCH  12  13
ENDBRANCH   9  12
ENDBRANCH   8   9
ENDBRANCH   7   8
ENDBRANCH   1   7
BRANCH   4  18
ATOM     18  C   UNL     1      -4.748  -3.627 130.667  0.00  0.00    +0.000 C 
BRANCH  18  19
ATOM     19  O   UNL     1      -4.118  -2.438 131.124  0.00  0.00    +0.000 OA
BRANCH  19  20
ATOM     20  C   UNL     1      -4.007  -2.416 132.542  0.00  0.00    +0.000 C 
BRANCH  20  21
ATOM     21  C   UNL     1      -5.299  -1.838 133.085  0.00  0.00    +0.000 C 
BRANCH  21  22
ATOM     22  O   UNL     1      -5.701  -0.712 132.312  0.00  0.00    +0.000 OA
BRANCH  22  23
ATOM     23  C   UNL     1      -7.123  -0.541 132.293  0.00  0.00    +0.000 C 
ATOM     24  C   UNL     1      -7.633  -0.295 130.875  0.00  0.00    +0.000 C 
ATOM     25  C   UNL     1      -7.751  -1.815 132.847  0.00  0.00    +0.000 C 
ENDBRANCH  22  23
ENDBRANCH  21  22
ENDBRANCH  20  21
ENDBRANCH  19  20
ENDBRANCH  18  19
ENDBRANCH   4  18
TORSDOF 13
ENDMDL
MODEL 6
REMARK VINA RESULT:      -5.2      1.821      3.384
REMARK  Name = Bisoprolol
REMARK  17 active torsions:
REMARK  status: ('A' for Active; 'I' for Inactive)
REMARK    1  A    between atoms: C_1  and  C_2
REMARK    2  A    between atoms: C_2  and  C_3
REMARK    3  A    between atoms: C_2  and  N_4
REMARK    4  A    between atoms: N_4  and  C_5
REMARK    5  A    between atoms: C_5  and  C_6
REMARK    6  A    between atoms: C_6  and  O_7
REMARK    7  A    between atoms: C_6  and  C_8
REMARK    8  A    between atoms: C_8  and  O_9
REMARK    9  A    between atoms: O_9  and  C_10
REMARK   10  A    between atoms: C_13  and  C_14
REMARK   11  A    between atoms: C_14  and  O_15
REMARK   12  A    between atoms: O_15  and  C_16
REMARK   13  A    between atoms: C_16  and  C_17
REMARK   14  A    between atoms: C_17  and  O_18
REMARK   15  A    between atoms: O_18  and  C_19
REMARK   16  A    between atoms: C_19  and  C_20
REMARK   17  A    between atoms: C_19  and  C_21
REMARK                            x       y       z     vdW  Elec       q    Type
REMARK                         _______ _______ _______ _____ _____    ______ ____
ROOT
ATOM      1  C   UNL     1      -8.150  -1.950 127.340  0.00  0.00    +0.000 A 
ATOM      2  C   UNL     1      -8.309  -3.246 127.836  0.00  0.00    +0.000 A 
ATOM      3  C   UNL     1      -7.996  -3.532 129.164  0.00  0.00    +0.000 A 
ATOM      4  C   UNL     1      -7.476  -2.539 129.999  0.00  0.00    +0.000 A 
ATOM      5  C   UNL     1      -7.338  -1.235 129.496  0.00  0.00    +0.000 A 
ATOM      6  C   UNL     1      -7.678  -0.944 128.174  0.00  0.00    +0.000 A 
ENDROOT
BRANCH   1   7
ATOM      7  O   UNL     1      -8.581  -1.760 126.059  0.00  0.00    +0.000 OA
BRANCH   7   8
ATOM      8  C   UNL     1      -9.249  -2.871 125.464  0.00  0.00    +0.000 C 
BRANCH   8   9
ATOM      9  C   UNL     1      -9.440  -2.580 123.968  0.00  0.00    +0.000 C 
BRANCH   9  10
ATOM     10  O   UNL     1     -10.210  -3.606 123.324  0.00  0.00    +0.000 OA
ATOM     11  H   UNL     1     -10.635  -4.135 124.018  0.00  0.00    +0.000 HD
ENDBRANCH   9  10
BRANCH   9  12
ATOM     12  C   UNL     1      -8.060  -2.488 123.303  0.00  0.00    +0.000 C 
BRANCH  12  13
ATOM     13  N   UNL     1      -7.073  -3.306 124.012  0.00  0.00    +0.000 NA
ATOM     14  H   UNL     1      -7.307  -3.308 125.009  0.00  0.00    +0.000 HD
BRANCH  13  16
ATOM     15  C   UNL     1      -5.375  -1.754 124.814  0.00  0.00    +0.000 C 
ATOM     16  C   UNL     1      -5.699  -2.846 123.796  0.00  0.00    +0.000 C 
ATOM     17  C   UNL     1      -4.701  -3.996 123.954  0.00  0.00    +0.000 C 
ENDBRANCH  13  16
ENDBRANCH  12  13
ENDBRANCH   9  12
ENDBRANCH   8   9
ENDBRANCH   7   8
ENDBRANCH   1   7
BRANCH   4  18
ATOM     18  C   UNL     1      -7.045  -2.910 131.394  0.00  0.00    +0.000 C 
BRANCH  18  19
ATOM     19  O   UNL     1      -6.162  -1.927 131.919  0.00  0.00    +0.000 OA
BRANCH  19  20
ATOM     20  C   UNL     1      -6.708  -1.293 133.069  0.00  0.00    +0.000 C 
BRANCH  20  21
ATOM     21  C   UNL     1      -6.582   0.203 132.859  0.00  0.00    +0.000 C 
BRANCH  21  22
ATOM     22  O   UNL     1      -7.674   0.883 133.469  0.00  0.00    +0.000 OA
BRANCH  22  23
ATOM     23  C   UNL     1      -8.249   1.875 132.611  0.00  0.00    +0.000 C 
ATOM     24  C   UNL     1      -9.575   1.397 132.023  0.00  0.00    +0.000 C 
ATOM     25  C   UNL     1      -8.484   3.130 133.443  0.00  0.00    +0.000 C 
ENDBRANCH  22  23
ENDBRANCH  21  22
ENDBRANCH  20  21
ENDBRANCH  19  20
ENDBRANCH  18  19
ENDBRANCH   4  18
TORSDOF 13
ENDMDL
MODEL 7
REMARK VINA RESULT:      -5.2      8.469     10.376
REMARK  Name = Bisoprolol
REMARK  17 active torsions:
REMARK  status: ('A' for Active; 'I' for Inactive)
REMARK    1  A    between atoms: C_1  and  C_2
REMARK    2  A    between atoms: C_2  and  C_3
REMARK    3  A    between atoms: C_2  and  N_4
REMARK    4  A    between atoms: N_4  and  C_5
REMARK    5  A    between atoms: C_5  and  C_6
REMARK    6  A    between atoms: C_6  and  O_7
REMARK    7  A    between atoms: C_6  and  C_8
REMARK    8  A    between atoms: C_8  and  O_9
REMARK    9  A    between atoms: O_9  and  C_10
REMARK   10  A    between atoms: C_13  and  C_14
REMARK   11  A    between atoms: C_14  and  O_15
REMARK   12  A    between atoms: O_15  and  C_16
REMARK   13  A    between atoms: C_16  and  C_17
REMARK   14  A    between atoms: C_17  and  O_18
REMARK   15  A    between atoms: O_18  and  C_19
REMARK   16  A    between atoms: C_19  and  C_20
REMARK   17  A    between atoms: C_19  and  C_21
REMARK                            x       y       z     vdW  Elec       q    Type
REMARK                         _______ _______ _______ _____ _____    ______ ____
ROOT
ATOM      1  C   UNL     1      -8.359   6.570 131.711  0.00  0.00    +0.000 A 
ATOM      2  C   UNL     1      -7.613   7.229 130.732  0.00  0.00    +0.000 A 
ATOM      3  C   UNL     1      -6.221   7.157 130.744  0.00  0.00    +0.000 A 
ATOM      4  C   UNL     1      -5.556   6.466 131.761  0.00  0.00    +0.000 A 
ATOM      5  C   UNL     1      -6.315   5.791 132.730  0.00  0.00    +0.000 A 
ATOM      6  C   UNL     1      -7.710   5.841 132.700  0.00  0.00    +0.000 A 
ENDROOT
BRANCH   1   7
ATOM      7  O   UNL     1      -9.713   6.622 131.546  0.00  0.00    +0.000 OA
BRANCH   7   8
ATOM      8  C   UNL     1     -10.414   5.410 131.821  0.00  0.00    +0.000 C 
BRANCH   8   9
ATOM      9  C   UNL     1     -11.017   4.887 130.509  0.00  0.00    +0.000 C 
BRANCH   9  10
ATOM     10  O   UNL     1     -10.008   4.364 129.635  0.00  0.00    +0.000 OA
ATOM     11  H   UNL     1      -9.975   3.403 129.764  0.00  0.00    +0.000 HD
ENDBRANCH   9  10
BRANCH   9  12
ATOM     12  C   UNL     1     -11.748   6.041 129.809  0.00  0.00    +0.000 C 
BRANCH  12  13
ATOM     13  N   UNL     1     -10.975   6.548 128.673  0.00  0.00    +0.000 NA
ATOM     14  H   UNL     1     -10.050   6.832 129.009  0.00  0.00    +0.000 HD
BRANCH  13  16
ATOM     15  C   UNL     1     -12.826   7.095 127.187  0.00  0.00    +0.000 C 
ATOM     16  C   UNL     1     -11.645   7.652 127.982  0.00  0.00    +0.000 C 
ATOM     17  C   UNL     1     -12.155   8.698 128.976  0.00  0.00    +0.000 C 
ENDBRANCH  13  16
ENDBRANCH  12  13
ENDBRANCH   9  12
ENDBRANCH   8   9
ENDBRANCH   7   8
ENDBRANCH   1   7
BRANCH   4  18
ATOM     18  C   UNL     1      -4.050   6.504 131.806  0.00  0.00    +0.000 C 
BRANCH  18  19
ATOM     19  O   UNL     1      -3.543   7.345 130.779  0.00  0.00    +0.000 OA
BRANCH  19  20
ATOM     20  C   UNL     1      -2.729   6.624 129.864  0.00  0.00    +0.000 C 
BRANCH  20  21
ATOM     21  C   UNL     1      -3.082   7.109 128.471  0.00  0.00    +0.000 C 
BRANCH  21  22
ATOM     22  O   UNL     1      -4.216   6.405 127.974  0.00  0.00    +0.000 OA
BRANCH  22  23
ATOM     23  C   UNL     1      -4.127   4.994 128.200  0.00  0.00    +0.000 C 
ATOM     24  C   UNL     1      -5.501   4.388 128.474  0.00  0.00    +0.000 C 
ATOM     25  C   UNL     1      -3.531   4.360 126.948  0.00  0.00    +0.000 C 
ENDBRANCH  22  23
ENDBRANCH  21  22
ENDBRANCH  20  21
ENDBRANCH  19  20
ENDBRANCH  18  19
ENDBRANCH   4  18
TORSDOF 13
ENDMDL
MODEL 8
REMARK VINA RESULT:      -5.2      9.158     10.373
REMARK  Name = Bisoprolol
REMARK  17 active torsions:
REMARK  status: ('A' for Active; 'I' for Inactive)
REMARK    1  A    between atoms: C_1  and  C_2
REMARK    2  A    between atoms: C_2  and  C_3
REMARK    3  A    between atoms: C_2  and  N_4
REMARK    4  A    between atoms: N_4  and  C_5
REMARK    5  A    between atoms: C_5  and  C_6
REMARK    6  A    between atoms: C_6  and  O_7
REMARK    7  A    between atoms: C_6  and  C_8
REMARK    8  A    between atoms: C_8  and  O_9
REMARK    9  A    between atoms: O_9  and  C_10
REMARK   10  A    between atoms: C_13  and  C_14
REMARK   11  A    between atoms: C_14  and  O_15
REMARK   12  A    between atoms: O_15  and  C_16
REMARK   13  A    between atoms: C_16  and  C_17
REMARK   14  A    between atoms: C_17  and  O_18
REMARK   15  A    between atoms: O_18  and  C_19
REMARK   16  A    between atoms: C_19  and  C_20
REMARK   17  A    between atoms: C_19  and  C_21
REMARK                            x       y       z     vdW  Elec       q    Type
REMARK                         _______ _______ _______ _____ _____    ______ ____
ROOT
ATOM      1  C   UNL     1      -7.985   6.727 131.159  0.00  0.00    +0.000 A 
ATOM      2  C   UNL     1      -8.139   5.995 132.338  0.00  0.00    +0.000 A 
ATOM      3  C   UNL     1      -7.026   5.666 133.110  0.00  0.00    +0.000 A 
ATOM      4  C   UNL     1      -5.741   6.023 132.689  0.00  0.00    +0.000 A 
ATOM      5  C   UNL     1      -5.600   6.775 131.512  0.00  0.00    +0.000 A 
ATOM      6  C   UNL     1      -6.718   7.128 130.755  0.00  0.00    +0.000 A 
ENDROOT
BRANCH   1   7
ATOM      7  O   UNL     1      -9.148   7.081 130.537  0.00  0.00    +0.000 OA
BRANCH   7   8
ATOM      8  C   UNL     1     -10.175   6.091 130.544  0.00  0.00    +0.000 C 
BRANCH   8   9
ATOM      9  C   UNL     1     -11.460   6.725 131.097  0.00  0.00    +0.000 C 
BRANCH   9  10
ATOM     10  O   UNL     1     -12.002   5.960 132.183  0.00  0.00    +0.000 OA
ATOM     11  H   UNL     1     -12.610   6.535 132.675  0.00  0.00    +0.000 HD
ENDBRANCH   9  10
BRANCH   9  12
ATOM     12  C   UNL     1     -12.495   6.805 129.967  0.00  0.00    +0.000 C 
BRANCH  12  13
ATOM     13  N   UNL     1     -11.921   6.379 128.689  0.00  0.00    +0.000 NA
ATOM     14  H   UNL     1     -10.908   6.283 128.802  0.00  0.00    +0.000 HD
BRANCH  13  16
ATOM     15  C   UNL     1     -13.241   8.339 128.093  0.00  0.00    +0.000 C 
ATOM     16  C   UNL     1     -12.242   7.296 127.592  0.00  0.00    +0.000 C 
ATOM     17  C   UNL     1     -10.986   8.006 127.080  0.00  0.00    +0.000 C 
ENDBRANCH  13  16
ENDBRANCH  12  13
ENDBRANCH   9  12
ENDBRANCH   8   9
ENDBRANCH   7   8
ENDBRANCH   1   7
BRANCH   4  18
ATOM     18  C   UNL     1      -4.554   5.554 133.489  0.00  0.00    +0.000 C 
BRANCH  18  19
ATOM     19  O   UNL     1      -3.839   4.554 132.777  0.00  0.00    +0.000 OA
BRANCH  19  20
ATOM     20  C   UNL     1      -2.457   4.872 132.670  0.00  0.00    +0.000 C 
BRANCH  20  21
ATOM     21  C   UNL     1      -2.211   5.332 131.247  0.00  0.00    +0.000 C 
BRANCH  21  22
ATOM     22  O   UNL     1      -3.045   4.615 130.343  0.00  0.00    +0.000 OA
BRANCH  22  23
ATOM     23  C   UNL     1      -2.903   5.066 128.991  0.00  0.00    +0.000 C 
ATOM     24  C   UNL     1      -4.264   5.266 128.327  0.00  0.00    +0.000 C 
ATOM     25  C   UNL     1      -2.151   6.392 129.021  0.00  0.00    +0.000 C 
ENDBRANCH  22  23
ENDBRANCH  21  22
ENDBRANCH  20  21
ENDBRANCH  19  20
ENDBRANCH  18  19
ENDBRANCH   4  18
TORSDOF 13
ENDMDL
MODEL 9
REMARK VINA RESULT:      -5.1      2.540      6.790
REMARK  Name = Bisoprolol
REMARK  17 active torsions:
REMARK  status: ('A' for Active; 'I' for Inactive)
REMARK    1  A    between atoms: C_1  and  C_2
REMARK    2  A    between atoms: C_2  and  C_3
REMARK    3  A    between atoms: C_2  and  N_4
REMARK    4  A    between atoms: N_4  and  C_5
REMARK    5  A    between atoms: C_5  and  C_6
REMARK    6  A    between atoms: C_6  and  O_7
REMARK    7  A    between atoms: C_6  and  C_8
REMARK    8  A    between atoms: C_8  and  O_9
REMARK    9  A    between atoms: O_9  and  C_10
REMARK   10  A    between atoms: C_13  and  C_14
REMARK   11  A    between atoms: C_14  and  O_15
REMARK   12  A    between atoms: O_15  and  C_16
REMARK   13  A    between atoms: C_16  and  C_17
REMARK   14  A    between atoms: C_17  and  O_18
REMARK   15  A    between atoms: O_18  and  C_19
REMARK   16  A    between atoms: C_19  and  C_20
REMARK   17  A    between atoms: C_19  and  C_21
REMARK                            x       y       z     vdW  Elec       q    Type
REMARK                         _______ _______ _______ _____ _____    ______ ____
ROOT
ATOM      1  C   UNL     1      -7.424  -0.374 128.319  0.00  0.00    +0.000 A 
ATOM      2  C   UNL     1      -7.412  -1.757 128.508  0.00  0.00    +0.000 A 
ATOM      3  C   UNL     1      -8.021  -2.597 127.576  0.00  0.00    +0.000 A 
ATOM      4  C   UNL     1      -8.691  -2.063 126.472  0.00  0.00    +0.000 A 
ATOM      5  C   UNL     1      -8.681  -0.672 126.282  0.00  0.00    +0.000 A 
ATOM      6  C   UNL     1      -8.045   0.166 127.200  0.00  0.00    +0.000 A 
ENDROOT
BRANCH   1   7
ATOM      7  O   UNL     1      -6.711   0.344 129.236  0.00  0.00    +0.000 OA
BRANCH   7   8
ATOM      8  C   UNL     1      -6.285  -0.380 130.388  0.00  0.00    +0.000 C 
BRANCH   8   9
ATOM      9  C   UNL     1      -4.788  -0.116 130.604  0.00  0.00    +0.000 C 
BRANCH   9  10
ATOM     10  O   UNL     1      -4.121   0.183 129.370  0.00  0.00    +0.000 OA
ATOM     11  H   UNL     1      -4.693  -0.115 128.645  0.00  0.00    +0.000 HD
ENDBRANCH   9  10
BRANCH   9  12
ATOM     12  C   UNL     1      -4.154  -1.363 131.234  0.00  0.00    +0.000 C 
BRANCH  12  13
ATOM     13  N   UNL     1      -5.079  -2.499 131.212  0.00  0.00    +0.000 NA
ATOM     14  H   UNL     1      -5.395  -2.681 132.169  0.00  0.00    +0.000 HD
BRANCH  13  16
ATOM     15  C   UNL     1      -5.523  -4.822 130.625  0.00  0.00    +0.000 C 
ATOM     16  C   UNL     1      -4.486  -3.699 130.617  0.00  0.00    +0.000 C 
ATOM     17  C   UNL     1      -4.037  -3.437 129.177  0.00  0.00    +0.000 C 
ENDBRANCH  13  16
ENDBRANCH  12  13
ENDBRANCH   9  12
ENDBRANCH   8   9
ENDBRANCH   7   8
ENDBRANCH   1   7
BRANCH   4  18
ATOM     18  C   UNL     1      -9.434  -2.992 125.548  0.00  0.00    +0.000 C 
BRANCH  18  19
ATOM     19  O   UNL     1      -9.566  -2.410 124.258  0.00  0.00    +0.000 OA
BRANCH  19  20
ATOM     20  C   UNL     1      -8.626  -2.952 123.339  0.00  0.00    +0.000 C 
BRANCH  20  21
ATOM     21  C   UNL     1      -7.808  -1.796 122.799  0.00  0.00    +0.000 C 
BRANCH  21  22
ATOM     22  O   UNL     1      -6.429  -2.146 122.748  0.00  0.00    +0.000 OA
BRANCH  22  23
ATOM     23  C   UNL     1      -5.966  -2.727 123.972  0.00  0.00    +0.000 C 
ATOM     24  C   UNL     1      -4.848  -3.736 123.720  0.00  0.00    +0.000 C 
ATOM     25  C   UNL     1      -5.444  -1.598 124.854  0.00  0.00    +0.000 C 
ENDBRANCH  22  23
ENDBRANCH  21  22
ENDBRANCH  20  21
ENDBRANCH  19  20
ENDBRANCH  18  19
ENDBRANCH   4  18
TORSDOF 13
ENDMDL
