MODEL 1
REMARK VINA RESULT:      -8.6      0.000      0.000
REMARK  Name = Bisoxatin
REMARK  4 active torsions:
REMARK  status: ('A' for Active; 'I' for Inactive)
REMARK    1  A    between atoms: O_1  and  C_2
REMARK    2  A    between atoms: C_5  and  C_8
REMARK    3  A    between atoms: C_8  and  C_19
REMARK    4  A    between atoms: C_22  and  O_23
REMARK                            x       y       z     vdW  Elec       q    Type
REMARK                         _______ _______ _______ _____ _____    ______ ____
ROOT
ATOM      1  C   UNL     1      -8.548   2.044 124.097  0.00  0.00    +0.000 C 
ATOM      2  O   UNL     1      -9.292   0.944 123.645  0.00  0.00    +0.000 OA
ATOM      3  C   UNL     1      -8.501  -0.122 123.351  0.00  0.00    +0.000 A 
ATOM      4  C   UNL     1      -9.223  -1.308 123.069  0.00  0.00    +0.000 A 
ATOM      5  C   UNL     1      -8.602  -2.537 123.192  0.00  0.00    +0.000 A 
ATOM      6  C   UNL     1      -7.287  -2.552 123.653  0.00  0.00    +0.000 A 
ATOM      7  C   UNL     1      -6.544  -1.332 123.829  0.00  0.00    +0.000 A 
ATOM      8  C   UNL     1      -7.117  -0.057 123.585  0.00  0.00    +0.000 A 
ATOM      9  N   UNL     1      -6.443   1.338 123.840  0.00  0.00    +0.000 N 
ATOM     10  C   UNL     1      -7.392   2.734 124.089  0.00  0.00    +0.000 C 
ATOM     11  O   UNL     1      -7.528   3.971 124.354  0.00  0.00    +0.000 OA
ATOM     12  H   UNL     1      -5.510   1.362 124.215  0.00  0.00    +0.000 HD
ENDROOT
BRANCH   1  16
ATOM     13  C   UNL     1      -7.064   4.174 120.139  0.00  0.00    +0.000 A 
ATOM     14  C   UNL     1      -8.433   3.901 120.410  0.00  0.00    +0.000 A 
ATOM     15  C   UNL     1      -8.901   3.171 121.534  0.00  0.00    +0.000 A 
ATOM     16  C   UNL     1      -7.972   2.651 122.402  0.00  0.00    +0.000 A 
ATOM     17  C   UNL     1      -6.491   3.091 122.068  0.00  0.00    +0.000 A 
ATOM     18  C   UNL     1      -6.070   3.820 120.995  0.00  0.00    +0.000 A 
BRANCH  13  19
ATOM     19  O   UNL     1      -6.646   4.795 119.002  0.00  0.00    +0.000 OA
ATOM     20  H   UNL     1      -5.759   5.137 119.172  0.00  0.00    +0.000 HD
ENDBRANCH  13  19
ENDBRANCH   1  16
BRANCH   1  21
ATOM     21  C   UNL     1      -7.594   1.855 125.768  0.00  0.00    +0.000 A 
ATOM     22  C   UNL     1      -7.780   0.473 126.640  0.00  0.00    +0.000 A 
ATOM     23  C   UNL     1      -8.105   0.330 127.984  0.00  0.00    +0.000 A 
ATOM     24  C   UNL     1      -8.160   1.505 128.667  0.00  0.00    +0.000 A 
ATOM     25  C   UNL     1      -7.878   2.747 128.034  0.00  0.00    +0.000 A 
ATOM     26  C   UNL     1      -7.491   2.947 126.645  0.00  0.00    +0.000 A 
BRANCH  24  27
ATOM     27  O   UNL     1      -8.566   1.485 129.968  0.00  0.00    +0.000 OA
ATOM     28  H   UNL     1      -8.477   2.396 130.308  0.00  0.00    +0.000 HD
ENDBRANCH  24  27
ENDBRANCH   1  21
TORSDOF 4
ENDMDL
MODEL 2
REMARK VINA RESULT:      -8.5      8.042      9.768
REMARK  Name = Bisoxatin
REMARK  4 active torsions:
REMARK  status: ('A' for Active; 'I' for Inactive)
REMARK    1  A    between atoms: O_1  and  C_2
REMARK    2  A    between atoms: C_5  and  C_8
REMARK    3  A    between atoms: C_8  and  C_19
REMARK    4  A    between atoms: C_22  and  O_23
REMARK                            x       y       z     vdW  Elec       q    Type
REMARK                         _______ _______ _______ _____ _____    ______ ____
ROOT
ATOM      1  C   UNL     1      -8.834   4.350 131.153  0.00  0.00    +0.000 C 
ATOM      2  O   UNL     1      -7.600   5.001 131.302  0.00  0.00    +0.000 OA
ATOM      3  C   UNL     1      -7.427   5.488 132.559  0.00  0.00    +0.000 A 
ATOM      4  C   UNL     1      -6.123   5.989 132.802  0.00  0.00    +0.000 A 
ATOM      5  C   UNL     1      -5.660   6.097 134.101  0.00  0.00    +0.000 A 
ATOM      6  C   UNL     1      -6.493   5.646 135.122  0.00  0.00    +0.000 A 
ATOM      7  C   UNL     1      -7.850   5.243 134.858  0.00  0.00    +0.000 A 
ATOM      8  C   UNL     1      -8.395   5.245 133.547  0.00  0.00    +0.000 A 
ATOM      9  N   UNL     1      -9.817   4.733 133.124  0.00  0.00    +0.000 N 
ATOM     10  C   UNL     1     -10.123   4.228 131.523  0.00  0.00    +0.000 C 
ATOM     11  O   UNL     1     -10.874   3.736 130.621  0.00  0.00    +0.000 OA
ATOM     12  H   UNL     1     -10.426   4.359 133.832  0.00  0.00    +0.000 HD
ENDROOT
BRANCH   1  16
ATOM     13  C   UNL     1     -11.857   7.864 130.197  0.00  0.00    +0.000 A 
ATOM     14  C   UNL     1     -10.592   7.732 129.562  0.00  0.00    +0.000 A 
ATOM     15  C   UNL     1      -9.620   6.754 129.901  0.00  0.00    +0.000 A 
ATOM     16  C   UNL     1      -9.895   5.901 130.942  0.00  0.00    +0.000 A 
ATOM     17  C   UNL     1     -11.358   6.066 131.515  0.00  0.00    +0.000 A 
ATOM     18  C   UNL     1     -12.286   6.996 131.149  0.00  0.00    +0.000 A 
BRANCH  13  19
ATOM     19  O   UNL     1     -12.725   8.873 129.910  0.00  0.00    +0.000 OA
ATOM     20  H   UNL     1     -13.442   8.826 130.555  0.00  0.00    +0.000 HD
ENDBRANCH  13  19
ENDBRANCH   1  16
BRANCH   1  21
ATOM     21  C   UNL     1      -9.129   2.743 132.187  0.00  0.00    +0.000 A 
ATOM     22  C   UNL     1      -7.883   2.116 133.059  0.00  0.00    +0.000 A 
ATOM     23  C   UNL     1      -7.400   0.812 133.069  0.00  0.00    +0.000 A 
ATOM     24  C   UNL     1      -8.144  -0.059 132.339  0.00  0.00    +0.000 A 
ATOM     25  C   UNL     1      -9.323   0.357 131.660  0.00  0.00    +0.000 A 
ATOM     26  C   UNL     1      -9.895   1.695 131.652  0.00  0.00    +0.000 A 
BRANCH  24  27
ATOM     27  O   UNL     1      -7.702  -1.342 132.204  0.00  0.00    +0.000 OA
ATOM     28  H   UNL     1      -7.415  -1.638 133.089  0.00  0.00    +0.000 HD
ENDBRANCH  24  27
ENDBRANCH   1  21
TORSDOF 4
ENDMDL
MODEL 3
REMARK VINA RESULT:      -8.4      7.146      8.567
REMARK  Name = Bisoxatin
REMARK  4 active torsions:
REMARK  status: ('A' for Active; 'I' for Inactive)
REMARK    1  A    between atoms: O_1  and  C_2
REMARK    2  A    between atoms: C_5  and  C_8
REMARK    3  A    between atoms: C_8  and  C_19
REMARK    4  A    between atoms: C_22  and  O_23
REMARK                            x       y       z     vdW  Elec       q    Type
REMARK                         _______ _______ _______ _____ _____    ______ ____
ROOT
ATOM      1  C   UNL     1      -8.854   5.698 131.594  0.00  0.00    +0.000 C 
ATOM      2  O   UNL     1      -9.376   4.628 132.333  0.00  0.00    +0.000 OA
ATOM      3  C   UNL     1      -9.411   3.476 131.611  0.00  0.00    +0.000 A 
ATOM      4  C   UNL     1      -9.757   2.334 132.375  0.00  0.00    +0.000 A 
ATOM      5  C   UNL     1      -9.412   1.074 131.923  0.00  0.00    +0.000 A 
ATOM      6  C   UNL     1      -8.674   0.991 130.744  0.00  0.00    +0.000 A 
ATOM      7  C   UNL     1      -8.428   2.156 129.934  0.00  0.00    +0.000 A 
ATOM      8  C   UNL     1      -8.885   3.446 130.309  0.00  0.00    +0.000 A 
ATOM      9  N   UNL     1      -8.591   4.797 129.565  0.00  0.00    +0.000 N 
ATOM     10  C   UNL     1      -8.659   6.285 130.397  0.00  0.00    +0.000 C 
ATOM     11  O   UNL     1      -8.521   7.549 130.459  0.00  0.00    +0.000 OA
ATOM     12  H   UNL     1      -8.023   4.777 128.735  0.00  0.00    +0.000 HD
ENDROOT
BRANCH   1  16
ATOM     13  C   UNL     1     -12.578   7.332 129.172  0.00  0.00    +0.000 A 
ATOM     14  C   UNL     1     -12.620   7.047 130.564  0.00  0.00    +0.000 A 
ATOM     15  C   UNL     1     -11.556   6.457 131.297  0.00  0.00    +0.000 A 
ATOM     16  C   UNL     1     -10.421   6.094 130.613  0.00  0.00    +0.000 A 
ATOM     17  C   UNL     1     -10.437   6.540 129.097  0.00  0.00    +0.000 A 
ATOM     18  C   UNL     1     -11.463   7.134 128.423  0.00  0.00    +0.000 A 
BRANCH  13  19
ATOM     19  O   UNL     1     -13.652   7.810 128.484  0.00  0.00    +0.000 OA
ATOM     20  H   UNL     1     -13.376   8.632 128.058  0.00  0.00    +0.000 HD
ENDBRANCH  13  19
ENDBRANCH   1  16
BRANCH   1  21
ATOM     21  C   UNL     1      -7.005   5.587 131.038  0.00  0.00    +0.000 A 
ATOM     22  C   UNL     1      -6.101   4.306 131.534  0.00  0.00    +0.000 A 
ATOM     23  C   UNL     1      -4.853   4.309 132.149  0.00  0.00    +0.000 A 
ATOM     24  C   UNL     1      -4.284   5.540 132.238  0.00  0.00    +0.000 A 
ATOM     25  C   UNL     1      -4.926   6.696 131.712  0.00  0.00    +0.000 A 
ATOM     26  C   UNL     1      -6.206   6.741 131.022  0.00  0.00    +0.000 A 
BRANCH  24  27
ATOM     27  O   UNL     1      -3.105   5.667 132.911  0.00  0.00    +0.000 OA
ATOM     28  H   UNL     1      -2.406   5.309 132.331  0.00  0.00    +0.000 HD
ENDBRANCH  24  27
ENDBRANCH   1  21
TORSDOF 4
ENDMDL
MODEL 4
REMARK VINA RESULT:      -8.4      1.480      1.957
REMARK  Name = Bisoxatin
REMARK  4 active torsions:
REMARK  status: ('A' for Active; 'I' for Inactive)
REMARK    1  A    between atoms: O_1  and  C_2
REMARK    2  A    between atoms: C_5  and  C_8
REMARK    3  A    between atoms: C_8  and  C_19
REMARK    4  A    between atoms: C_22  and  O_23
REMARK                            x       y       z     vdW  Elec       q    Type
REMARK                         _______ _______ _______ _____ _____    ______ ____
ROOT
ATOM      1  C   UNL     1      -8.644   0.706 125.558  0.00  0.00    +0.000 C 
ATOM      2  O   UNL     1      -9.366  -0.367 125.015  0.00  0.00    +0.000 OA
ATOM      3  C   UNL     1      -8.549  -1.347 124.545  0.00  0.00    +0.000 A 
ATOM      4  C   UNL     1      -9.236  -2.525 124.158  0.00  0.00    +0.000 A 
ATOM      5  C   UNL     1      -8.555  -3.727 124.091  0.00  0.00    +0.000 A 
ATOM      6  C   UNL     1      -7.214  -3.731 124.471  0.00  0.00    +0.000 A 
ATOM      7  C   UNL     1      -6.515  -2.505 124.756  0.00  0.00    +0.000 A 
ATOM      8  C   UNL     1      -7.158  -1.241 124.707  0.00  0.00    +0.000 A 
ATOM      9  N   UNL     1      -6.531   0.145 125.095  0.00  0.00    +0.000 N 
ATOM     10  C   UNL     1      -7.522   1.449 125.570  0.00  0.00    +0.000 C 
ATOM     11  O   UNL     1      -7.695   2.637 125.996  0.00  0.00    +0.000 OA
ATOM     12  H   UNL     1      -5.578   0.170 125.417  0.00  0.00    +0.000 HD
ENDROOT
BRANCH   1  16
ATOM     13  C   UNL     1      -7.555   3.384 121.809  0.00  0.00    +0.000 A 
ATOM     14  C   UNL     1      -8.874   2.927 122.083  0.00  0.00    +0.000 A 
ATOM     15  C   UNL     1      -9.215   2.037 123.135  0.00  0.00    +0.000 A 
ATOM     16  C   UNL     1      -8.202   1.545 123.921  0.00  0.00    +0.000 A 
ATOM     17  C   UNL     1      -6.794   2.185 123.600  0.00  0.00    +0.000 A 
ATOM     18  C   UNL     1      -6.498   3.064 122.599  0.00  0.00    +0.000 A 
BRANCH  13  19
ATOM     19  O   UNL     1      -7.252   4.161 120.734  0.00  0.00    +0.000 OA
ATOM     20  H   UNL     1      -6.920   3.575 120.041  0.00  0.00    +0.000 HD
ENDBRANCH  13  19
ENDBRANCH   1  16
BRANCH   1  21
ATOM     21  C   UNL     1      -7.580   0.363 127.135  0.00  0.00    +0.000 A 
ATOM     22  C   UNL     1      -7.560  -1.155 127.768  0.00  0.00    +0.000 A 
ATOM     23  C   UNL     1      -7.789  -1.552 129.081  0.00  0.00    +0.000 A 
ATOM     24  C   UNL     1      -7.936  -0.520 129.953  0.00  0.00    +0.000 A 
ATOM     25  C   UNL     1      -7.830   0.834 129.528  0.00  0.00    +0.000 A 
ATOM     26  C   UNL     1      -7.549   1.302 128.179  0.00  0.00    +0.000 A 
BRANCH  24  27
ATOM     27  O   UNL     1      -8.260  -0.799 131.247  0.00  0.00    +0.000 OA
ATOM     28  H   UNL     1      -8.195  -1.768 131.354  0.00  0.00    +0.000 HD
ENDBRANCH  24  27
ENDBRANCH   1  21
TORSDOF 4
ENDMDL
MODEL 5
REMARK VINA RESULT:      -8.3      3.009      5.708
REMARK  Name = Bisoxatin
REMARK  4 active torsions:
REMARK  status: ('A' for Active; 'I' for Inactive)
REMARK    1  A    between atoms: O_1  and  C_2
REMARK    2  A    between atoms: C_5  and  C_8
REMARK    3  A    between atoms: C_8  and  C_19
REMARK    4  A    between atoms: C_22  and  O_23
REMARK                            x       y       z     vdW  Elec       q    Type
REMARK                         _______ _______ _______ _____ _____    ______ ____
ROOT
ATOM      1  C   UNL     1      -6.274  -0.762 125.483  0.00  0.00    +0.000 C 
ATOM      2  O   UNL     1      -6.268  -1.132 126.836  0.00  0.00    +0.000 OA
ATOM      3  C   UNL     1      -7.421  -1.752 127.202  0.00  0.00    +0.000 A 
ATOM      4  C   UNL     1      -7.383  -2.305 128.506  0.00  0.00    +0.000 A 
ATOM      5  C   UNL     1      -8.261  -3.316 128.850  0.00  0.00    +0.000 A 
ATOM      6  C   UNL     1      -9.118  -3.791 127.859  0.00  0.00    +0.000 A 
ATOM      7  C   UNL     1      -9.211  -3.142 126.578  0.00  0.00    +0.000 A 
ATOM      8  C   UNL     1      -8.412  -2.018 126.242  0.00  0.00    +0.000 A 
ATOM      9  N   UNL     1      -8.350  -1.294 124.850  0.00  0.00    +0.000 N 
ATOM     10  C   UNL     1      -6.975  -0.396 124.393  0.00  0.00    +0.000 C 
ATOM     11  O   UNL     1      -6.306   0.296 123.559  0.00  0.00    +0.000 OA
ATOM     12  H   UNL     1      -8.924  -1.641 124.100  0.00  0.00    +0.000 HD
ENDROOT
BRANCH   1  16
ATOM     13  C   UNL     1      -8.483   3.425 125.497  0.00  0.00    +0.000 A 
ATOM     14  C   UNL     1      -7.510   3.056 126.465  0.00  0.00    +0.000 A 
ATOM     15  C   UNL     1      -6.909   1.772 126.552  0.00  0.00    +0.000 A 
ATOM     16  C   UNL     1      -7.321   0.802 125.672  0.00  0.00    +0.000 A 
ATOM     17  C   UNL     1      -8.330   1.337 124.580  0.00  0.00    +0.000 A 
ATOM     18  C   UNL     1      -8.871   2.587 124.500  0.00  0.00    +0.000 A 
BRANCH  13  19
ATOM     19  O   UNL     1      -9.108   4.634 125.502  0.00  0.00    +0.000 OA
ATOM     20  H   UNL     1      -8.438   5.304 125.315  0.00  0.00    +0.000 HD
ENDBRANCH  13  19
ENDBRANCH   1  16
BRANCH   1  21
ATOM     21  C   UNL     1      -6.334  -2.176 124.167  0.00  0.00    +0.000 A 
ATOM     22  C   UNL     1      -6.517  -3.730 124.675  0.00  0.00    +0.000 A 
ATOM     23  C   UNL     1      -5.754  -4.846 124.348  0.00  0.00    +0.000 A 
ATOM     24  C   UNL     1      -4.812  -4.613 123.397  0.00  0.00    +0.000 A 
ATOM     25  C   UNL     1      -4.667  -3.333 122.792  0.00  0.00    +0.000 A 
ATOM     26  C   UNL     1      -5.465  -2.147 123.064  0.00  0.00    +0.000 A 
BRANCH  24  27
ATOM     27  O   UNL     1      -3.947  -5.615 123.075  0.00  0.00    +0.000 OA
ATOM     28  H   UNL     1      -4.237  -5.977 122.216  0.00  0.00    +0.000 HD
ENDBRANCH  24  27
ENDBRANCH   1  21
TORSDOF 4
ENDMDL
MODEL 6
REMARK VINA RESULT:      -8.0      2.880      6.612
REMARK  Name = Bisoxatin
REMARK  4 active torsions:
REMARK  status: ('A' for Active; 'I' for Inactive)
REMARK    1  A    between atoms: O_1  and  C_2
REMARK    2  A    between atoms: C_5  and  C_8
REMARK    3  A    between atoms: C_8  and  C_19
REMARK    4  A    between atoms: C_22  and  O_23
REMARK                            x       y       z     vdW  Elec       q    Type
REMARK                         _______ _______ _______ _____ _____    ______ ____
ROOT
ATOM      1  C   UNL     1      -6.258  -0.193 126.725  0.00  0.00    +0.000 C 
ATOM      2  O   UNL     1      -5.656  -0.710 125.569  0.00  0.00    +0.000 OA
ATOM      3  C   UNL     1      -6.527  -1.440 124.822  0.00  0.00    +0.000 A 
ATOM      4  C   UNL     1      -6.012  -1.825 123.559  0.00  0.00    +0.000 A 
ATOM      5  C   UNL     1      -6.881  -2.163 122.537  0.00  0.00    +0.000 A 
ATOM      6  C   UNL     1      -8.247  -2.049 122.787  0.00  0.00    +0.000 A 
ATOM      7  C   UNL     1      -8.743  -1.760 124.107  0.00  0.00    +0.000 A 
ATOM      8  C   UNL     1      -7.875  -1.536 125.207  0.00  0.00    +0.000 A 
ATOM      9  N   UNL     1      -8.293  -1.114 126.660  0.00  0.00    +0.000 N 
ATOM     10  C   UNL     1      -7.194  -0.308 127.685  0.00  0.00    +0.000 C 
ATOM     11  O   UNL     1      -6.891   0.280 128.774  0.00  0.00    +0.000 OA
ATOM     12  H   UNL     1      -9.269  -0.980 126.861  0.00  0.00    +0.000 HD
ENDROOT
BRANCH   1  16
ATOM     13  C   UNL     1      -6.074  -3.739 129.855  0.00  0.00    +0.000 A 
ATOM     14  C   UNL     1      -4.921  -3.199 129.223  0.00  0.00    +0.000 A 
ATOM     15  C   UNL     1      -4.951  -2.211 128.203  0.00  0.00    +0.000 A 
ATOM     16  C   UNL     1      -6.175  -1.773 127.761  0.00  0.00    +0.000 A 
ATOM     17  C   UNL     1      -7.385  -2.359 128.590  0.00  0.00    +0.000 A 
ATOM     18  C   UNL     1      -7.327  -3.288 129.588  0.00  0.00    +0.000 A 
BRANCH  13  19
ATOM     19  O   UNL     1      -6.012  -4.754 130.761  0.00  0.00    +0.000 OA
ATOM     20  H   UNL     1      -5.673  -5.531 130.298  0.00  0.00    +0.000 HD
ENDBRANCH  13  19
ENDBRANCH   1  16
BRANCH   1  21
ATOM     21  C   UNL     1      -7.676   1.100 126.495  0.00  0.00    +0.000 A 
ATOM     22  C   UNL     1      -8.050   1.611 124.977  0.00  0.00    +0.000 A 
ATOM     23  C   UNL     1      -8.171   2.913 124.503  0.00  0.00    +0.000 A 
ATOM     24  C   UNL     1      -8.071   3.864 125.469  0.00  0.00    +0.000 A 
ATOM     25  C   UNL     1      -7.887   3.518 126.837  0.00  0.00    +0.000 A 
ATOM     26  C   UNL     1      -7.800   2.175 127.390  0.00  0.00    +0.000 A 
BRANCH  24  27
ATOM     27  O   UNL     1      -8.079   5.175 125.097  0.00  0.00    +0.000 OA
ATOM     28  H   UNL     1      -8.692   5.639 125.699  0.00  0.00    +0.000 HD
ENDBRANCH  24  27
ENDBRANCH   1  21
TORSDOF 4
ENDMDL
MODEL 7
REMARK VINA RESULT:      -7.9      2.618      7.350
REMARK  Name = Bisoxatin
REMARK  4 active torsions:
REMARK  status: ('A' for Active; 'I' for Inactive)
REMARK    1  A    between atoms: O_1  and  C_2
REMARK    2  A    between atoms: C_5  and  C_8
REMARK    3  A    between atoms: C_8  and  C_19
REMARK    4  A    between atoms: C_22  and  O_23
REMARK                            x       y       z     vdW  Elec       q    Type
REMARK                         _______ _______ _______ _____ _____    ______ ____
ROOT
ATOM      1  C   UNL     1      -7.086   3.968 126.620  0.00  0.00    +0.000 C 
ATOM      2  O   UNL     1      -6.218   4.953 127.113  0.00  0.00    +0.000 OA
ATOM      3  C   UNL     1      -5.001   4.445 127.442  0.00  0.00    +0.000 A 
ATOM      4  C   UNL     1      -4.039   5.433 127.768  0.00  0.00    +0.000 A 
ATOM      5  C   UNL     1      -2.691   5.135 127.685  0.00  0.00    +0.000 A 
ATOM      6  C   UNL     1      -2.338   3.870 127.220  0.00  0.00    +0.000 A 
ATOM      7  C   UNL     1      -3.331   2.852 126.997  0.00  0.00    +0.000 A 
ATOM      8  C   UNL     1      -4.715   3.091 127.199  0.00  0.00    +0.000 A 
ATOM      9  N   UNL     1      -5.892   2.098 126.893  0.00  0.00    +0.000 N 
ATOM     10  C   UNL     1      -7.469   2.677 126.600  0.00  0.00    +0.000 C 
ATOM     11  O   UNL     1      -8.693   2.508 126.292  0.00  0.00    +0.000 OA
ATOM     12  H   UNL     1      -5.673   1.193 126.514  0.00  0.00    +0.000 HD
ENDROOT
BRANCH   1  16
ATOM     13  C   UNL     1      -8.907   1.943 130.492  0.00  0.00    +0.000 A 
ATOM     14  C   UNL     1      -8.995   3.337 130.228  0.00  0.00    +0.000 A 
ATOM     15  C   UNL     1      -8.369   3.990 129.134  0.00  0.00    +0.000 A 
ATOM     16  C   UNL     1      -7.588   3.238 128.291  0.00  0.00    +0.000 A 
ATOM     17  C   UNL     1      -7.633   1.692 128.612  0.00  0.00    +0.000 A 
ATOM     18  C   UNL     1      -8.268   1.084 129.655  0.00  0.00    +0.000 A 
BRANCH  13  19
ATOM     19  O   UNL     1      -9.441   1.367 131.604  0.00  0.00    +0.000 OA
ATOM     20  H   UNL     1     -10.250   1.850 131.816  0.00  0.00    +0.000 HD
ENDBRANCH  13  19
ENDBRANCH   1  16
BRANCH   1  21
ATOM     21  C   UNL     1      -6.614   3.110 124.953  0.00  0.00    +0.000 A 
ATOM     22  C   UNL     1      -5.491   3.820 123.983  0.00  0.00    +0.000 A 
ATOM     23  C   UNL     1      -5.578   4.118 122.627  0.00  0.00    +0.000 A 
ATOM     24  C   UNL     1      -6.705   3.649 122.030  0.00  0.00    +0.000 A 
ATOM     25  C   UNL     1      -7.674   2.900 122.753  0.00  0.00    +0.000 A 
ATOM     26  C   UNL     1      -7.611   2.524 124.157  0.00  0.00    +0.000 A 
BRANCH  24  27
ATOM     27  O   UNL     1      -6.934   3.971 120.725  0.00  0.00    +0.000 OA
ATOM     28  H   UNL     1      -7.874   3.779 120.545  0.00  0.00    +0.000 HD
ENDBRANCH  24  27
ENDBRANCH   1  21
TORSDOF 4
ENDMDL
MODEL 8
REMARK VINA RESULT:      -7.9      2.586      3.745
REMARK  Name = Bisoxatin
REMARK  4 active torsions:
REMARK  status: ('A' for Active; 'I' for Inactive)
REMARK    1  A    between atoms: O_1  and  C_2
REMARK    2  A    between atoms: C_5  and  C_8
REMARK    3  A    between atoms: C_8  and  C_19
REMARK    4  A    between atoms: C_22  and  O_23
REMARK                            x       y       z     vdW  Elec       q    Type
REMARK                         _______ _______ _______ _____ _____    ______ ____
ROOT
ATOM      1  C   UNL     1      -7.982   0.096 127.087  0.00  0.00    +0.000 C 
ATOM      2  O   UNL     1      -8.871  -0.573 126.234  0.00  0.00    +0.000 OA
ATOM      3  C   UNL     1      -8.225  -1.398 125.368  0.00  0.00    +0.000 A 
ATOM      4  C   UNL     1      -9.093  -2.229 124.616  0.00  0.00    +0.000 A 
ATOM      5  C   UNL     1      -8.609  -3.392 124.047  0.00  0.00    +0.000 A 
ATOM      6  C   UNL     1      -7.279  -3.727 124.295  0.00  0.00    +0.000 A 
ATOM      7  C   UNL     1      -6.393  -2.816 124.970  0.00  0.00    +0.000 A 
ATOM      8  C   UNL     1      -6.831  -1.555 125.452  0.00  0.00    +0.000 A 
ATOM      9  N   UNL     1      -5.989  -0.527 126.288  0.00  0.00    +0.000 N 
ATOM     10  C   UNL     1      -6.757   0.615 127.296  0.00  0.00    +0.000 C 
ATOM     11  O   UNL     1      -6.735   1.558 128.151  0.00  0.00    +0.000 OA
ATOM     12  H   UNL     1      -5.039  -0.759 126.522  0.00  0.00    +0.000 HD
ENDROOT
BRANCH   1  16
ATOM     13  C   UNL     1      -6.565   3.841 124.562  0.00  0.00    +0.000 A 
ATOM     14  C   UNL     1      -7.932   3.483 124.723  0.00  0.00    +0.000 A 
ATOM     15  C   UNL     1      -8.383   2.310 125.383  0.00  0.00    +0.000 A 
ATOM     16  C   UNL     1      -7.441   1.433 125.863  0.00  0.00    +0.000 A 
ATOM     17  C   UNL     1      -5.962   1.966 125.720  0.00  0.00    +0.000 A 
ATOM     18  C   UNL     1      -5.555   3.115 125.107  0.00  0.00    +0.000 A 
BRANCH  13  19
ATOM     19  O   UNL     1      -6.166   4.925 123.841  0.00  0.00    +0.000 OA
ATOM     20  H   UNL     1      -6.435   5.711 124.333  0.00  0.00    +0.000 HD
ENDBRANCH  13  19
ENDBRANCH   1  16
BRANCH   1  21
ATOM     21  C   UNL     1      -6.957  -0.971 128.332  0.00  0.00    +0.000 A 
ATOM     22  C   UNL     1      -7.347  -2.557 128.528  0.00  0.00    +0.000 A 
ATOM     23  C   UNL     1      -7.588  -3.253 129.708  0.00  0.00    +0.000 A 
ATOM     24  C   UNL     1      -7.355  -2.528 130.834  0.00  0.00    +0.000 A 
ATOM     25  C   UNL     1      -6.881  -1.188 130.772  0.00  0.00    +0.000 A 
ATOM     26  C   UNL     1      -6.571  -0.431 129.569  0.00  0.00    +0.000 A 
BRANCH  24  27
ATOM     27  O   UNL     1      -7.654  -3.085 132.042  0.00  0.00    +0.000 OA
ATOM     28  H   UNL     1      -8.622  -3.024 132.152  0.00  0.00    +0.000 HD
ENDBRANCH  24  27
ENDBRANCH   1  21
TORSDOF 4
ENDMDL
MODEL 9
REMARK VINA RESULT:      -7.8      3.060      5.651
REMARK  Name = Bisoxatin
REMARK  4 active torsions:
REMARK  status: ('A' for Active; 'I' for Inactive)
REMARK    1  A    between atoms: O_1  and  C_2
REMARK    2  A    between atoms: C_5  and  C_8
REMARK    3  A    between atoms: C_8  and  C_19
REMARK    4  A    between atoms: C_22  and  O_23
REMARK                            x       y       z     vdW  Elec       q    Type
REMARK                         _______ _______ _______ _____ _____    ______ ____
ROOT
ATOM      1  C   UNL     1      -5.851   2.052 125.609  0.00  0.00    +0.000 C 
ATOM      2  O   UNL     1      -5.417   0.805 126.079  0.00  0.00    +0.000 OA
ATOM      3  C   UNL     1      -5.941   0.508 127.298  0.00  0.00    +0.000 A 
ATOM      4  C   UNL     1      -5.677  -0.818 127.726  0.00  0.00    +0.000 A 
ATOM      5  C   UNL     1      -6.481  -1.404 128.685  0.00  0.00    +0.000 A 
ATOM      6  C   UNL     1      -7.569  -0.668 129.152  0.00  0.00    +0.000 A 
ATOM      7  C   UNL     1      -7.752   0.711 128.783  0.00  0.00    +0.000 A 
ATOM      8  C   UNL     1      -6.866   1.379 127.898  0.00  0.00    +0.000 A 
ATOM      9  N   UNL     1      -7.020   2.840 127.344  0.00  0.00    +0.000 N 
ATOM     10  C   UNL     1      -6.276   3.301 125.880  0.00  0.00    +0.000 C 
ATOM     11  O   UNL     1      -6.039   4.139 124.951  0.00  0.00    +0.000 OA
ATOM     12  H   UNL     1      -7.819   3.381 127.626  0.00  0.00    +0.000 HD
ENDROOT
BRANCH   1  16
ATOM     13  C   UNL     1      -2.831   5.097 127.613  0.00  0.00    +0.000 A 
ATOM     14  C   UNL     1      -2.425   3.859 127.045  0.00  0.00    +0.000 A 
ATOM     15  C   UNL     1      -3.316   2.878 126.534  0.00  0.00    +0.000 A 
ATOM     16  C   UNL     1      -4.665   3.115 126.629  0.00  0.00    +0.000 A 
ATOM     17  C   UNL     1      -5.009   4.554 127.183  0.00  0.00    +0.000 A 
ATOM     18  C   UNL     1      -4.131   5.492 127.641  0.00  0.00    +0.000 A 
BRANCH  13  19
ATOM     19  O   UNL     1      -1.955   5.972 128.180  0.00  0.00    +0.000 OA
ATOM     20  H   UNL     1      -1.579   5.537 128.956  0.00  0.00    +0.000 HD
ENDBRANCH  13  19
ENDBRANCH   1  16
BRANCH   1  21
ATOM     21  C   UNL     1      -7.736   2.262 125.231  0.00  0.00    +0.000 A 
ATOM     22  C   UNL     1      -8.751   1.002 125.524  0.00  0.00    +0.000 A 
ATOM     23  C   UNL     1      -9.687   0.424 124.672  0.00  0.00    +0.000 A 
ATOM     24  C   UNL     1      -9.837   1.079 123.490  0.00  0.00    +0.000 A 
ATOM     25  C   UNL     1      -9.104   2.262 123.197  0.00  0.00    +0.000 A 
ATOM     26  C   UNL     1      -8.149   2.931 124.068  0.00  0.00    +0.000 A 
BRANCH  24  27
ATOM     27  O   UNL     1     -10.658   0.540 122.545  0.00  0.00    +0.000 OA
ATOM     28  H   UNL     1     -10.106   0.354 121.761  0.00  0.00    +0.000 HD
ENDBRANCH  24  27
ENDBRANCH   1  21
TORSDOF 4
ENDMDL
