MODEL 1
REMARK VINA RESULT:     -11.7      0.000      0.000
REMARK  Name = Bisoctrizole
REMARK  22 active torsions:
REMARK  status: ('A' for Active; 'I' for Inactive)
REMARK    1  A    between atoms: C_1  and  C_2
REMARK    2  A    between atoms: C_2  and  C_3
REMARK    3  A    between atoms: C_2  and  C_4
REMARK    4  A    between atoms: C_2  and  C_5
REMARK    5  A    between atoms: C_5  and  C_6
REMARK    6  A    between atoms: C_6  and  C_7
REMARK    7  A    between atoms: C_6  and  C_8
REMARK    8  A    between atoms: C_6  and  C_9
REMARK    9  A    between atoms: C_11  and  C_12
REMARK   10  A    between atoms: C_12  and  C_13
REMARK   11  A    between atoms: C_14  and  O_15
REMARK   12  A    between atoms: C_16  and  N_28
REMARK   13  A    between atoms: C_18  and  C_20
REMARK   14  A    between atoms: C_20  and  C_21
REMARK   15  A    between atoms: C_20  and  C_22
REMARK   16  A    between atoms: C_20  and  C_23
REMARK   17  A    between atoms: C_23  and  C_24
REMARK   18  A    between atoms: C_24  and  C_25
REMARK   19  A    between atoms: C_24  and  C_26
REMARK   20  A    between atoms: C_24  and  C_27
REMARK   21  A    between atoms: C_37  and  O_38
REMARK   22  A    between atoms: C_39  and  N_41
REMARK                            x       y       z     vdW  Elec       q    Type
REMARK                         _______ _______ _______ _____ _____    ______ ____
ROOT
ATOM      1  C   UNL     1      -5.697   3.235 127.539  0.00  0.00    +0.000 C 
ENDROOT
BRANCH   1   4
ATOM      2  C   UNL     1      -6.645   0.310 125.305  0.00  0.00    +0.000 A 
ATOM      3  C   UNL     1      -6.203   1.115 126.373  0.00  0.00    +0.000 A 
ATOM      4  C   UNL     1      -6.024   2.496 126.241  0.00  0.00    +0.000 A 
ATOM      5  C   UNL     1      -6.235   3.049 124.962  0.00  0.00    +0.000 A 
ATOM      6  C   UNL     1      -6.738   2.282 123.915  0.00  0.00    +0.000 A 
ATOM      7  C   UNL     1      -6.966   0.926 124.085  0.00  0.00    +0.000 A 
BRANCH   6   8
ATOM      8  N   UNL     1      -7.044   2.898 122.685  0.00  0.00    +0.000 N 
ATOM      9  N   UNL     1      -6.080   3.474 121.930  0.00  0.00    +0.000 NA
ATOM     10  C   UNL     1      -6.756   3.819 120.817  0.00  0.00    +0.000 A 
ATOM     11  C   UNL     1      -6.280   4.379 119.624  0.00  0.00    +0.000 A 
ATOM     12  C   UNL     1      -7.288   4.719 118.696  0.00  0.00    +0.000 A 
ATOM     13  C   UNL     1      -8.672   4.495 118.933  0.00  0.00    +0.000 A 
ATOM     14  C   UNL     1      -9.167   3.895 120.103  0.00  0.00    +0.000 A 
ATOM     15  C   UNL     1      -8.176   3.556 121.049  0.00  0.00    +0.000 A 
ATOM     16  N   UNL     1      -8.323   3.000 122.245  0.00  0.00    +0.000 NA
ENDBRANCH   6   8
BRANCH   2  17
ATOM     17  C   UNL     1      -6.756  -1.219 125.427  0.00  0.00    +0.000 C 
ATOM     18  C   UNL     1      -7.070  -1.608 126.886  0.00  0.00    +0.000 C 
ATOM     19  C   UNL     1      -5.359  -1.787 125.093  0.00  0.00    +0.000 C 
BRANCH  17  20
ATOM     20  C   UNL     1      -7.877  -1.685 124.429  0.00  0.00    +0.000 C 
BRANCH  20  22
ATOM     21  C   UNL     1      -9.582  -3.287 123.475  0.00  0.00    +0.000 C 
ATOM     22  C   UNL     1      -8.636  -3.026 124.665  0.00  0.00    +0.000 C 
ATOM     23  C   UNL     1      -9.524  -2.986 125.914  0.00  0.00    +0.000 C 
ATOM     24  C   UNL     1      -7.687  -4.230 124.731  0.00  0.00    +0.000 C 
ENDBRANCH  20  22
ENDBRANCH  17  20
ENDBRANCH   2  17
BRANCH   5  25
ATOM     25  O   UNL     1      -6.095   4.366 124.660  0.00  0.00    +0.000 OA
ATOM     26  H   UNL     1      -5.519   4.800 125.301  0.00  0.00    +0.000 HD
ENDBRANCH   5  25
ENDBRANCH   1   4
BRANCH   1  27
ATOM     27  C   UNL     1      -6.821   3.234 128.544  0.00  0.00    +0.000 A 
ATOM     28  C   UNL     1      -7.976   4.029 128.371  0.00  0.00    +0.000 A 
ATOM     29  C   UNL     1      -8.691   4.439 129.497  0.00  0.00    +0.000 A 
ATOM     30  C   UNL     1      -8.325   3.967 130.754  0.00  0.00    +0.000 A 
ATOM     31  C   UNL     1      -7.276   3.033 130.921  0.00  0.00    +0.000 A 
ATOM     32  C   UNL     1      -6.521   2.688 129.802  0.00  0.00    +0.000 A 
BRANCH  29  33
ATOM     33  N   UNL     1      -9.694   5.427 129.397  0.00  0.00    +0.000 N 
ATOM     34  N   UNL     1     -11.001   5.194 129.718  0.00  0.00    +0.000 NA
ATOM     35  C   UNL     1     -11.573   6.395 129.499  0.00  0.00    +0.000 A 
ATOM     36  C   UNL     1     -12.884   6.853 129.745  0.00  0.00    +0.000 A 
ATOM     37  C   UNL     1     -13.145   8.166 129.283  0.00  0.00    +0.000 A 
ATOM     38  C   UNL     1     -12.175   8.968 128.624  0.00  0.00    +0.000 A 
ATOM     39  C   UNL     1     -10.858   8.545 128.400  0.00  0.00    +0.000 A 
ATOM     40  C   UNL     1     -10.572   7.250 128.863  0.00  0.00    +0.000 A 
ATOM     41  N   UNL     1      -9.413   6.604 128.806  0.00  0.00    +0.000 NA
ENDBRANCH  29  33
BRANCH  31  42
ATOM     42  C   UNL     1      -7.024   2.441 132.320  0.00  0.00    +0.000 C 
ATOM     43  C   UNL     1      -5.734   3.096 132.856  0.00  0.00    +0.000 C 
ATOM     44  C   UNL     1      -8.249   2.899 133.136  0.00  0.00    +0.000 C 
BRANCH  42  45
ATOM     45  C   UNL     1      -6.898   0.865 132.310  0.00  0.00    +0.000 C 
BRANCH  45  46
ATOM     46  C   UNL     1      -8.051  -0.035 131.759  0.00  0.00    +0.000 C 
ATOM     47  C   UNL     1      -9.431   0.613 131.919  0.00  0.00    +0.000 C 
ATOM     48  C   UNL     1      -7.825  -0.449 130.300  0.00  0.00    +0.000 C 
ATOM     49  C   UNL     1      -8.097  -1.348 132.572  0.00  0.00    +0.000 C 
ENDBRANCH  45  46
ENDBRANCH  42  45
ENDBRANCH  31  42
BRANCH  28  50
ATOM     50  O   UNL     1      -8.248   4.632 127.173  0.00  0.00    +0.000 OA
ATOM     51  H   UNL     1      -7.892   4.114 126.437  0.00  0.00    +0.000 HD
ENDBRANCH  28  50
ENDBRANCH   1  27
TORSDOF 12
ENDMDL
MODEL 2
REMARK VINA RESULT:     -11.2      1.087      2.313
REMARK  Name = Bisoctrizole
REMARK  22 active torsions:
REMARK  status: ('A' for Active; 'I' for Inactive)
REMARK    1  A    between atoms: C_1  and  C_2
REMARK    2  A    between atoms: C_2  and  C_3
REMARK    3  A    between atoms: C_2  and  C_4
REMARK    4  A    between atoms: C_2  and  C_5
REMARK    5  A    between atoms: C_5  and  C_6
REMARK    6  A    between atoms: C_6  and  C_7
REMARK    7  A    between atoms: C_6  and  C_8
REMARK    8  A    between atoms: C_6  and  C_9
REMARK    9  A    between atoms: C_11  and  C_12
REMARK   10  A    between atoms: C_12  and  C_13
REMARK   11  A    between atoms: C_14  and  O_15
REMARK   12  A    between atoms: C_16  and  N_28
REMARK   13  A    between atoms: C_18  and  C_20
REMARK   14  A    between atoms: C_20  and  C_21
REMARK   15  A    between atoms: C_20  and  C_22
REMARK   16  A    between atoms: C_20  and  C_23
REMARK   17  A    between atoms: C_23  and  C_24
REMARK   18  A    between atoms: C_24  and  C_25
REMARK   19  A    between atoms: C_24  and  C_26
REMARK   20  A    between atoms: C_24  and  C_27
REMARK   21  A    between atoms: C_37  and  O_38
REMARK   22  A    between atoms: C_39  and  N_41
REMARK                            x       y       z     vdW  Elec       q    Type
REMARK                         _______ _______ _______ _____ _____    ______ ____
ROOT
ATOM      1  C   UNL     1      -5.749   3.434 127.829  0.00  0.00    +0.000 C 
ENDROOT
BRANCH   1   4
ATOM      2  C   UNL     1      -6.559   0.423 125.656  0.00  0.00    +0.000 A 
ATOM      3  C   UNL     1      -6.165   1.270 126.711  0.00  0.00    +0.000 A 
ATOM      4  C   UNL     1      -6.025   2.652 126.545  0.00  0.00    +0.000 A 
ATOM      5  C   UNL     1      -6.225   3.163 125.248  0.00  0.00    +0.000 A 
ATOM      6  C   UNL     1      -6.682   2.354 124.212  0.00  0.00    +0.000 A 
ATOM      7  C   UNL     1      -6.873   0.996 124.413  0.00  0.00    +0.000 A 
BRANCH   6   8
ATOM      8  N   UNL     1      -6.980   2.927 122.959  0.00  0.00    +0.000 N 
ATOM      9  N   UNL     1      -6.012   3.481 122.193  0.00  0.00    +0.000 NA
ATOM     10  C   UNL     1      -6.680   3.786 121.063  0.00  0.00    +0.000 A 
ATOM     11  C   UNL     1      -6.196   4.308 119.856  0.00  0.00    +0.000 A 
ATOM     12  C   UNL     1      -7.198   4.613 118.909  0.00  0.00    +0.000 A 
ATOM     13  C   UNL     1      -8.583   4.392 119.143  0.00  0.00    +0.000 A 
ATOM     14  C   UNL     1      -9.086   3.830 120.328  0.00  0.00    +0.000 A 
ATOM     15  C   UNL     1      -8.101   3.526 121.292  0.00  0.00    +0.000 A 
ATOM     16  N   UNL     1      -8.256   3.011 122.505  0.00  0.00    +0.000 NA
ENDBRANCH   6   8
BRANCH   2  17
ATOM     17  C   UNL     1      -6.627  -1.105 125.817  0.00  0.00    +0.000 C 
ATOM     18  C   UNL     1      -8.011  -1.619 125.375  0.00  0.00    +0.000 C 
ATOM     19  C   UNL     1      -6.495  -1.391 127.329  0.00  0.00    +0.000 C 
BRANCH  17  20
ATOM     20  C   UNL     1      -5.459  -1.715 124.959  0.00  0.00    +0.000 C 
BRANCH  20  22
ATOM     21  C   UNL     1      -6.217  -2.138 122.586  0.00  0.00    +0.000 C 
ATOM     22  C   UNL     1      -5.755  -2.813 123.894  0.00  0.00    +0.000 C 
ATOM     23  C   UNL     1      -6.895  -3.749 124.315  0.00  0.00    +0.000 C 
ATOM     24  C   UNL     1      -4.507  -3.631 123.536  0.00  0.00    +0.000 C 
ENDBRANCH  20  22
ENDBRANCH  17  20
ENDBRANCH   2  17
BRANCH   5  25
ATOM     25  O   UNL     1      -6.119   4.476 124.913  0.00  0.00    +0.000 OA
ATOM     26  H   UNL     1      -5.738   4.570 124.031  0.00  0.00    +0.000 HD
ENDBRANCH   5  25
ENDBRANCH   1   4
BRANCH   1  27
ATOM     27  C   UNL     1      -6.901   3.443 128.801  0.00  0.00    +0.000 A 
ATOM     28  C   UNL     1      -8.067   4.204 128.565  0.00  0.00    +0.000 A 
ATOM     29  C   UNL     1      -8.825   4.638 129.655  0.00  0.00    +0.000 A 
ATOM     30  C   UNL     1      -8.485   4.221 130.939  0.00  0.00    +0.000 A 
ATOM     31  C   UNL     1      -7.422   3.318 131.170  0.00  0.00    +0.000 A 
ATOM     32  C   UNL     1      -6.626   2.951 130.086  0.00  0.00    +0.000 A 
BRANCH  29  33
ATOM     33  N   UNL     1      -9.845   5.599 129.490  0.00  0.00    +0.000 N 
ATOM     34  N   UNL     1     -11.169   5.314 129.668  0.00  0.00    +0.000 NA
ATOM     35  C   UNL     1     -11.757   6.505 129.436  0.00  0.00    +0.000 A 
ATOM     36  C   UNL     1     -13.101   6.913 129.564  0.00  0.00    +0.000 A 
ATOM     37  C   UNL     1     -13.359   8.234 129.126  0.00  0.00    +0.000 A 
ATOM     38  C   UNL     1     -12.356   9.091 128.600  0.00  0.00    +0.000 A 
ATOM     39  C   UNL     1     -11.009   8.717 128.494  0.00  0.00    +0.000 A 
ATOM     40  C   UNL     1     -10.727   7.415 128.937  0.00  0.00    +0.000 A 
ATOM     41  N   UNL     1      -9.547   6.807 128.974  0.00  0.00    +0.000 NA
ENDBRANCH  29  33
BRANCH  31  42
ATOM     42  C   UNL     1      -7.197   2.783 132.596  0.00  0.00    +0.000 C 
ATOM     43  C   UNL     1      -7.801   1.365 132.640  0.00  0.00    +0.000 C 
ATOM     44  C   UNL     1      -5.662   2.728 132.727  0.00  0.00    +0.000 C 
BRANCH  42  45
ATOM     45  C   UNL     1      -7.835   3.706 133.710  0.00  0.00    +0.000 C 
BRANCH  45  46
ATOM     46  C   UNL     1      -6.954   4.690 134.548  0.00  0.00    +0.000 C 
ATOM     47  C   UNL     1      -7.790   5.608 135.446  0.00  0.00    +0.000 C 
ATOM     48  C   UNL     1      -5.889   3.962 135.377  0.00  0.00    +0.000 C 
ATOM     49  C   UNL     1      -6.183   5.619 133.584  0.00  0.00    +0.000 C 
ENDBRANCH  45  46
ENDBRANCH  42  45
ENDBRANCH  31  42
BRANCH  28  50
ATOM     50  O   UNL     1      -8.318   4.757 127.339  0.00  0.00    +0.000 OA
ATOM     51  H   UNL     1      -9.140   4.410 126.965  0.00  0.00    +0.000 HD
ENDBRANCH  28  50
ENDBRANCH   1  27
TORSDOF 12
ENDMDL
MODEL 3
REMARK VINA RESULT:     -11.1      3.103      8.290
REMARK  Name = Bisoctrizole
REMARK  22 active torsions:
REMARK  status: ('A' for Active; 'I' for Inactive)
REMARK    1  A    between atoms: C_1  and  C_2
REMARK    2  A    between atoms: C_2  and  C_3
REMARK    3  A    between atoms: C_2  and  C_4
REMARK    4  A    between atoms: C_2  and  C_5
REMARK    5  A    between atoms: C_5  and  C_6
REMARK    6  A    between atoms: C_6  and  C_7
REMARK    7  A    between atoms: C_6  and  C_8
REMARK    8  A    between atoms: C_6  and  C_9
REMARK    9  A    between atoms: C_11  and  C_12
REMARK   10  A    between atoms: C_12  and  C_13
REMARK   11  A    between atoms: C_14  and  O_15
REMARK   12  A    between atoms: C_16  and  N_28
REMARK   13  A    between atoms: C_18  and  C_20
REMARK   14  A    between atoms: C_20  and  C_21
REMARK   15  A    between atoms: C_20  and  C_22
REMARK   16  A    between atoms: C_20  and  C_23
REMARK   17  A    between atoms: C_23  and  C_24
REMARK   18  A    between atoms: C_24  and  C_25
REMARK   19  A    between atoms: C_24  and  C_26
REMARK   20  A    between atoms: C_24  and  C_27
REMARK   21  A    between atoms: C_37  and  O_38
REMARK   22  A    between atoms: C_39  and  N_41
REMARK                            x       y       z     vdW  Elec       q    Type
REMARK                         _______ _______ _______ _____ _____    ______ ____
ROOT
ATOM      1  C   UNL     1      -8.987   1.517 127.677  0.00  0.00    +0.000 C 
ENDROOT
BRANCH   1   4
ATOM      2  C   UNL     1      -6.814   0.313 130.553  0.00  0.00    +0.000 A 
ATOM      3  C   UNL     1      -7.795   0.430 129.549  0.00  0.00    +0.000 A 
ATOM      4  C   UNL     1      -7.995   1.616 128.835  0.00  0.00    +0.000 A 
ATOM      5  C   UNL     1      -7.215   2.727 129.213  0.00  0.00    +0.000 A 
ATOM      6  C   UNL     1      -6.195   2.612 130.152  0.00  0.00    +0.000 A 
ATOM      7  C   UNL     1      -5.974   1.410 130.805  0.00  0.00    +0.000 A 
BRANCH   6   8
ATOM      8  N   UNL     1      -5.363   3.719 130.417  0.00  0.00    +0.000 N 
ATOM      9  N   UNL     1      -5.727   4.673 131.304  0.00  0.00    +0.000 NA
ATOM     10  C   UNL     1      -4.630   5.454 131.351  0.00  0.00    +0.000 A 
ATOM     11  C   UNL     1      -4.363   6.565 132.162  0.00  0.00    +0.000 A 
ATOM     12  C   UNL     1      -3.148   7.221 131.870  0.00  0.00    +0.000 A 
ATOM     13  C   UNL     1      -2.253   6.787 130.854  0.00  0.00    +0.000 A 
ATOM     14  C   UNL     1      -2.481   5.651 130.059  0.00  0.00    +0.000 A 
ATOM     15  C   UNL     1      -3.695   4.985 130.329  0.00  0.00    +0.000 A 
ATOM     16  N   UNL     1      -4.201   3.907 129.743  0.00  0.00    +0.000 NA
ENDBRANCH   6   8
BRANCH   2  17
ATOM     17  C   UNL     1      -6.656  -0.964 131.397  0.00  0.00    +0.000 C 
ATOM     18  C   UNL     1      -7.075  -0.685 132.854  0.00  0.00    +0.000 C 
ATOM     19  C   UNL     1      -5.148  -1.295 131.410  0.00  0.00    +0.000 C 
BRANCH  17  20
ATOM     20  C   UNL     1      -7.537  -2.077 130.722  0.00  0.00    +0.000 C 
BRANCH  20  22
ATOM     21  C   UNL     1      -8.051  -3.626 128.792  0.00  0.00    +0.000 C 
ATOM     22  C   UNL     1      -6.919  -3.035 129.659  0.00  0.00    +0.000 C 
ATOM     23  C   UNL     1      -6.201  -4.232 130.293  0.00  0.00    +0.000 C 
ATOM     24  C   UNL     1      -5.977  -2.305 128.693  0.00  0.00    +0.000 C 
ENDBRANCH  20  22
ENDBRANCH  17  20
ENDBRANCH   2  17
BRANCH   5  25
ATOM     25  O   UNL     1      -7.290   3.953 128.631  0.00  0.00    +0.000 OA
ATOM     26  H   UNL     1      -6.494   4.131 128.115  0.00  0.00    +0.000 HD
ENDBRANCH   5  25
ENDBRANCH   1   4
BRANCH   1  27
ATOM     27  C   UNL     1      -8.396   0.949 126.411  0.00  0.00    +0.000 A 
ATOM     28  C   UNL     1      -8.020   1.775 125.329  0.00  0.00    +0.000 A 
ATOM     29  C   UNL     1      -8.020   1.243 124.038  0.00  0.00    +0.000 A 
ATOM     30  C   UNL     1      -8.277  -0.112 123.853  0.00  0.00    +0.000 A 
ATOM     31  C   UNL     1      -8.485  -0.986 124.945  0.00  0.00    +0.000 A 
ATOM     32  C   UNL     1      -8.558  -0.433 126.223  0.00  0.00    +0.000 A 
BRANCH  29  33
ATOM     33  N   UNL     1      -7.897   2.082 122.910  0.00  0.00    +0.000 N 
ATOM     34  N   UNL     1      -8.949   2.388 122.094  0.00  0.00    +0.000 NA
ATOM     35  C   UNL     1      -8.384   3.213 121.189  0.00  0.00    +0.000 A 
ATOM     36  C   UNL     1      -8.956   3.965 120.141  0.00  0.00    +0.000 A 
ATOM     37  C   UNL     1      -8.018   4.647 119.328  0.00  0.00    +0.000 A 
ATOM     38  C   UNL     1      -6.615   4.589 119.539  0.00  0.00    +0.000 A 
ATOM     39  C   UNL     1      -6.029   3.875 120.594  0.00  0.00    +0.000 A 
ATOM     40  C   UNL     1      -6.941   3.202 121.423  0.00  0.00    +0.000 A 
ATOM     41  N   UNL     1      -6.675   2.474 122.500  0.00  0.00    +0.000 NA
ENDBRANCH  29  33
BRANCH  31  42
ATOM     42  C   UNL     1      -8.614  -2.496 124.676  0.00  0.00    +0.000 C 
ATOM     43  C   UNL     1      -9.645  -3.043 125.685  0.00  0.00    +0.000 C 
ATOM     44  C   UNL     1      -9.169  -2.563 123.239  0.00  0.00    +0.000 C 
BRANCH  42  45
ATOM     45  C   UNL     1      -7.238  -3.266 124.797  0.00  0.00    +0.000 C 
BRANCH  45  46
ATOM     46  C   UNL     1      -5.932  -2.691 124.158  0.00  0.00    +0.000 C 
ATOM     47  C   UNL     1      -6.144  -2.208 122.719  0.00  0.00    +0.000 C 
ATOM     48  C   UNL     1      -5.306  -1.577 125.005  0.00  0.00    +0.000 C 
ATOM     49  C   UNL     1      -4.874  -3.815 124.081  0.00  0.00    +0.000 C 
ENDBRANCH  45  46
ENDBRANCH  42  45
ENDBRANCH  31  42
BRANCH  28  50
ATOM     50  O   UNL     1      -7.930   3.133 125.471  0.00  0.00    +0.000 OA
ATOM     51  H   UNL     1      -7.887   3.569 124.608  0.00  0.00    +0.000 HD
ENDBRANCH  28  50
ENDBRANCH   1  27
TORSDOF 12
ENDMDL
MODEL 4
REMARK VINA RESULT:     -10.8      2.654      4.570
REMARK  Name = Bisoctrizole
REMARK  22 active torsions:
REMARK  status: ('A' for Active; 'I' for Inactive)
REMARK    1  A    between atoms: C_1  and  C_2
REMARK    2  A    between atoms: C_2  and  C_3
REMARK    3  A    between atoms: C_2  and  C_4
REMARK    4  A    between atoms: C_2  and  C_5
REMARK    5  A    between atoms: C_5  and  C_6
REMARK    6  A    between atoms: C_6  and  C_7
REMARK    7  A    between atoms: C_6  and  C_8
REMARK    8  A    between atoms: C_6  and  C_9
REMARK    9  A    between atoms: C_11  and  C_12
REMARK   10  A    between atoms: C_12  and  C_13
REMARK   11  A    between atoms: C_14  and  O_15
REMARK   12  A    between atoms: C_16  and  N_28
REMARK   13  A    between atoms: C_18  and  C_20
REMARK   14  A    between atoms: C_20  and  C_21
REMARK   15  A    between atoms: C_20  and  C_22
REMARK   16  A    between atoms: C_20  and  C_23
REMARK   17  A    between atoms: C_23  and  C_24
REMARK   18  A    between atoms: C_24  and  C_25
REMARK   19  A    between atoms: C_24  and  C_26
REMARK   20  A    between atoms: C_24  and  C_27
REMARK   21  A    between atoms: C_37  and  O_38
REMARK   22  A    between atoms: C_39  and  N_41
REMARK                            x       y       z     vdW  Elec       q    Type
REMARK                         _______ _______ _______ _____ _____    ______ ____
ROOT
ATOM      1  C   UNL     1      -9.193   1.593 131.558  0.00  0.00    +0.000 C 
ENDROOT
BRANCH   1   4
ATOM      2  C   UNL     1      -7.473  -1.026 129.407  0.00  0.00    +0.000 A 
ATOM      3  C   UNL     1      -7.997  -0.285 130.484  0.00  0.00    +0.000 A 
ATOM      4  C   UNL     1      -8.523   1.001 130.318  0.00  0.00    +0.000 A 
ATOM      5  C   UNL     1      -8.441   1.563 129.028  0.00  0.00    +0.000 A 
ATOM      6  C   UNL     1      -7.992   0.820 127.940  0.00  0.00    +0.000 A 
ATOM      7  C   UNL     1      -7.532  -0.475 128.117  0.00  0.00    +0.000 A 
BRANCH   6   8
ATOM      8  N   UNL     1      -8.035   1.380 126.648  0.00  0.00    +0.000 N 
ATOM      9  N   UNL     1      -6.984   2.067 126.146  0.00  0.00    +0.000 NA
ATOM     10  C   UNL     1      -7.379   2.313 124.881  0.00  0.00    +0.000 A 
ATOM     11  C   UNL     1      -6.676   2.919 123.831  0.00  0.00    +0.000 A 
ATOM     12  C   UNL     1      -7.438   3.118 122.659  0.00  0.00    +0.000 A 
ATOM     13  C   UNL     1      -8.798   2.722 122.537  0.00  0.00    +0.000 A 
ATOM     14  C   UNL     1      -9.507   2.074 123.562  0.00  0.00    +0.000 A 
ATOM     15  C   UNL     1      -8.767   1.873 124.747  0.00  0.00    +0.000 A 
ATOM     16  N   UNL     1      -9.156   1.315 125.886  0.00  0.00    +0.000 NA
ENDBRANCH   6   8
BRANCH   2  17
ATOM     17  C   UNL     1      -6.816  -2.403 129.607  0.00  0.00    +0.000 C 
ATOM     18  C   UNL     1      -5.478  -2.461 128.844  0.00  0.00    +0.000 C 
ATOM     19  C   UNL     1      -7.759  -3.437 128.956  0.00  0.00    +0.000 C 
BRANCH  17  20
ATOM     20  C   UNL     1      -6.632  -2.608 131.155  0.00  0.00    +0.000 C 
BRANCH  20  22
ATOM     21  C   UNL     1      -6.089  -4.136 133.093  0.00  0.00    +0.000 C 
ATOM     22  C   UNL     1      -5.630  -3.673 131.694  0.00  0.00    +0.000 C 
ATOM     23  C   UNL     1      -4.215  -3.111 131.876  0.00  0.00    +0.000 C 
ATOM     24  C   UNL     1      -5.588  -4.933 130.819  0.00  0.00    +0.000 C 
ENDBRANCH  20  22
ENDBRANCH  17  20
ENDBRANCH   2  17
BRANCH   5  25
ATOM     25  O   UNL     1      -8.894   2.801 128.698  0.00  0.00    +0.000 OA
ATOM     26  H   UNL     1      -8.191   3.454 128.794  0.00  0.00    +0.000 HD
ENDBRANCH   5  25
ENDBRANCH   1   4
BRANCH   1  27
ATOM     27  C   UNL     1      -9.054   3.090 131.673  0.00  0.00    +0.000 A 
ATOM     28  C   UNL     1     -10.067   3.968 131.229  0.00  0.00    +0.000 A 
ATOM     29  C   UNL     1      -9.717   5.260 130.831  0.00  0.00    +0.000 A 
ATOM     30  C   UNL     1      -8.404   5.695 130.984  0.00  0.00    +0.000 A 
ATOM     31  C   UNL     1      -7.417   4.882 131.589  0.00  0.00    +0.000 A 
ATOM     32  C   UNL     1      -7.757   3.570 131.914  0.00  0.00    +0.000 A 
BRANCH  29  33
ATOM     33  N   UNL     1     -10.641   6.083 130.152  0.00  0.00    +0.000 N 
ATOM     34  N   UNL     1     -11.045   5.844 128.869  0.00  0.00    +0.000 NA
ATOM     35  C   UNL     1     -11.924   6.843 128.650  0.00  0.00    +0.000 A 
ATOM     36  C   UNL     1     -12.776   7.101 127.556  0.00  0.00    +0.000 A 
ATOM     37  C   UNL     1     -13.493   8.319 127.644  0.00  0.00    +0.000 A 
ATOM     38  C   UNL     1     -13.376   9.216 128.739  0.00  0.00    +0.000 A 
ATOM     39  C   UNL     1     -12.560   8.963 129.850  0.00  0.00    +0.000 A 
ATOM     40  C   UNL     1     -11.850   7.753 129.792  0.00  0.00    +0.000 A 
ATOM     41  N   UNL     1     -11.028   7.248 130.704  0.00  0.00    +0.000 NA
ENDBRANCH  29  33
BRANCH  31  42
ATOM     42  C   UNL     1      -6.026   5.482 131.863  0.00  0.00    +0.000 C 
ATOM     43  C   UNL     1      -5.948   6.806 131.077  0.00  0.00    +0.000 C 
ATOM     44  C   UNL     1      -6.037   5.748 133.382  0.00  0.00    +0.000 C 
BRANCH  42  45
ATOM     45  C   UNL     1      -4.844   4.512 131.459  0.00  0.00    +0.000 C 
BRANCH  45  46
ATOM     46  C   UNL     1      -4.731   3.934 130.011  0.00  0.00    +0.000 C 
ATOM     47  C   UNL     1      -4.939   2.415 129.966  0.00  0.00    +0.000 C 
ATOM     48  C   UNL     1      -5.680   4.628 129.027  0.00  0.00    +0.000 C 
ATOM     49  C   UNL     1      -3.304   4.187 129.478  0.00  0.00    +0.000 C 
ENDBRANCH  45  46
ENDBRANCH  42  45
ENDBRANCH  31  42
BRANCH  28  50
ATOM     50  O   UNL     1     -11.317   3.508 130.916  0.00  0.00    +0.000 OA
ATOM     51  H   UNL     1     -11.808   3.272 131.716  0.00  0.00    +0.000 HD
ENDBRANCH  28  50
ENDBRANCH   1  27
TORSDOF 12
ENDMDL
MODEL 5
REMARK VINA RESULT:     -10.8      3.180      4.563
REMARK  Name = Bisoctrizole
REMARK  22 active torsions:
REMARK  status: ('A' for Active; 'I' for Inactive)
REMARK    1  A    between atoms: C_1  and  C_2
REMARK    2  A    between atoms: C_2  and  C_3
REMARK    3  A    between atoms: C_2  and  C_4
REMARK    4  A    between atoms: C_2  and  C_5
REMARK    5  A    between atoms: C_5  and  C_6
REMARK    6  A    between atoms: C_6  and  C_7
REMARK    7  A    between atoms: C_6  and  C_8
REMARK    8  A    between atoms: C_6  and  C_9
REMARK    9  A    between atoms: C_11  and  C_12
REMARK   10  A    between atoms: C_12  and  C_13
REMARK   11  A    between atoms: C_14  and  O_15
REMARK   12  A    between atoms: C_16  and  N_28
REMARK   13  A    between atoms: C_18  and  C_20
REMARK   14  A    between atoms: C_20  and  C_21
REMARK   15  A    between atoms: C_20  and  C_22
REMARK   16  A    between atoms: C_20  and  C_23
REMARK   17  A    between atoms: C_23  and  C_24
REMARK   18  A    between atoms: C_24  and  C_25
REMARK   19  A    between atoms: C_24  and  C_26
REMARK   20  A    between atoms: C_24  and  C_27
REMARK   21  A    between atoms: C_37  and  O_38
REMARK   22  A    between atoms: C_39  and  N_41
REMARK                            x       y       z     vdW  Elec       q    Type
REMARK                         _______ _______ _______ _____ _____    ______ ____
ROOT
ATOM      1  C   UNL     1      -9.188   1.625 127.914  0.00  0.00    +0.000 C 
ENDROOT
BRANCH   1   4
ATOM      2  C   UNL     1      -8.457  -0.775 125.059  0.00  0.00    +0.000 A 
ATOM      3  C   UNL     1      -8.775  -0.209 126.309  0.00  0.00    +0.000 A 
ATOM      4  C   UNL     1      -8.649   1.162 126.560  0.00  0.00    +0.000 A 
ATOM      5  C   UNL     1      -8.118   1.955 125.524  0.00  0.00    +0.000 A 
ATOM      6  C   UNL     1      -7.865   1.426 124.262  0.00  0.00    +0.000 A 
ATOM      7  C   UNL     1      -8.054   0.075 124.017  0.00  0.00    +0.000 A 
BRANCH   6   8
ATOM      8  N   UNL     1      -7.444   2.277 123.221  0.00  0.00    +0.000 N 
ATOM      9  N   UNL     1      -6.203   2.815 123.214  0.00  0.00    +0.000 NA
ATOM     10  C   UNL     1      -6.168   3.440 122.021  0.00  0.00    +0.000 A 
ATOM     11  C   UNL     1      -5.107   4.111 121.398  0.00  0.00    +0.000 A 
ATOM     12  C   UNL     1      -5.451   4.750 120.188  0.00  0.00    +0.000 A 
ATOM     13  C   UNL     1      -6.758   4.705 119.628  0.00  0.00    +0.000 A 
ATOM     14  C   UNL     1      -7.824   4.002 120.213  0.00  0.00    +0.000 A 
ATOM     15  C   UNL     1      -7.503   3.363 121.429  0.00  0.00    +0.000 A 
ATOM     16  N   UNL     1      -8.287   2.646 122.224  0.00  0.00    +0.000 NA
ENDBRANCH   6   8
BRANCH   2  17
ATOM     17  C   UNL     1      -8.512  -2.293 124.813  0.00  0.00    +0.000 C 
ATOM     18  C   UNL     1      -8.867  -2.573 123.339  0.00  0.00    +0.000 C 
ATOM     19  C   UNL     1      -9.673  -2.834 125.674  0.00  0.00    +0.000 C 
BRANCH  17  20
ATOM     20  C   UNL     1      -7.109  -2.878 125.213  0.00  0.00    +0.000 C 
BRANCH  20  22
ATOM     21  C   UNL     1      -5.035  -1.458 124.944  0.00  0.00    +0.000 C 
ATOM     22  C   UNL     1      -5.859  -2.606 124.323  0.00  0.00    +0.000 C 
ATOM     23  C   UNL     1      -6.232  -2.144 122.909  0.00  0.00    +0.000 C 
ATOM     24  C   UNL     1      -4.919  -3.817 124.250  0.00  0.00    +0.000 C 
ENDBRANCH  20  22
ENDBRANCH  17  20
ENDBRANCH   2  17
BRANCH   5  25
ATOM     25  O   UNL     1      -7.921   3.297 125.606  0.00  0.00    +0.000 OA
ATOM     26  H   UNL     1      -8.753   3.749 125.797  0.00  0.00    +0.000 HD
ENDBRANCH   5  25
ENDBRANCH   1   4
BRANCH   1  27
ATOM     27  C   UNL     1      -8.143   1.692 128.998  0.00  0.00    +0.000 A 
ATOM     28  C   UNL     1      -7.246   2.778 129.102  0.00  0.00    +0.000 A 
ATOM     29  C   UNL     1      -6.001   2.574 129.700  0.00  0.00    +0.000 A 
ATOM     30  C   UNL     1      -5.711   1.344 130.282  0.00  0.00    +0.000 A 
ATOM     31  C   UNL     1      -6.667   0.303 130.337  0.00  0.00    +0.000 A 
ATOM     32  C   UNL     1      -7.878   0.490 129.673  0.00  0.00    +0.000 A 
BRANCH  29  33
ATOM     33  N   UNL     1      -4.984   3.548 129.605  0.00  0.00    +0.000 N 
ATOM     34  N   UNL     1      -4.428   4.149 130.698  0.00  0.00    +0.000 NA
ATOM     35  C   UNL     1      -3.509   4.967 130.145  0.00  0.00    +0.000 A 
ATOM     36  C   UNL     1      -2.523   5.783 130.736  0.00  0.00    +0.000 A 
ATOM     37  C   UNL     1      -1.800   6.587 129.822  0.00  0.00    +0.000 A 
ATOM     38  C   UNL     1      -2.036   6.582 128.421  0.00  0.00    +0.000 A 
ATOM     39  C   UNL     1      -2.989   5.754 127.811  0.00  0.00    +0.000 A 
ATOM     40  C   UNL     1      -3.709   4.937 128.697  0.00  0.00    +0.000 A 
ATOM     41  N   UNL     1      -4.648   4.046 128.400  0.00  0.00    +0.000 NA
ENDBRANCH  29  33
BRANCH  31  42
ATOM     42  C   UNL     1      -6.332  -0.975 131.127  0.00  0.00    +0.000 C 
ATOM     43  C   UNL     1      -4.844  -1.285 130.862  0.00  0.00    +0.000 C 
ATOM     44  C   UNL     1      -6.551  -0.562 132.597  0.00  0.00    +0.000 C 
BRANCH  42  45
ATOM     45  C   UNL     1      -7.246  -2.203 130.734  0.00  0.00    +0.000 C 
BRANCH  45  46
ATOM     46  C   UNL     1      -6.852  -3.163 129.564  0.00  0.00    +0.000 C 
ATOM     47  C   UNL     1      -6.017  -2.463 128.486  0.00  0.00    +0.000 C 
ATOM     48  C   UNL     1      -6.132  -4.424 130.058  0.00  0.00    +0.000 C 
ATOM     49  C   UNL     1      -8.137  -3.653 128.861  0.00  0.00    +0.000 C 
ENDBRANCH  45  46
ENDBRANCH  42  45
ENDBRANCH  31  42
BRANCH  28  50
ATOM     50  O   UNL     1      -7.445   3.933 128.394  0.00  0.00    +0.000 OA
ATOM     51  H   UNL     1      -6.603   4.304 128.094  0.00  0.00    +0.000 HD
ENDBRANCH  28  50
ENDBRANCH   1  27
TORSDOF 12
ENDMDL
MODEL 6
REMARK VINA RESULT:     -10.8      3.716      8.147
REMARK  Name = Bisoctrizole
REMARK  22 active torsions:
REMARK  status: ('A' for Active; 'I' for Inactive)
REMARK    1  A    between atoms: C_1  and  C_2
REMARK    2  A    between atoms: C_2  and  C_3
REMARK    3  A    between atoms: C_2  and  C_4
REMARK    4  A    between atoms: C_2  and  C_5
REMARK    5  A    between atoms: C_5  and  C_6
REMARK    6  A    between atoms: C_6  and  C_7
REMARK    7  A    between atoms: C_6  and  C_8
REMARK    8  A    between atoms: C_6  and  C_9
REMARK    9  A    between atoms: C_11  and  C_12
REMARK   10  A    between atoms: C_12  and  C_13
REMARK   11  A    between atoms: C_14  and  O_15
REMARK   12  A    between atoms: C_16  and  N_28
REMARK   13  A    between atoms: C_18  and  C_20
REMARK   14  A    between atoms: C_20  and  C_21
REMARK   15  A    between atoms: C_20  and  C_22
REMARK   16  A    between atoms: C_20  and  C_23
REMARK   17  A    between atoms: C_23  and  C_24
REMARK   18  A    between atoms: C_24  and  C_25
REMARK   19  A    between atoms: C_24  and  C_26
REMARK   20  A    between atoms: C_24  and  C_27
REMARK   21  A    between atoms: C_37  and  O_38
REMARK   22  A    between atoms: C_39  and  N_41
REMARK                            x       y       z     vdW  Elec       q    Type
REMARK                         _______ _______ _______ _____ _____    ______ ____
ROOT
ATOM      1  C   UNL     1      -8.500   1.764 127.521  0.00  0.00    +0.000 C 
ENDROOT
BRANCH   1   4
ATOM      2  C   UNL     1      -7.920  -1.693 126.053  0.00  0.00    +0.000 A 
ATOM      3  C   UNL     1      -8.346  -0.371 126.285  0.00  0.00    +0.000 A 
ATOM      4  C   UNL     1      -8.114   0.285 127.499  0.00  0.00    +0.000 A 
ATOM      5  C   UNL     1      -7.492  -0.461 128.519  0.00  0.00    +0.000 A 
ATOM      6  C   UNL     1      -7.002  -1.742 128.285  0.00  0.00    +0.000 A 
ATOM      7  C   UNL     1      -7.190  -2.352 127.055  0.00  0.00    +0.000 A 
BRANCH   6   8
ATOM      8  N   UNL     1      -6.284  -2.410 129.298  0.00  0.00    +0.000 N 
ATOM      9  N   UNL     1      -5.145  -1.890 129.810  0.00  0.00    +0.000 NA
ATOM     10  C   UNL     1      -4.859  -2.751 130.806  0.00  0.00    +0.000 A 
ATOM     11  C   UNL     1      -3.837  -2.697 131.763  0.00  0.00    +0.000 A 
ATOM     12  C   UNL     1      -3.760  -3.832 132.598  0.00  0.00    +0.000 A 
ATOM     13  C   UNL     1      -4.653  -4.934 132.499  0.00  0.00    +0.000 A 
ATOM     14  C   UNL     1      -5.711  -4.989 131.576  0.00  0.00    +0.000 A 
ATOM     15  C   UNL     1      -5.800  -3.868 130.724  0.00  0.00    +0.000 A 
ATOM     16  N   UNL     1      -6.667  -3.631 129.747  0.00  0.00    +0.000 NA
ENDBRANCH   6   8
BRANCH   2  17
ATOM     17  C   UNL     1      -8.254  -2.442 124.751  0.00  0.00    +0.000 C 
ATOM     18  C   UNL     1      -8.605  -1.432 123.640  0.00  0.00    +0.000 C 
ATOM     19  C   UNL     1      -9.527  -3.268 125.037  0.00  0.00    +0.000 C 
BRANCH  17  20
ATOM     20  C   UNL     1      -7.004  -3.322 124.388  0.00  0.00    +0.000 C 
BRANCH  20  22
ATOM     21  C   UNL     1      -4.640  -3.742 123.599  0.00  0.00    +0.000 C 
ATOM     22  C   UNL     1      -5.739  -2.670 123.752  0.00  0.00    +0.000 C 
ATOM     23  C   UNL     1      -5.138  -1.570 124.636  0.00  0.00    +0.000 C 
ATOM     24  C   UNL     1      -6.007  -2.126 122.343  0.00  0.00    +0.000 C 
ENDBRANCH  20  22
ENDBRANCH  17  20
ENDBRANCH   2  17
BRANCH   5  25
ATOM     25  O   UNL     1      -7.203   0.020 129.757  0.00  0.00    +0.000 OA
ATOM     26  H   UNL     1      -6.259   0.205 129.835  0.00  0.00    +0.000 HD
ENDBRANCH   5  25
ENDBRANCH   1   4
BRANCH   1  27
ATOM     27  C   UNL     1      -7.459   2.678 126.925  0.00  0.00    +0.000 A 
ATOM     28  C   UNL     1      -7.574   3.180 125.610  0.00  0.00    +0.000 A 
ATOM     29  C   UNL     1      -6.415   3.522 124.911  0.00  0.00    +0.000 A 
ATOM     30  C   UNL     1      -5.183   3.473 125.556  0.00  0.00    +0.000 A 
ATOM     31  C   UNL     1      -5.074   3.137 126.926  0.00  0.00    +0.000 A 
ATOM     32  C   UNL     1      -6.226   2.724 127.594  0.00  0.00    +0.000 A 
BRANCH  29  33
ATOM     33  N   UNL     1      -6.457   3.788 123.526  0.00  0.00    +0.000 N 
ATOM     34  N   UNL     1      -7.441   3.310 122.707  0.00  0.00    +0.000 NA
ATOM     35  C   UNL     1      -7.097   3.822 121.508  0.00  0.00    +0.000 A 
ATOM     36  C   UNL     1      -7.762   3.793 120.265  0.00  0.00    +0.000 A 
ATOM     37  C   UNL     1      -7.032   4.362 119.194  0.00  0.00    +0.000 A 
ATOM     38  C   UNL     1      -5.735   4.922 119.344  0.00  0.00    +0.000 A 
ATOM     39  C   UNL     1      -5.070   4.990 120.576  0.00  0.00    +0.000 A 
ATOM     40  C   UNL     1      -5.782   4.444 121.657  0.00  0.00    +0.000 A 
ATOM     41  N   UNL     1      -5.411   4.392 122.930  0.00  0.00    +0.000 NA
ENDBRANCH  29  33
BRANCH  31  42
ATOM     42  C   UNL     1      -3.701   3.248 127.612  0.00  0.00    +0.000 C 
ATOM     43  C   UNL     1      -3.797   2.460 128.935  0.00  0.00    +0.000 C 
ATOM     44  C   UNL     1      -2.744   2.546 126.627  0.00  0.00    +0.000 C 
BRANCH  42  45
ATOM     45  C   UNL     1      -3.259   4.743 127.874  0.00  0.00    +0.000 C 
BRANCH  45  46
ATOM     46  C   UNL     1      -3.653   5.484 129.193  0.00  0.00    +0.000 C 
ATOM     47  C   UNL     1      -5.133   5.301 129.549  0.00  0.00    +0.000 C 
ATOM     48  C   UNL     1      -2.768   5.082 130.378  0.00  0.00    +0.000 C 
ATOM     49  C   UNL     1      -3.443   7.002 128.999  0.00  0.00    +0.000 C 
ENDBRANCH  45  46
ENDBRANCH  42  45
ENDBRANCH  31  42
BRANCH  28  50
ATOM     50  O   UNL     1      -8.747   3.077 124.911  0.00  0.00    +0.000 OA
ATOM     51  H   UNL     1      -9.149   2.205 125.037  0.00  0.00    +0.000 HD
ENDBRANCH  28  50
ENDBRANCH   1  27
TORSDOF 12
ENDMDL
MODEL 7
REMARK VINA RESULT:     -10.7      2.810      4.971
REMARK  Name = Bisoctrizole
REMARK  22 active torsions:
REMARK  status: ('A' for Active; 'I' for Inactive)
REMARK    1  A    between atoms: C_1  and  C_2
REMARK    2  A    between atoms: C_2  and  C_3
REMARK    3  A    between atoms: C_2  and  C_4
REMARK    4  A    between atoms: C_2  and  C_5
REMARK    5  A    between atoms: C_5  and  C_6
REMARK    6  A    between atoms: C_6  and  C_7
REMARK    7  A    between atoms: C_6  and  C_8
REMARK    8  A    between atoms: C_6  and  C_9
REMARK    9  A    between atoms: C_11  and  C_12
REMARK   10  A    between atoms: C_12  and  C_13
REMARK   11  A    between atoms: C_14  and  O_15
REMARK   12  A    between atoms: C_16  and  N_28
REMARK   13  A    between atoms: C_18  and  C_20
REMARK   14  A    between atoms: C_20  and  C_21
REMARK   15  A    between atoms: C_20  and  C_22
REMARK   16  A    between atoms: C_20  and  C_23
REMARK   17  A    between atoms: C_23  and  C_24
REMARK   18  A    between atoms: C_24  and  C_25
REMARK   19  A    between atoms: C_24  and  C_26
REMARK   20  A    between atoms: C_24  and  C_27
REMARK   21  A    between atoms: C_37  and  O_38
REMARK   22  A    between atoms: C_39  and  N_41
REMARK                            x       y       z     vdW  Elec       q    Type
REMARK                         _______ _______ _______ _____ _____    ______ ____
ROOT
ATOM      1  C   UNL     1      -9.162   1.635 131.563  0.00  0.00    +0.000 C 
ENDROOT
BRANCH   1   4
ATOM      2  C   UNL     1      -7.414  -0.965 129.412  0.00  0.00    +0.000 A 
ATOM      3  C   UNL     1      -7.939  -0.225 130.489  0.00  0.00    +0.000 A 
ATOM      4  C   UNL     1      -8.497   1.046 130.319  0.00  0.00    +0.000 A 
ATOM      5  C   UNL     1      -8.448   1.596 129.023  0.00  0.00    +0.000 A 
ATOM      6  C   UNL     1      -7.998   0.853 127.936  0.00  0.00    +0.000 A 
ATOM      7  C   UNL     1      -7.504  -0.429 128.118  0.00  0.00    +0.000 A 
BRANCH   6   8
ATOM      8  N   UNL     1      -8.073   1.399 126.638  0.00  0.00    +0.000 N 
ATOM      9  N   UNL     1      -7.065   2.144 126.131  0.00  0.00    +0.000 NA
ATOM     10  C   UNL     1      -7.473   2.355 124.864  0.00  0.00    +0.000 A 
ATOM     11  C   UNL     1      -6.806   2.993 123.809  0.00  0.00    +0.000 A 
ATOM     12  C   UNL     1      -7.577   3.137 122.635  0.00  0.00    +0.000 A 
ATOM     13  C   UNL     1      -8.912   2.658 122.516  0.00  0.00    +0.000 A 
ATOM     14  C   UNL     1      -9.582   1.978 123.546  0.00  0.00    +0.000 A 
ATOM     15  C   UNL     1      -8.832   1.831 124.733  0.00  0.00    +0.000 A 
ATOM     16  N   UNL     1      -9.187   1.260 125.877  0.00  0.00    +0.000 NA
ENDBRANCH   6   8
BRANCH   2  17
ATOM     17  C   UNL     1      -6.721  -2.324 129.616  0.00  0.00    +0.000 C 
ATOM     18  C   UNL     1      -5.461  -2.408 128.731  0.00  0.00    +0.000 C 
ATOM     19  C   UNL     1      -7.707  -3.398 129.110  0.00  0.00    +0.000 C 
BRANCH  17  20
ATOM     20  C   UNL     1      -6.387  -2.449 131.147  0.00  0.00    +0.000 C 
BRANCH  20  22
ATOM     21  C   UNL     1      -5.679  -4.829 130.676  0.00  0.00    +0.000 C 
ATOM     22  C   UNL     1      -5.561  -3.660 131.677  0.00  0.00    +0.000 C 
ATOM     23  C   UNL     1      -6.089  -4.192 133.014  0.00  0.00    +0.000 C 
ATOM     24  C   UNL     1      -4.064  -3.342 131.789  0.00  0.00    +0.000 C 
ENDBRANCH  20  22
ENDBRANCH  17  20
ENDBRANCH   2  17
BRANCH   5  25
ATOM     25  O   UNL     1      -8.935   2.820 128.687  0.00  0.00    +0.000 OA
ATOM     26  H   UNL     1      -8.214   3.418 128.455  0.00  0.00    +0.000 HD
ENDBRANCH   5  25
ENDBRANCH   1   4
BRANCH   1  27
ATOM     27  C   UNL     1      -9.006   3.129 131.692  0.00  0.00    +0.000 A 
ATOM     28  C   UNL     1     -10.016   4.022 131.271  0.00  0.00    +0.000 A 
ATOM     29  C   UNL     1      -9.658   5.314 130.881  0.00  0.00    +0.000 A 
ATOM     30  C   UNL     1      -8.339   5.735 131.021  0.00  0.00    +0.000 A 
ATOM     31  C   UNL     1      -7.352   4.905 131.602  0.00  0.00    +0.000 A 
ATOM     32  C   UNL     1      -7.701   3.593 131.919  0.00  0.00    +0.000 A 
BRANCH  29  33
ATOM     33  N   UNL     1     -10.583   6.154 130.224  0.00  0.00    +0.000 N 
ATOM     34  N   UNL     1     -10.983   7.358 130.731  0.00  0.00    +0.000 NA
ATOM     35  C   UNL     1     -11.828   7.807 129.781  0.00  0.00    +0.000 A 
ATOM     36  C   UNL     1     -12.495   9.043 129.646  0.00  0.00    +0.000 A 
ATOM     37  C   UNL     1     -13.390   9.112 128.552  0.00  0.00    +0.000 A 
ATOM     38  C   UNL     1     -13.609   8.033 127.654  0.00  0.00    +0.000 A 
ATOM     39  C   UNL     1     -12.933   6.809 127.750  0.00  0.00    +0.000 A 
ATOM     40  C   UNL     1     -12.028   6.723 128.821  0.00  0.00    +0.000 A 
ATOM     41  N   UNL     1     -11.241   5.702 129.139  0.00  0.00    +0.000 NA
ENDBRANCH  29  33
BRANCH  31  42
ATOM     42  C   UNL     1      -5.951   5.487 131.863  0.00  0.00    +0.000 C 
ATOM     43  C   UNL     1      -5.887   5.843 133.363  0.00  0.00    +0.000 C 
ATOM     44  C   UNL     1      -5.004   4.315 131.538  0.00  0.00    +0.000 C 
BRANCH  42  45
ATOM     45  C   UNL     1      -5.630   6.750 130.967  0.00  0.00    +0.000 C 
BRANCH  45  46
ATOM     46  C   UNL     1      -4.155   7.170 130.660  0.00  0.00    +0.000 C 
ATOM     47  C   UNL     1      -3.325   7.375 131.932  0.00  0.00    +0.000 C 
ATOM     48  C   UNL     1      -3.450   6.185 129.719  0.00  0.00    +0.000 C 
ATOM     49  C   UNL     1      -4.162   8.530 129.927  0.00  0.00    +0.000 C 
ENDBRANCH  45  46
ENDBRANCH  42  45
ENDBRANCH  31  42
BRANCH  28  50
ATOM     50  O   UNL     1     -11.276   3.579 130.972  0.00  0.00    +0.000 OA
ATOM     51  H   UNL     1     -11.836   3.573 131.761  0.00  0.00    +0.000 HD
ENDBRANCH  28  50
ENDBRANCH   1  27
TORSDOF 12
ENDMDL
MODEL 8
REMARK VINA RESULT:     -10.6      3.278      8.725
REMARK  Name = Bisoctrizole
REMARK  22 active torsions:
REMARK  status: ('A' for Active; 'I' for Inactive)
REMARK    1  A    between atoms: C_1  and  C_2
REMARK    2  A    between atoms: C_2  and  C_3
REMARK    3  A    between atoms: C_2  and  C_4
REMARK    4  A    between atoms: C_2  and  C_5
REMARK    5  A    between atoms: C_5  and  C_6
REMARK    6  A    between atoms: C_6  and  C_7
REMARK    7  A    between atoms: C_6  and  C_8
REMARK    8  A    between atoms: C_6  and  C_9
REMARK    9  A    between atoms: C_11  and  C_12
REMARK   10  A    between atoms: C_12  and  C_13
REMARK   11  A    between atoms: C_14  and  O_15
REMARK   12  A    between atoms: C_16  and  N_28
REMARK   13  A    between atoms: C_18  and  C_20
REMARK   14  A    between atoms: C_20  and  C_21
REMARK   15  A    between atoms: C_20  and  C_22
REMARK   16  A    between atoms: C_20  and  C_23
REMARK   17  A    between atoms: C_23  and  C_24
REMARK   18  A    between atoms: C_24  and  C_25
REMARK   19  A    between atoms: C_24  and  C_26
REMARK   20  A    between atoms: C_24  and  C_27
REMARK   21  A    between atoms: C_37  and  O_38
REMARK   22  A    between atoms: C_39  and  N_41
REMARK                            x       y       z     vdW  Elec       q    Type
REMARK                         _______ _______ _______ _____ _____    ______ ____
ROOT
ATOM      1  C   UNL     1      -7.800   1.057 130.881  0.00  0.00    +0.000 C 
ENDROOT
BRANCH   1   4
ATOM      2  C   UNL     1      -6.041   4.425 130.868  0.00  0.00    +0.000 A 
ATOM      3  C   UNL     1      -6.366   3.064 131.027  0.00  0.00    +0.000 A 
ATOM      4  C   UNL     1      -7.661   2.578 130.822  0.00  0.00    +0.000 A 
ATOM      5  C   UNL     1      -8.658   3.526 130.516  0.00  0.00    +0.000 A 
ATOM      6  C   UNL     1      -8.342   4.861 130.285  0.00  0.00    +0.000 A 
ATOM      7  C   UNL     1      -7.041   5.311 130.436  0.00  0.00    +0.000 A 
BRANCH   6   8
ATOM      8  N   UNL     1      -9.350   5.754 129.868  0.00  0.00    +0.000 N 
ATOM      9  N   UNL     1      -9.486   6.100 128.567  0.00  0.00    +0.000 NA
ATOM     10  C   UNL     1     -10.609   6.845 128.584  0.00  0.00    +0.000 A 
ATOM     11  C   UNL     1     -11.313   7.418 127.517  0.00  0.00    +0.000 A 
ATOM     12  C   UNL     1     -12.396   8.235 127.905  0.00  0.00    +0.000 A 
ATOM     13  C   UNL     1     -12.764   8.448 129.263  0.00  0.00    +0.000 A 
ATOM     14  C   UNL     1     -12.100   7.848 130.345  0.00  0.00    +0.000 A 
ATOM     15  C   UNL     1     -11.006   7.034 129.979  0.00  0.00    +0.000 A 
ATOM     16  N   UNL     1     -10.176   6.355 130.760  0.00  0.00    +0.000 NA
ENDBRANCH   6   8
BRANCH   2  17
ATOM     17  C   UNL     1      -4.637   4.971 131.180  0.00  0.00    +0.000 C 
ATOM     18  C   UNL     1      -3.819   3.910 131.943  0.00  0.00    +0.000 C 
ATOM     19  C   UNL     1      -4.835   6.169 132.134  0.00  0.00    +0.000 C 
BRANCH  17  20
ATOM     20  C   UNL     1      -3.976   5.364 129.809  0.00  0.00    +0.000 C 
BRANCH  20  22
ATOM     21  C   UNL     1      -2.305   6.574 128.348  0.00  0.00    +0.000 C 
ATOM     22  C   UNL     1      -3.010   6.584 129.721  0.00  0.00    +0.000 C 
ATOM     23  C   UNL     1      -1.894   6.528 130.771  0.00  0.00    +0.000 C 
ATOM     24  C   UNL     1      -3.751   7.924 129.811  0.00  0.00    +0.000 C 
ENDBRANCH  20  22
ENDBRANCH  17  20
ENDBRANCH   2  17
BRANCH   5  25
ATOM     25  O   UNL     1      -9.965   3.224 130.296  0.00  0.00    +0.000 OA
ATOM     26  H   UNL     1     -10.531   3.956 130.571  0.00  0.00    +0.000 HD
ENDBRANCH   5  25
ENDBRANCH   1   4
BRANCH   1  27
ATOM     27  C   UNL     1      -6.880   0.321 129.941  0.00  0.00    +0.000 A 
ATOM     28  C   UNL     1      -7.210   0.117 128.583  0.00  0.00    +0.000 A 
ATOM     29  C   UNL     1      -6.672  -0.983 127.912  0.00  0.00    +0.000 A 
ATOM     30  C   UNL     1      -5.737  -1.789 128.553  0.00  0.00    +0.000 A 
ATOM     31  C   UNL     1      -5.268  -1.494 129.855  0.00  0.00    +0.000 A 
ATOM     32  C   UNL     1      -5.866  -0.440 130.544  0.00  0.00    +0.000 A 
BRANCH  29  33
ATOM     33  N   UNL     1      -7.160  -1.367 126.645  0.00  0.00    +0.000 N 
ATOM     34  N   UNL     1      -6.798  -0.738 125.488  0.00  0.00    +0.000 NA
ATOM     35  C   UNL     1      -7.471  -1.440 124.552  0.00  0.00    +0.000 A 
ATOM     36  C   UNL     1      -7.442  -1.367 123.144  0.00  0.00    +0.000 A 
ATOM     37  C   UNL     1      -8.375  -2.209 122.493  0.00  0.00    +0.000 A 
ATOM     38  C   UNL     1      -9.272  -3.064 123.187  0.00  0.00    +0.000 A 
ATOM     39  C   UNL     1      -9.294  -3.175 124.584  0.00  0.00    +0.000 A 
ATOM     40  C   UNL     1      -8.366  -2.359 125.252  0.00  0.00    +0.000 A 
ATOM     41  N   UNL     1      -8.151  -2.276 126.559  0.00  0.00    +0.000 NA
ENDBRANCH  29  33
BRANCH  31  42
ATOM     42  C   UNL     1      -4.125  -2.341 130.443  0.00  0.00    +0.000 C 
ATOM     43  C   UNL     1      -3.725  -3.365 129.361  0.00  0.00    +0.000 C 
ATOM     44  C   UNL     1      -2.995  -1.318 130.672  0.00  0.00    +0.000 C 
BRANCH  42  45
ATOM     45  C   UNL     1      -4.524  -3.067 131.791  0.00  0.00    +0.000 C 
BRANCH  45  46
ATOM     46  C   UNL     1      -5.723  -4.068 131.846  0.00  0.00    +0.000 C 
ATOM     47  C   UNL     1      -7.057  -3.371 132.139  0.00  0.00    +0.000 C 
ATOM     48  C   UNL     1      -5.837  -4.918 130.575  0.00  0.00    +0.000 C 
ATOM     49  C   UNL     1      -5.495  -5.063 133.005  0.00  0.00    +0.000 C 
ENDBRANCH  45  46
ENDBRANCH  42  45
ENDBRANCH  31  42
BRANCH  28  50
ATOM     50  O   UNL     1      -8.245   0.794 127.996  0.00  0.00    +0.000 OA
ATOM     51  H   UNL     1      -9.085   0.583 128.428  0.00  0.00    +0.000 HD
ENDBRANCH  28  50
ENDBRANCH   1  27
TORSDOF 12
ENDMDL
MODEL 9
REMARK VINA RESULT:     -10.5      4.577      9.174
REMARK  Name = Bisoctrizole
REMARK  22 active torsions:
REMARK  status: ('A' for Active; 'I' for Inactive)
REMARK    1  A    between atoms: C_1  and  C_2
REMARK    2  A    between atoms: C_2  and  C_3
REMARK    3  A    between atoms: C_2  and  C_4
REMARK    4  A    between atoms: C_2  and  C_5
REMARK    5  A    between atoms: C_5  and  C_6
REMARK    6  A    between atoms: C_6  and  C_7
REMARK    7  A    between atoms: C_6  and  C_8
REMARK    8  A    between atoms: C_6  and  C_9
REMARK    9  A    between atoms: C_11  and  C_12
REMARK   10  A    between atoms: C_12  and  C_13
REMARK   11  A    between atoms: C_14  and  O_15
REMARK   12  A    between atoms: C_16  and  N_28
REMARK   13  A    between atoms: C_18  and  C_20
REMARK   14  A    between atoms: C_20  and  C_21
REMARK   15  A    between atoms: C_20  and  C_22
REMARK   16  A    between atoms: C_20  and  C_23
REMARK   17  A    between atoms: C_23  and  C_24
REMARK   18  A    between atoms: C_24  and  C_25
REMARK   19  A    between atoms: C_24  and  C_26
REMARK   20  A    between atoms: C_24  and  C_27
REMARK   21  A    between atoms: C_37  and  O_38
REMARK   22  A    between atoms: C_39  and  N_41
REMARK                            x       y       z     vdW  Elec       q    Type
REMARK                         _______ _______ _______ _____ _____    ______ ____
ROOT
ATOM      1  C   UNL     1      -4.003   2.055 132.719  0.00  0.00    +0.000 C 
ENDROOT
BRANCH   1   4
ATOM      2  C   UNL     1      -3.495   4.239 129.650  0.00  0.00    +0.000 A 
ATOM      3  C   UNL     1      -3.772   3.171 130.525  0.00  0.00    +0.000 A 
ATOM      4  C   UNL     1      -3.491   3.236 131.894  0.00  0.00    +0.000 A 
ATOM      5  C   UNL     1      -2.844   4.399 132.358  0.00  0.00    +0.000 A 
ATOM      6  C   UNL     1      -2.627   5.490 131.523  0.00  0.00    +0.000 A 
ATOM      7  C   UNL     1      -2.969   5.427 130.182  0.00  0.00    +0.000 A 
BRANCH   6   8
ATOM      8  N   UNL     1      -2.082   6.677 132.054  0.00  0.00    +0.000 N 
ATOM      9  N   UNL     1      -2.788   7.831 132.061  0.00  0.00    +0.000 NA
ATOM     10  C   UNL     1      -1.977   8.659 132.748  0.00  0.00    +0.000 A 
ATOM     11  C   UNL     1      -2.197   9.980 133.162  0.00  0.00    +0.000 A 
ATOM     12  C   UNL     1      -1.081  10.593 133.772  0.00  0.00    +0.000 A 
ATOM     13  C   UNL     1       0.160   9.928 133.972  0.00  0.00    +0.000 A 
ATOM     14  C   UNL     1       0.388   8.592 133.605  0.00  0.00    +0.000 A 
ATOM     15  C   UNL     1      -0.713   7.962 132.985  0.00  0.00    +0.000 A 
ATOM     16  N   UNL     1      -0.806   6.726 132.511  0.00  0.00    +0.000 NA
ENDBRANCH   6   8
BRANCH   2  17
ATOM     17  C   UNL     1      -3.724   4.131 128.132  0.00  0.00    +0.000 C 
ATOM     18  C   UNL     1      -2.492   3.494 127.460  0.00  0.00    +0.000 C 
ATOM     19  C   UNL     1      -3.837   5.577 127.603  0.00  0.00    +0.000 C 
BRANCH  17  20
ATOM     20  C   UNL     1      -5.029   3.282 127.919  0.00  0.00    +0.000 C 
BRANCH  20  22
ATOM     21  C   UNL     1      -6.925   2.604 126.392  0.00  0.00    +0.000 C 
ATOM     22  C   UNL     1      -5.392   2.736 126.505  0.00  0.00    +0.000 C 
ATOM     23  C   UNL     1      -4.825   1.333 126.253  0.00  0.00    +0.000 C 
ATOM     24  C   UNL     1      -4.960   3.688 125.382  0.00  0.00    +0.000 C 
ENDBRANCH  20  22
ENDBRANCH  17  20
ENDBRANCH   2  17
BRANCH   5  25
ATOM     25  O   UNL     1      -2.491   4.619 133.652  0.00  0.00    +0.000 OA
ATOM     26  H   UNL     1      -3.136   5.192 134.085  0.00  0.00    +0.000 HD
ENDBRANCH   5  25
ENDBRANCH   1   4
BRANCH   1  27
ATOM     27  C   UNL     1      -5.465   1.751 132.511  0.00  0.00    +0.000 A 
ATOM     28  C   UNL     1      -5.893   0.618 131.784  0.00  0.00    +0.000 A 
ATOM     29  C   UNL     1      -7.133   0.653 131.144  0.00  0.00    +0.000 A 
ATOM     30  C   UNL     1      -7.971   1.750 131.325  0.00  0.00    +0.000 A 
ATOM     31  C   UNL     1      -7.625   2.814 132.190  0.00  0.00    +0.000 A 
ATOM     32  C   UNL     1      -6.355   2.807 132.764  0.00  0.00    +0.000 A 
BRANCH  29  33
ATOM     33  N   UNL     1      -7.494  -0.342 130.211  0.00  0.00    +0.000 N 
ATOM     34  N   UNL     1      -7.740  -1.638 130.566  0.00  0.00    +0.000 NA
ATOM     35  C   UNL     1      -8.064  -2.207 129.387  0.00  0.00    +0.000 A 
ATOM     36  C   UNL     1      -8.530  -3.503 129.083  0.00  0.00    +0.000 A 
ATOM     37  C   UNL     1      -8.669  -3.768 127.699  0.00  0.00    +0.000 A 
ATOM     38  C   UNL     1      -8.368  -2.816 126.688  0.00  0.00    +0.000 A 
ATOM     39  C   UNL     1      -7.936  -1.513 126.970  0.00  0.00    +0.000 A 
ATOM     40  C   UNL     1      -7.805  -1.222 128.338  0.00  0.00    +0.000 A 
ATOM     41  N   UNL     1      -7.439  -0.073 128.893  0.00  0.00    +0.000 NA
ENDBRANCH  29  33
BRANCH  31  42
ATOM     42  C   UNL     1      -8.661   3.921 132.459  0.00  0.00    +0.000 C 
ATOM     43  C   UNL     1      -9.759   3.775 131.385  0.00  0.00    +0.000 C 
ATOM     44  C   UNL     1      -9.213   3.571 133.855  0.00  0.00    +0.000 C 
BRANCH  42  45
ATOM     45  C   UNL     1      -8.035   5.373 132.437  0.00  0.00    +0.000 C 
BRANCH  45  46
ATOM     46  C   UNL     1      -7.620   6.054 131.092  0.00  0.00    +0.000 C 
ATOM     47  C   UNL     1      -7.334   5.037 129.982  0.00  0.00    +0.000 C 
ATOM     48  C   UNL     1      -8.650   7.085 130.615  0.00  0.00    +0.000 C 
ATOM     49  C   UNL     1      -6.305   6.834 131.309  0.00  0.00    +0.000 C 
ENDBRANCH  45  46
ENDBRANCH  42  45
ENDBRANCH  31  42
BRANCH  28  50
ATOM     50  O   UNL     1      -5.023  -0.387 131.460  0.00  0.00    +0.000 OA
ATOM     51  H   UNL     1      -5.502  -1.181 131.180  0.00  0.00    +0.000 HD
ENDBRANCH  28  50
ENDBRANCH   1  27
TORSDOF 12
ENDMDL
