MODEL 1
REMARK VINA RESULT:      -7.0      0.000      0.000
REMARK  Name = Bisphenol A diglycidyl ether
REMARK  10 active torsions:
REMARK  status: ('A' for Active; 'I' for Inactive)
REMARK    1  A    between atoms: C_1  and  C_2
REMARK    2  A    between atoms: C_2  and  C_3
REMARK    3  A    between atoms: C_2  and  C_4
REMARK    4  A    between atoms: C_2  and  C_15
REMARK    5  A    between atoms: C_7  and  O_8
REMARK    6  A    between atoms: O_8  and  C_9
REMARK    7  A    between atoms: C_9  and  C_10
REMARK    8  A    between atoms: C_18  and  O_19
REMARK    9  A    between atoms: O_19  and  C_20
REMARK   10  A    between atoms: C_20  and  C_21
REMARK                            x       y       z     vdW  Elec       q    Type
REMARK                         _______ _______ _______ _____ _____    ______ ____
ROOT
ATOM      1  C   UNL     1      -6.882  -3.201 123.993  0.00  0.00    +0.000 C 
ATOM      2  C   UNL     1      -8.188  -2.514 124.479  0.00  0.00    +0.000 C 
ATOM      3  C   UNL     1      -9.360  -3.312 123.851  0.00  0.00    +0.000 C 
ENDROOT
BRANCH   2   4
ATOM      4  C   UNL     1      -8.237  -2.584 126.027  0.00  0.00    +0.000 A 
ATOM      5  C   UNL     1      -7.596  -1.658 126.867  0.00  0.00    +0.000 A 
ATOM      6  C   UNL     1      -7.563  -1.863 128.252  0.00  0.00    +0.000 A 
ATOM      7  C   UNL     1      -8.181  -2.975 128.826  0.00  0.00    +0.000 A 
ATOM      8  C   UNL     1      -8.808  -3.901 128.007  0.00  0.00    +0.000 A 
ATOM      9  C   UNL     1      -8.870  -3.680 126.642  0.00  0.00    +0.000 A 
BRANCH   7  10
ATOM     10  O   UNL     1      -8.133  -3.065 130.187  0.00  0.00    +0.000 OA
BRANCH  10  11
ATOM     11  C   UNL     1      -6.849  -2.827 130.777  0.00  0.00    +0.000 C 
BRANCH  11  12
ATOM     12  C   UNL     1      -6.020  -4.052 130.601  0.00  0.00    +0.000 C 
ATOM     13  C   UNL     1      -4.630  -4.141 131.181  0.00  0.00    +0.000 C 
ATOM     14  O   UNL     1      -5.749  -4.775 131.811  0.00  0.00    +0.000 OA
ENDBRANCH  11  12
ENDBRANCH  10  11
ENDBRANCH   7  10
ENDBRANCH   2   4
BRANCH   2  15
ATOM     15  C   UNL     1      -8.165  -1.048 123.967  0.00  0.00    +0.000 A 
ATOM     16  C   UNL     1      -6.963  -0.354 123.739  0.00  0.00    +0.000 A 
ATOM     17  C   UNL     1      -6.968   1.007 123.417  0.00  0.00    +0.000 A 
ATOM     18  C   UNL     1      -8.162   1.700 123.262  0.00  0.00    +0.000 A 
ATOM     19  C   UNL     1      -9.361   1.034 123.464  0.00  0.00    +0.000 A 
ATOM     20  C   UNL     1      -9.350  -0.311 123.802  0.00  0.00    +0.000 A 
BRANCH  18  21
ATOM     21  O   UNL     1      -8.062   3.011 122.914  0.00  0.00    +0.000 OA
BRANCH  21  22
ATOM     22  C   UNL     1      -6.733   3.529 122.810  0.00  0.00    +0.000 C 
BRANCH  22  23
ATOM     23  C   UNL     1      -6.456   3.766 121.368  0.00  0.00    +0.000 C 
ATOM     24  C   UNL     1      -5.181   4.461 120.969  0.00  0.00    +0.000 C 
ATOM     25  O   UNL     1      -5.351   3.047 120.807  0.00  0.00    +0.000 OA
ENDBRANCH  22  23
ENDBRANCH  21  22
ENDBRANCH  18  21
ENDBRANCH   2  15
TORSDOF 8
ENDMDL
MODEL 2
REMARK VINA RESULT:      -6.9      1.558      2.074
REMARK  Name = Bisphenol A diglycidyl ether
REMARK  10 active torsions:
REMARK  status: ('A' for Active; 'I' for Inactive)
REMARK    1  A    between atoms: C_1  and  C_2
REMARK    2  A    between atoms: C_2  and  C_3
REMARK    3  A    between atoms: C_2  and  C_4
REMARK    4  A    between atoms: C_2  and  C_15
REMARK    5  A    between atoms: C_7  and  O_8
REMARK    6  A    between atoms: O_8  and  C_9
REMARK    7  A    between atoms: C_9  and  C_10
REMARK    8  A    between atoms: C_18  and  O_19
REMARK    9  A    between atoms: O_19  and  C_20
REMARK   10  A    between atoms: C_20  and  C_21
REMARK                            x       y       z     vdW  Elec       q    Type
REMARK                         _______ _______ _______ _____ _____    ______ ____
ROOT
ATOM      1  C   UNL     1      -6.839  -2.883 123.971  0.00  0.00    +0.000 C 
ATOM      2  C   UNL     1      -8.134  -2.470 124.723  0.00  0.00    +0.000 C 
ATOM      3  C   UNL     1      -9.289  -3.282 124.081  0.00  0.00    +0.000 C 
ENDROOT
BRANCH   2   4
ATOM      4  C   UNL     1      -7.971  -2.828 126.221  0.00  0.00    +0.000 A 
ATOM      5  C   UNL     1      -8.916  -3.568 126.951  0.00  0.00    +0.000 A 
ATOM      6  C   UNL     1      -8.773  -3.733 128.335  0.00  0.00    +0.000 A 
ATOM      7  C   UNL     1      -7.682  -3.185 129.011  0.00  0.00    +0.000 A 
ATOM      8  C   UNL     1      -6.747  -2.444 128.305  0.00  0.00    +0.000 A 
ATOM      9  C   UNL     1      -6.871  -2.312 126.932  0.00  0.00    +0.000 A 
BRANCH   7  10
ATOM     10  O   UNL     1      -7.606  -3.436 130.350  0.00  0.00    +0.000 OA
BRANCH  10  11
ATOM     11  C   UNL     1      -6.348  -3.133 130.965  0.00  0.00    +0.000 C 
BRANCH  11  12
ATOM     12  C   UNL     1      -5.679  -4.416 131.318  0.00  0.00    +0.000 C 
ATOM     13  C   UNL     1      -4.461  -4.441 132.209  0.00  0.00    +0.000 C 
ATOM     14  O   UNL     1      -5.761  -4.779 132.703  0.00  0.00    +0.000 OA
ENDBRANCH  11  12
ENDBRANCH  10  11
ENDBRANCH   7  10
ENDBRANCH   2   4
BRANCH   2  15
ATOM     15  C   UNL     1      -8.333  -0.945 124.511  0.00  0.00    +0.000 A 
ATOM     16  C   UNL     1      -7.528  -0.201 123.629  0.00  0.00    +0.000 A 
ATOM     17  C   UNL     1      -7.631   1.193 123.563  0.00  0.00    +0.000 A 
ATOM     18  C   UNL     1      -8.566   1.877 124.329  0.00  0.00    +0.000 A 
ATOM     19  C   UNL     1      -9.383   1.165 125.193  0.00  0.00    +0.000 A 
ATOM     20  C   UNL     1      -9.264  -0.215 125.269  0.00  0.00    +0.000 A 
BRANCH  18  21
ATOM     21  O   UNL     1      -8.611   3.227 124.168  0.00  0.00    +0.000 OA
BRANCH  21  22
ATOM     22  C   UNL     1      -7.346   3.883 124.044  0.00  0.00    +0.000 C 
BRANCH  22  23
ATOM     23  C   UNL     1      -7.045   4.527 125.350  0.00  0.00    +0.000 C 
ATOM     24  C   UNL     1      -5.610   4.675 125.783  0.00  0.00    +0.000 C 
ATOM     25  O   UNL     1      -6.370   5.789 125.295  0.00  0.00    +0.000 OA
ENDBRANCH  22  23
ENDBRANCH  21  22
ENDBRANCH  18  21
ENDBRANCH   2  15
TORSDOF 8
ENDMDL
MODEL 3
REMARK VINA RESULT:      -6.8      0.961      8.341
REMARK  Name = Bisphenol A diglycidyl ether
REMARK  10 active torsions:
REMARK  status: ('A' for Active; 'I' for Inactive)
REMARK    1  A    between atoms: C_1  and  C_2
REMARK    2  A    between atoms: C_2  and  C_3
REMARK    3  A    between atoms: C_2  and  C_4
REMARK    4  A    between atoms: C_2  and  C_15
REMARK    5  A    between atoms: C_7  and  O_8
REMARK    6  A    between atoms: O_8  and  C_9
REMARK    7  A    between atoms: C_9  and  C_10
REMARK    8  A    between atoms: C_18  and  O_19
REMARK    9  A    between atoms: O_19  and  C_20
REMARK   10  A    between atoms: C_20  and  C_21
REMARK                            x       y       z     vdW  Elec       q    Type
REMARK                         _______ _______ _______ _____ _____    ______ ____
ROOT
ATOM      1  C   UNL     1      -9.337  -3.378 124.254  0.00  0.00    +0.000 C 
ATOM      2  C   UNL     1      -8.031  -2.711 124.769  0.00  0.00    +0.000 C 
ATOM      3  C   UNL     1      -6.858  -3.524 124.162  0.00  0.00    +0.000 C 
ENDROOT
BRANCH   2   4
ATOM      4  C   UNL     1      -8.000  -1.242 124.278  0.00  0.00    +0.000 A 
ATOM      5  C   UNL     1      -6.914  -0.675 123.591  0.00  0.00    +0.000 A 
ATOM      6  C   UNL     1      -6.895   0.696 123.303  0.00  0.00    +0.000 A 
ATOM      7  C   UNL     1      -7.959   1.519 123.674  0.00  0.00    +0.000 A 
ATOM      8  C   UNL     1      -9.031   0.975 124.362  0.00  0.00    +0.000 A 
ATOM      9  C   UNL     1      -9.065  -0.386 124.615  0.00  0.00    +0.000 A 
BRANCH   7  10
ATOM     10  O   UNL     1      -7.869   2.832 123.311  0.00  0.00    +0.000 OA
BRANCH  10  11
ATOM     11  C   UNL     1      -6.544   3.313 123.053  0.00  0.00    +0.000 C 
BRANCH  11  12
ATOM     12  C   UNL     1      -6.460   3.701 121.617  0.00  0.00    +0.000 C 
ATOM     13  C   UNL     1      -5.230   4.380 121.065  0.00  0.00    +0.000 C 
ATOM     14  O   UNL     1      -5.477   2.985 120.855  0.00  0.00    +0.000 OA
ENDBRANCH  11  12
ENDBRANCH  10  11
ENDBRANCH   7  10
ENDBRANCH   2   4
BRANCH   2  15
ATOM     15  C   UNL     1      -8.038  -2.803 126.319  0.00  0.00    +0.000 A 
ATOM     16  C   UNL     1      -7.089  -2.132 127.112  0.00  0.00    +0.000 A 
ATOM     17  C   UNL     1      -7.026  -2.345 128.494  0.00  0.00    +0.000 A 
ATOM     18  C   UNL     1      -7.934  -3.183 129.129  0.00  0.00    +0.000 A 
ATOM     19  C   UNL     1      -8.890  -3.842 128.372  0.00  0.00    +0.000 A 
ATOM     20  C   UNL     1      -8.935  -3.643 127.000  0.00  0.00    +0.000 A 
BRANCH  18  21
ATOM     21  O   UNL     1      -7.813  -3.297 130.479  0.00  0.00    +0.000 OA
BRANCH  21  22
ATOM     22  C   UNL     1      -6.513  -3.031 131.013  0.00  0.00    +0.000 C 
BRANCH  22  23
ATOM     23  C   UNL     1      -6.687  -2.600 132.425  0.00  0.00    +0.000 C 
ATOM     24  C   UNL     1      -6.615  -1.134 132.761  0.00  0.00    +0.000 C 
ATOM     25  O   UNL     1      -7.864  -1.838 132.717  0.00  0.00    +0.000 OA
ENDBRANCH  22  23
ENDBRANCH  21  22
ENDBRANCH  18  21
ENDBRANCH   2  15
TORSDOF 8
ENDMDL
MODEL 4
REMARK VINA RESULT:      -6.8      1.717      8.081
REMARK  Name = Bisphenol A diglycidyl ether
REMARK  10 active torsions:
REMARK  status: ('A' for Active; 'I' for Inactive)
REMARK    1  A    between atoms: C_1  and  C_2
REMARK    2  A    between atoms: C_2  and  C_3
REMARK    3  A    between atoms: C_2  and  C_4
REMARK    4  A    between atoms: C_2  and  C_15
REMARK    5  A    between atoms: C_7  and  O_8
REMARK    6  A    between atoms: O_8  and  C_9
REMARK    7  A    between atoms: C_9  and  C_10
REMARK    8  A    between atoms: C_18  and  O_19
REMARK    9  A    between atoms: O_19  and  C_20
REMARK   10  A    between atoms: C_20  and  C_21
REMARK                            x       y       z     vdW  Elec       q    Type
REMARK                         _______ _______ _______ _____ _____    ______ ____
ROOT
ATOM      1  C   UNL     1      -9.356  -3.206 124.666  0.00  0.00    +0.000 C 
ATOM      2  C   UNL     1      -8.065  -2.425 125.037  0.00  0.00    +0.000 C 
ATOM      3  C   UNL     1      -6.927  -3.028 124.174  0.00  0.00    +0.000 C 
ENDROOT
BRANCH   2   4
ATOM      4  C   UNL     1      -8.280  -0.927 124.703  0.00  0.00    +0.000 A 
ATOM      5  C   UNL     1      -7.504  -0.220 123.771  0.00  0.00    +0.000 A 
ATOM      6  C   UNL     1      -7.661   1.165 123.623  0.00  0.00    +0.000 A 
ATOM      7  C   UNL     1      -8.603   1.863 124.380  0.00  0.00    +0.000 A 
ATOM      8  C   UNL     1      -9.368   1.178 125.311  0.00  0.00    +0.000 A 
ATOM      9  C   UNL     1      -9.237  -0.195 125.431  0.00  0.00    +0.000 A 
BRANCH   7  10
ATOM     10  O   UNL     1      -8.713   3.201 124.135  0.00  0.00    +0.000 OA
BRANCH  10  11
ATOM     11  C   UNL     1      -7.479   3.929 124.117  0.00  0.00    +0.000 C 
BRANCH  11  12
ATOM     12  C   UNL     1      -7.312   4.597 125.438  0.00  0.00    +0.000 C 
ATOM     13  C   UNL     1      -6.055   4.408 126.252  0.00  0.00    +0.000 C 
ATOM     14  O   UNL     1      -6.281   5.594 125.483  0.00  0.00    +0.000 OA
ENDBRANCH  11  12
ENDBRANCH  10  11
ENDBRANCH   7  10
ENDBRANCH   2   4
BRANCH   2  15
ATOM     15  C   UNL     1      -7.802  -2.647 126.551  0.00  0.00    +0.000 A 
ATOM     16  C   UNL     1      -6.619  -2.213 127.177  0.00  0.00    +0.000 A 
ATOM     17  C   UNL     1      -6.342  -2.551 128.506  0.00  0.00    +0.000 A 
ATOM     18  C   UNL     1      -7.252  -3.279 129.262  0.00  0.00    +0.000 A 
ATOM     19  C   UNL     1      -8.433  -3.704 128.673  0.00  0.00    +0.000 A 
ATOM     20  C   UNL     1      -8.694  -3.382 127.350  0.00  0.00    +0.000 A 
BRANCH  18  21
ATOM     21  O   UNL     1      -6.906  -3.527 130.554  0.00  0.00    +0.000 OA
BRANCH  21  22
ATOM     22  C   UNL     1      -5.746  -4.341 130.744  0.00  0.00    +0.000 C 
BRANCH  22  23
ATOM     23  C   UNL     1      -4.814  -3.593 131.629  0.00  0.00    +0.000 C 
ATOM     24  C   UNL     1      -3.940  -4.357 132.589  0.00  0.00    +0.000 C 
ATOM     25  O   UNL     1      -3.415  -3.782 131.384  0.00  0.00    +0.000 OA
ENDBRANCH  22  23
ENDBRANCH  21  22
ENDBRANCH  18  21
ENDBRANCH   2  15
TORSDOF 8
ENDMDL
MODEL 5
REMARK VINA RESULT:      -6.7      1.299      1.742
REMARK  Name = Bisphenol A diglycidyl ether
REMARK  10 active torsions:
REMARK  status: ('A' for Active; 'I' for Inactive)
REMARK    1  A    between atoms: C_1  and  C_2
REMARK    2  A    between atoms: C_2  and  C_3
REMARK    3  A    between atoms: C_2  and  C_4
REMARK    4  A    between atoms: C_2  and  C_15
REMARK    5  A    between atoms: C_7  and  O_8
REMARK    6  A    between atoms: O_8  and  C_9
REMARK    7  A    between atoms: C_9  and  C_10
REMARK    8  A    between atoms: C_18  and  O_19
REMARK    9  A    between atoms: O_19  and  C_20
REMARK   10  A    between atoms: C_20  and  C_21
REMARK                            x       y       z     vdW  Elec       q    Type
REMARK                         _______ _______ _______ _____ _____    ______ ____
ROOT
ATOM      1  C   UNL     1      -6.831  -3.191 124.318  0.00  0.00    +0.000 C 
ATOM      2  C   UNL     1      -8.072  -2.508 124.957  0.00  0.00    +0.000 C 
ATOM      3  C   UNL     1      -9.314  -3.231 124.376  0.00  0.00    +0.000 C 
ENDROOT
BRANCH   2   4
ATOM      4  C   UNL     1      -7.996  -2.685 126.494  0.00  0.00    +0.000 A 
ATOM      5  C   UNL     1      -7.004  -2.098 127.296  0.00  0.00    +0.000 A 
ATOM      6  C   UNL     1      -6.913  -2.415 128.658  0.00  0.00    +0.000 A 
ATOM      7  C   UNL     1      -7.815  -3.302 129.247  0.00  0.00    +0.000 A 
ATOM      8  C   UNL     1      -8.792  -3.897 128.465  0.00  0.00    +0.000 A 
ATOM      9  C   UNL     1      -8.903  -3.555 127.128  0.00  0.00    +0.000 A 
BRANCH   7  10
ATOM     10  O   UNL     1      -7.673  -3.515 130.588  0.00  0.00    +0.000 OA
BRANCH  10  11
ATOM     11  C   UNL     1      -7.343  -2.359 131.366  0.00  0.00    +0.000 C 
BRANCH  11  12
ATOM     12  C   UNL     1      -7.213  -2.775 132.790  0.00  0.00    +0.000 C 
ATOM     13  C   UNL     1      -6.744  -1.804 133.846  0.00  0.00    +0.000 C 
ATOM     14  O   UNL     1      -8.128  -2.136 133.692  0.00  0.00    +0.000 OA
ENDBRANCH  11  12
ENDBRANCH  10  11
ENDBRANCH   7  10
ENDBRANCH   2   4
BRANCH   2  15
ATOM     15  C   UNL     1      -8.046  -1.011 124.546  0.00  0.00    +0.000 A 
ATOM     16  C   UNL     1      -9.096  -0.130 124.863  0.00  0.00    +0.000 A 
ATOM     17  C   UNL     1      -9.118   1.174 124.359  0.00  0.00    +0.000 A 
ATOM     18  C   UNL     1      -8.077   1.655 123.574  0.00  0.00    +0.000 A 
ATOM     19  C   UNL     1      -7.022   0.811 123.262  0.00  0.00    +0.000 A 
ATOM     20  C   UNL     1      -7.015  -0.487 123.748  0.00  0.00    +0.000 A 
BRANCH  18  21
ATOM     21  O   UNL     1      -8.174   2.947 123.162  0.00  0.00    +0.000 OA
BRANCH  21  22
ATOM     22  C   UNL     1      -7.913   3.181 121.775  0.00  0.00    +0.000 C 
BRANCH  22  23
ATOM     23  C   UNL     1      -6.587   3.845 121.674  0.00  0.00    +0.000 C 
ATOM     24  C   UNL     1      -5.506   3.208 120.840  0.00  0.00    +0.000 C 
ATOM     25  O   UNL     1      -6.230   4.360 120.386  0.00  0.00    +0.000 OA
ENDBRANCH  22  23
ENDBRANCH  21  22
ENDBRANCH  18  21
ENDBRANCH   2  15
TORSDOF 8
ENDMDL
MODEL 6
REMARK VINA RESULT:      -6.6      4.623      7.341
REMARK  Name = Bisphenol A diglycidyl ether
REMARK  10 active torsions:
REMARK  status: ('A' for Active; 'I' for Inactive)
REMARK    1  A    between atoms: C_1  and  C_2
REMARK    2  A    between atoms: C_2  and  C_3
REMARK    3  A    between atoms: C_2  and  C_4
REMARK    4  A    between atoms: C_2  and  C_15
REMARK    5  A    between atoms: C_7  and  O_8
REMARK    6  A    between atoms: O_8  and  C_9
REMARK    7  A    between atoms: C_9  and  C_10
REMARK    8  A    between atoms: C_18  and  O_19
REMARK    9  A    between atoms: O_19  and  C_20
REMARK   10  A    between atoms: C_20  and  C_21
REMARK                            x       y       z     vdW  Elec       q    Type
REMARK                         _______ _______ _______ _____ _____    ______ ____
ROOT
ATOM      1  C   UNL     1      -7.556  -1.959 132.087  0.00  0.00    +0.000 C 
ATOM      2  C   UNL     1      -7.152  -1.039 130.902  0.00  0.00    +0.000 C 
ATOM      3  C   UNL     1      -5.617  -0.848 131.002  0.00  0.00    +0.000 C 
ENDROOT
BRANCH   2   4
ATOM      4  C   UNL     1      -7.540  -1.741 129.577  0.00  0.00    +0.000 A 
ATOM      5  C   UNL     1      -7.511  -1.107 128.324  0.00  0.00    +0.000 A 
ATOM      6  C   UNL     1      -8.009  -1.758 127.188  0.00  0.00    +0.000 A 
ATOM      7  C   UNL     1      -8.523  -3.053 127.274  0.00  0.00    +0.000 A 
ATOM      8  C   UNL     1      -8.567  -3.686 128.506  0.00  0.00    +0.000 A 
ATOM      9  C   UNL     1      -8.042  -3.055 129.621  0.00  0.00    +0.000 A 
BRANCH   7  10
ATOM     10  O   UNL     1      -8.944  -3.620 126.106  0.00  0.00    +0.000 OA
BRANCH  10  11
ATOM     11  C   UNL     1      -9.176  -2.710 125.025  0.00  0.00    +0.000 C 
BRANCH  11  12
ATOM     12  C   UNL     1      -8.368  -3.157 123.856  0.00  0.00    +0.000 C 
ATOM     13  C   UNL     1      -7.108  -2.429 123.455  0.00  0.00    +0.000 C 
ATOM     14  O   UNL     1      -7.066  -3.663 124.181  0.00  0.00    +0.000 OA
ENDBRANCH  11  12
ENDBRANCH  10  11
ENDBRANCH   7  10
ENDBRANCH   2   4
BRANCH   2  15
ATOM     15  C   UNL     1      -7.900   0.310 131.082  0.00  0.00    +0.000 A 
ATOM     16  C   UNL     1      -7.309   1.543 130.750  0.00  0.00    +0.000 A 
ATOM     17  C   UNL     1      -7.946   2.751 131.054  0.00  0.00    +0.000 A 
ATOM     18  C   UNL     1      -9.204   2.767 131.644  0.00  0.00    +0.000 A 
ATOM     19  C   UNL     1      -9.815   1.565 131.963  0.00  0.00    +0.000 A 
ATOM     20  C   UNL     1      -9.171   0.370 131.678  0.00  0.00    +0.000 A 
BRANCH  18  21
ATOM     21  O   UNL     1      -9.754   3.991 131.867  0.00  0.00    +0.000 OA
BRANCH  21  22
ATOM     22  C   UNL     1      -9.868   4.842 130.723  0.00  0.00    +0.000 C 
BRANCH  22  23
ATOM     23  C   UNL     1     -11.315   4.992 130.418  0.00  0.00    +0.000 C 
ATOM     24  C   UNL     1     -11.926   6.368 130.409  0.00  0.00    +0.000 C 
ATOM     25  O   UNL     1     -11.641   5.661 129.194  0.00  0.00    +0.000 OA
ENDBRANCH  22  23
ENDBRANCH  21  22
ENDBRANCH  18  21
ENDBRANCH   2  15
TORSDOF 8
ENDMDL
MODEL 7
REMARK VINA RESULT:      -6.6      3.913      6.292
REMARK  Name = Bisphenol A diglycidyl ether
REMARK  10 active torsions:
REMARK  status: ('A' for Active; 'I' for Inactive)
REMARK    1  A    between atoms: C_1  and  C_2
REMARK    2  A    between atoms: C_2  and  C_3
REMARK    3  A    between atoms: C_2  and  C_4
REMARK    4  A    between atoms: C_2  and  C_15
REMARK    5  A    between atoms: C_7  and  O_8
REMARK    6  A    between atoms: O_8  and  C_9
REMARK    7  A    between atoms: C_9  and  C_10
REMARK    8  A    between atoms: C_18  and  O_19
REMARK    9  A    between atoms: O_19  and  C_20
REMARK   10  A    between atoms: C_20  and  C_21
REMARK                            x       y       z     vdW  Elec       q    Type
REMARK                         _______ _______ _______ _____ _____    ______ ____
ROOT
ATOM      1  C   UNL     1      -5.422  -1.900 129.544  0.00  0.00    +0.000 C 
ATOM      2  C   UNL     1      -6.948  -2.146 129.383  0.00  0.00    +0.000 C 
ATOM      3  C   UNL     1      -7.298  -3.336 130.314  0.00  0.00    +0.000 C 
ENDROOT
BRANCH   2   4
ATOM      4  C   UNL     1      -7.703  -0.864 129.814  0.00  0.00    +0.000 A 
ATOM      5  C   UNL     1      -7.744   0.310 129.044  0.00  0.00    +0.000 A 
ATOM      6  C   UNL     1      -8.325   1.476 129.560  0.00  0.00    +0.000 A 
ATOM      7  C   UNL     1      -8.891   1.490 130.835  0.00  0.00    +0.000 A 
ATOM      8  C   UNL     1      -8.848   0.341 131.609  0.00  0.00    +0.000 A 
ATOM      9  C   UNL     1      -8.305  -0.820 131.086  0.00  0.00    +0.000 A 
BRANCH   7  10
ATOM     10  O   UNL     1      -9.471   2.659 131.232  0.00  0.00    +0.000 OA
BRANCH  10  11
ATOM     11  C   UNL     1      -8.834   3.855 130.766  0.00  0.00    +0.000 C 
BRANCH  11  12
ATOM     12  C   UNL     1      -9.877   4.906 130.601  0.00  0.00    +0.000 C 
ATOM     13  C   UNL     1      -9.565   6.212 129.914  0.00  0.00    +0.000 C 
ATOM     14  O   UNL     1     -10.268   5.160 129.245  0.00  0.00    +0.000 OA
ENDBRANCH  11  12
ENDBRANCH  10  11
ENDBRANCH   7  10
ENDBRANCH   2   4
BRANCH   2  15
ATOM     15  C   UNL     1      -7.211  -2.499 127.894  0.00  0.00    +0.000 A 
ATOM     16  C   UNL     1      -6.269  -2.231 126.884  0.00  0.00    +0.000 A 
ATOM     17  C   UNL     1      -6.586  -2.425 125.535  0.00  0.00    +0.000 A 
ATOM     18  C   UNL     1      -7.821  -2.937 125.158  0.00  0.00    +0.000 A 
ATOM     19  C   UNL     1      -8.760  -3.226 126.136  0.00  0.00    +0.000 A 
ATOM     20  C   UNL     1      -8.448  -3.014 127.470  0.00  0.00    +0.000 A 
BRANCH  18  21
ATOM     21  O   UNL     1      -8.019  -3.122 123.825  0.00  0.00    +0.000 OA
BRANCH  21  22
ATOM     22  C   UNL     1      -9.214  -2.547 123.287  0.00  0.00    +0.000 C 
BRANCH  22  23
ATOM     23  C   UNL     1      -8.946  -1.107 123.037  0.00  0.00    +0.000 C 
ATOM     24  C   UNL     1     -10.040  -0.243 122.467  0.00  0.00    +0.000 C 
ATOM     25  O   UNL     1      -9.669  -0.175 123.851  0.00  0.00    +0.000 OA
ENDBRANCH  22  23
ENDBRANCH  21  22
ENDBRANCH  18  21
ENDBRANCH   2  15
TORSDOF 8
ENDMDL
MODEL 8
REMARK VINA RESULT:      -6.5      7.211     10.979
REMARK  Name = Bisphenol A diglycidyl ether
REMARK  10 active torsions:
REMARK  status: ('A' for Active; 'I' for Inactive)
REMARK    1  A    between atoms: C_1  and  C_2
REMARK    2  A    between atoms: C_2  and  C_3
REMARK    3  A    between atoms: C_2  and  C_4
REMARK    4  A    between atoms: C_2  and  C_15
REMARK    5  A    between atoms: C_7  and  O_8
REMARK    6  A    between atoms: O_8  and  C_9
REMARK    7  A    between atoms: C_9  and  C_10
REMARK    8  A    between atoms: C_18  and  O_19
REMARK    9  A    between atoms: O_19  and  C_20
REMARK   10  A    between atoms: C_20  and  C_21
REMARK                            x       y       z     vdW  Elec       q    Type
REMARK                         _______ _______ _______ _____ _____    ______ ____
ROOT
ATOM      1  C   UNL     1      -6.933   5.703 131.964  0.00  0.00    +0.000 C 
ATOM      2  C   UNL     1      -8.318   5.173 132.425  0.00  0.00    +0.000 C 
ATOM      3  C   UNL     1      -8.332   5.275 133.972  0.00  0.00    +0.000 C 
ENDROOT
BRANCH   2   4
ATOM      4  C   UNL     1      -9.421   6.063 131.800  0.00  0.00    +0.000 A 
ATOM      5  C   UNL     1     -10.735   6.132 132.290  0.00  0.00    +0.000 A 
ATOM      6  C   UNL     1     -11.717   6.847 131.592  0.00  0.00    +0.000 A 
ATOM      7  C   UNL     1     -11.405   7.522 130.411  0.00  0.00    +0.000 A 
ATOM      8  C   UNL     1     -10.114   7.454 129.910  0.00  0.00    +0.000 A 
ATOM      9  C   UNL     1      -9.137   6.776 130.620  0.00  0.00    +0.000 A 
BRANCH   7  10
ATOM     10  O   UNL     1     -12.416   8.227 129.826  0.00  0.00    +0.000 OA
BRANCH  10  11
ATOM     11  C   UNL     1     -12.178   8.644 128.476  0.00  0.00    +0.000 C 
BRANCH  11  12
ATOM     12  C   UNL     1     -12.931   7.736 127.566  0.00  0.00    +0.000 C 
ATOM     13  C   UNL     1     -12.284   7.162 126.329  0.00  0.00    +0.000 C 
ATOM     14  O   UNL     1     -12.444   6.387 127.523  0.00  0.00    +0.000 OA
ENDBRANCH  11  12
ENDBRANCH  10  11
ENDBRANCH   7  10
ENDBRANCH   2   4
BRANCH   2  15
ATOM     15  C   UNL     1      -8.434   3.696 131.957  0.00  0.00    +0.000 A 
ATOM     16  C   UNL     1      -9.388   2.814 132.495  0.00  0.00    +0.000 A 
ATOM     17  C   UNL     1      -9.378   1.455 132.163  0.00  0.00    +0.000 A 
ATOM     18  C   UNL     1      -8.459   0.948 131.252  0.00  0.00    +0.000 A 
ATOM     19  C   UNL     1      -7.520   1.801 130.695  0.00  0.00    +0.000 A 
ATOM     20  C   UNL     1      -7.522   3.144 131.042  0.00  0.00    +0.000 A 
BRANCH  18  21
ATOM     21  O   UNL     1      -8.554  -0.379 130.969  0.00  0.00    +0.000 OA
BRANCH  21  22
ATOM     22  C   UNL     1      -7.314  -1.071 130.800  0.00  0.00    +0.000 C 
BRANCH  22  23
ATOM     23  C   UNL     1      -7.410  -1.863 129.545  0.00  0.00    +0.000 C 
ATOM     24  C   UNL     1      -7.075  -3.331 129.574  0.00  0.00    +0.000 C 
ATOM     25  O   UNL     1      -8.430  -2.868 129.504  0.00  0.00    +0.000 OA
ENDBRANCH  22  23
ENDBRANCH  21  22
ENDBRANCH  18  21
ENDBRANCH   2  15
TORSDOF 8
ENDMDL
MODEL 9
REMARK VINA RESULT:      -6.4      4.070      7.358
REMARK  Name = Bisphenol A diglycidyl ether
REMARK  10 active torsions:
REMARK  status: ('A' for Active; 'I' for Inactive)
REMARK    1  A    between atoms: C_1  and  C_2
REMARK    2  A    between atoms: C_2  and  C_3
REMARK    3  A    between atoms: C_2  and  C_4
REMARK    4  A    between atoms: C_2  and  C_15
REMARK    5  A    between atoms: C_7  and  O_8
REMARK    6  A    between atoms: O_8  and  C_9
REMARK    7  A    between atoms: C_9  and  C_10
REMARK    8  A    between atoms: C_18  and  O_19
REMARK    9  A    between atoms: O_19  and  C_20
REMARK   10  A    between atoms: C_20  and  C_21
REMARK                            x       y       z     vdW  Elec       q    Type
REMARK                         _______ _______ _______ _____ _____    ______ ____
ROOT
ATOM      1  C   UNL     1      -7.338  -3.352 130.268  0.00  0.00    +0.000 C 
ATOM      2  C   UNL     1      -6.885  -2.169 129.369  0.00  0.00    +0.000 C 
ATOM      3  C   UNL     1      -5.354  -2.029 129.571  0.00  0.00    +0.000 C 
ENDROOT
BRANCH   2   4
ATOM      4  C   UNL     1      -7.220  -2.512 127.895  0.00  0.00    +0.000 A 
ATOM      5  C   UNL     1      -6.376  -2.208 126.815  0.00  0.00    +0.000 A 
ATOM      6  C   UNL     1      -6.806  -2.419 125.498  0.00  0.00    +0.000 A 
ATOM      7  C   UNL     1      -8.069  -2.951 125.235  0.00  0.00    +0.000 A 
ATOM      8  C   UNL     1      -8.916  -3.246 126.292  0.00  0.00    +0.000 A 
ATOM      9  C   UNL     1      -8.477  -3.070 127.593  0.00  0.00    +0.000 A 
BRANCH   7  10
ATOM     10  O   UNL     1      -8.381  -3.161 123.923  0.00  0.00    +0.000 OA
BRANCH  10  11
ATOM     11  C   UNL     1      -8.301  -2.007 123.077  0.00  0.00    +0.000 C 
BRANCH  11  12
ATOM     12  C   UNL     1      -9.378  -1.059 123.478  0.00  0.00    +0.000 C 
ATOM     13  C   UNL     1      -9.310   0.401 123.101  0.00  0.00    +0.000 C 
ATOM     14  O   UNL     1     -10.143  -0.520 122.390  0.00  0.00    +0.000 OA
ENDBRANCH  11  12
ENDBRANCH  10  11
ENDBRANCH   7  10
ENDBRANCH   2   4
BRANCH   2  15
ATOM     15  C   UNL     1      -7.635  -0.898 129.852  0.00  0.00    +0.000 A 
ATOM     16  C   UNL     1      -7.681   0.280 129.085  0.00  0.00    +0.000 A 
ATOM     17  C   UNL     1      -8.238   1.454 129.603  0.00  0.00    +0.000 A 
ATOM     18  C   UNL     1      -8.811   1.476 130.869  0.00  0.00    +0.000 A 
ATOM     19  C   UNL     1      -8.794   0.322 131.637  0.00  0.00    +0.000 A 
ATOM     20  C   UNL     1      -8.223  -0.834 131.126  0.00  0.00    +0.000 A 
BRANCH  18  21
ATOM     21  O   UNL     1      -9.358   2.655 131.268  0.00  0.00    +0.000 OA
BRANCH  21  22
ATOM     22  C   UNL     1     -10.350   3.208 130.399  0.00  0.00    +0.000 C 
BRANCH  22  23
ATOM     23  C   UNL     1     -10.151   4.681 130.370  0.00  0.00    +0.000 C 
ATOM     24  C   UNL     1     -11.355   5.586 130.347  0.00  0.00    +0.000 C 
ATOM     25  O   UNL     1     -10.572   5.402 131.534  0.00  0.00    +0.000 OA
ENDBRANCH  22  23
ENDBRANCH  21  22
ENDBRANCH  18  21
ENDBRANCH   2  15
TORSDOF 8
ENDMDL
