MODEL 1
REMARK VINA RESULT:      -7.2      0.000      0.000
REMARK  Name = Bithionol
REMARK  4 active torsions:
REMARK  status: ('A' for Active; 'I' for Inactive)
REMARK    1  A    between atoms: O_1  and  C_2
REMARK    2  A    between atoms: C_3  and  S_4
REMARK    3  A    between atoms: S_4  and  C_5
REMARK    4  A    between atoms: C_6  and  O_7
REMARK                            x       y       z     vdW  Elec       q    Type
REMARK                         _______ _______ _______ _____ _____    ______ ____
ROOT
ATOM      1  S   UNL     1     -11.740   6.459 131.843  0.00  0.00    +0.000 S 
ENDROOT
BRANCH   1   3
ATOM      2  C   UNL     1      -9.977   4.492 130.987  0.00  0.00    +0.000 A 
ATOM      3  C   UNL     1     -10.115   5.842 131.380  0.00  0.00    +0.000 A 
ATOM      4  C   UNL     1      -8.961   6.634 131.399  0.00  0.00    +0.000 A 
ATOM      5  C   UNL     1      -7.723   6.113 131.020  0.00  0.00    +0.000 A 
ATOM      6 CL   UNL     1      -6.342   7.139 131.021  0.00  0.00    +0.000 Cl
ATOM      7  C   UNL     1      -7.593   4.783 130.641  0.00  0.00    +0.000 A 
ATOM      8  C   UNL     1      -8.725   3.970 130.629  0.00  0.00    +0.000 A 
ATOM      9 CL   UNL     1      -8.530   2.319 130.162  0.00  0.00    +0.000 Cl
BRANCH   2  10
ATOM     10  O   UNL     1     -11.063   3.650 130.949  0.00  0.00    +0.000 OA
ATOM     11  H   UNL     1     -10.810   2.799 131.346  0.00  0.00    +0.000 HD
ENDBRANCH   2  10
ENDBRANCH   1   3
BRANCH   1  12
ATOM     12  C   UNL     1     -12.330   7.454 130.475  0.00  0.00    +0.000 A 
ATOM     13  C   UNL     1     -12.434   6.910 129.182  0.00  0.00    +0.000 A 
ATOM     14  C   UNL     1     -12.866   7.700 128.109  0.00  0.00    +0.000 A 
ATOM     15 CL   UNL     1     -12.995   7.058 126.510  0.00  0.00    +0.000 Cl
ATOM     16  C   UNL     1     -13.207   9.036 128.310  0.00  0.00    +0.000 A 
ATOM     17  C   UNL     1     -13.096   9.581 129.586  0.00  0.00    +0.000 A 
ATOM     18 CL   UNL     1     -13.545  11.221 129.850  0.00  0.00    +0.000 Cl
ATOM     19  C   UNL     1     -12.639   8.810 130.658  0.00  0.00    +0.000 A 
BRANCH  13  20
ATOM     20  O   UNL     1     -12.113   5.596 128.945  0.00  0.00    +0.000 OA
ATOM     21  H   UNL     1     -11.322   5.570 128.379  0.00  0.00    +0.000 HD
ENDBRANCH  13  20
ENDBRANCH   1  12
TORSDOF 4
ENDMDL
MODEL 2
REMARK VINA RESULT:      -7.1      9.130     10.032
REMARK  Name = Bithionol
REMARK  4 active torsions:
REMARK  status: ('A' for Active; 'I' for Inactive)
REMARK    1  A    between atoms: O_1  and  C_2
REMARK    2  A    between atoms: C_3  and  S_4
REMARK    3  A    between atoms: S_4  and  C_5
REMARK    4  A    between atoms: C_6  and  O_7
REMARK                            x       y       z     vdW  Elec       q    Type
REMARK                         _______ _______ _______ _____ _____    ______ ____
ROOT
ATOM      1  S   UNL     1      -8.641   2.244 124.241  0.00  0.00    +0.000 S 
ENDROOT
BRANCH   1   3
ATOM      2  C   UNL     1      -9.041  -0.416 124.931  0.00  0.00    +0.000 A 
ATOM      3  C   UNL     1      -8.284   0.483 124.148  0.00  0.00    +0.000 A 
ATOM      4  C   UNL     1      -7.276  -0.051 123.337  0.00  0.00    +0.000 A 
ATOM      5  C   UNL     1      -7.044  -1.427 123.290  0.00  0.00    +0.000 A 
ATOM      6 CL   UNL     1      -5.818  -2.038 122.247  0.00  0.00    +0.000 Cl
ATOM      7  C   UNL     1      -7.786  -2.305 124.068  0.00  0.00    +0.000 A 
ATOM      8  C   UNL     1      -8.786  -1.795 124.894  0.00  0.00    +0.000 A 
ATOM      9 CL   UNL     1      -9.687  -2.910 125.857  0.00  0.00    +0.000 Cl
BRANCH   2  10
ATOM     10  O   UNL     1     -10.045   0.034 125.756  0.00  0.00    +0.000 OA
ATOM     11  H   UNL     1     -10.799  -0.575 125.688  0.00  0.00    +0.000 HD
ENDBRANCH   2  10
ENDBRANCH   1   3
BRANCH   1  12
ATOM     12  C   UNL     1      -7.922   3.002 122.785  0.00  0.00    +0.000 A 
ATOM     13  C   UNL     1      -6.580   3.422 122.782  0.00  0.00    +0.000 A 
ATOM     14  C   UNL     1      -6.030   4.042 121.653  0.00  0.00    +0.000 A 
ATOM     15 CL   UNL     1      -4.387   4.575 121.625  0.00  0.00    +0.000 Cl
ATOM     16  C   UNL     1      -6.806   4.244 120.512  0.00  0.00    +0.000 A 
ATOM     17  C   UNL     1      -8.136   3.838 120.515  0.00  0.00    +0.000 A 
ATOM     18 CL   UNL     1      -9.093   4.055 119.100  0.00  0.00    +0.000 Cl
ATOM     19  C   UNL     1      -8.703   3.245 121.646  0.00  0.00    +0.000 A 
BRANCH  13  20
ATOM     20  O   UNL     1      -5.783   3.235 123.884  0.00  0.00    +0.000 OA
ATOM     21  H   UNL     1      -4.919   2.901 123.586  0.00  0.00    +0.000 HD
ENDBRANCH  13  20
ENDBRANCH   1  12
TORSDOF 4
ENDMDL
MODEL 3
REMARK VINA RESULT:      -7.1      9.280     11.099
REMARK  Name = Bithionol
REMARK  4 active torsions:
REMARK  status: ('A' for Active; 'I' for Inactive)
REMARK    1  A    between atoms: O_1  and  C_2
REMARK    2  A    between atoms: C_3  and  S_4
REMARK    3  A    between atoms: S_4  and  C_5
REMARK    4  A    between atoms: C_6  and  O_7
REMARK                            x       y       z     vdW  Elec       q    Type
REMARK                         _______ _______ _______ _____ _____    ______ ____
ROOT
ATOM      1  S   UNL     1      -7.609   1.518 124.877  0.00  0.00    +0.000 S 
ENDROOT
BRANCH   1   3
ATOM      2  C   UNL     1      -8.263   2.724 122.463  0.00  0.00    +0.000 A 
ATOM      3  C   UNL     1      -7.256   2.533 123.434  0.00  0.00    +0.000 A 
ATOM      4  C   UNL     1      -6.016   3.145 123.214  0.00  0.00    +0.000 A 
ATOM      5  C   UNL     1      -5.793   3.934 122.084  0.00  0.00    +0.000 A 
ATOM      6 CL   UNL     1      -4.265   4.698 121.879  0.00  0.00    +0.000 Cl
ATOM      7  C   UNL     1      -6.785   4.111 121.129  0.00  0.00    +0.000 A 
ATOM      8  C   UNL     1      -8.023   3.500 121.319  0.00  0.00    +0.000 A 
ATOM      9 CL   UNL     1      -9.234   3.732 120.109  0.00  0.00    +0.000 Cl
BRANCH   2  10
ATOM     10  O   UNL     1      -9.505   2.150 122.607  0.00  0.00    +0.000 OA
ATOM     11  H   UNL     1     -10.181   2.829 122.439  0.00  0.00    +0.000 HD
ENDBRANCH   2  10
ENDBRANCH   1   3
BRANCH   1  12
ATOM     12  C   UNL     1      -7.453  -0.192 124.365  0.00  0.00    +0.000 A 
ATOM     13  C   UNL     1      -8.593  -0.960 124.067  0.00  0.00    +0.000 A 
ATOM     14  C   UNL     1      -8.469  -2.305 123.697  0.00  0.00    +0.000 A 
ATOM     15 CL   UNL     1      -9.853  -3.273 123.334  0.00  0.00    +0.000 Cl
ATOM     16  C   UNL     1      -7.211  -2.899 123.611  0.00  0.00    +0.000 A 
ATOM     17  C   UNL     1      -6.082  -2.145 123.914  0.00  0.00    +0.000 A 
ATOM     18 CL   UNL     1      -4.522  -2.861 123.780  0.00  0.00    +0.000 Cl
ATOM     19  C   UNL     1      -6.196  -0.811 124.312  0.00  0.00    +0.000 A 
BRANCH  13  20
ATOM     20  O   UNL     1      -9.849  -0.409 124.135  0.00  0.00    +0.000 OA
ATOM     21  H   UNL     1      -9.988  -0.070 125.037  0.00  0.00    +0.000 HD
ENDBRANCH  13  20
ENDBRANCH   1  12
TORSDOF 4
ENDMDL
MODEL 4
REMARK VINA RESULT:      -7.1      9.427     11.085
REMARK  Name = Bithionol
REMARK  4 active torsions:
REMARK  status: ('A' for Active; 'I' for Inactive)
REMARK    1  A    between atoms: O_1  and  C_2
REMARK    2  A    between atoms: C_3  and  S_4
REMARK    3  A    between atoms: S_4  and  C_5
REMARK    4  A    between atoms: C_6  and  O_7
REMARK                            x       y       z     vdW  Elec       q    Type
REMARK                         _______ _______ _______ _____ _____    ______ ____
ROOT
ATOM      1  S   UNL     1      -8.918   2.351 123.877  0.00  0.00    +0.000 S 
ENDROOT
BRANCH   1   3
ATOM      2  C   UNL     1      -6.855   3.349 122.310  0.00  0.00    +0.000 A 
ATOM      3  C   UNL     1      -8.236   3.062 122.371  0.00  0.00    +0.000 A 
ATOM      4  C   UNL     1      -9.012   3.360 121.245  0.00  0.00    +0.000 A 
ATOM      5  C   UNL     1      -8.435   3.901 120.095  0.00  0.00    +0.000 A 
ATOM      6 CL   UNL     1      -9.426   4.212 118.723  0.00  0.00    +0.000 Cl
ATOM      7  C   UNL     1      -7.077   4.188 120.044  0.00  0.00    +0.000 A 
ATOM      8  C   UNL     1      -6.287   3.914 121.158  0.00  0.00    +0.000 A 
ATOM      9 CL   UNL     1      -4.603   4.289 121.067  0.00  0.00    +0.000 Cl
BRANCH   2  10
ATOM     10  O   UNL     1      -6.028   3.089 123.378  0.00  0.00    +0.000 OA
ATOM     11  H   UNL     1      -5.124   3.359 123.143  0.00  0.00    +0.000 HD
ENDBRANCH   2  10
ENDBRANCH   1   3
BRANCH   1  12
ATOM     12  C   UNL     1      -8.385   0.641 123.936  0.00  0.00    +0.000 A 
ATOM     13  C   UNL     1      -9.192  -0.381 123.407  0.00  0.00    +0.000 A 
ATOM     14  C   UNL     1      -8.786  -1.721 123.482  0.00  0.00    +0.000 A 
ATOM     15 CL   UNL     1      -9.762  -2.997 122.848  0.00  0.00    +0.000 Cl
ATOM     16  C   UNL     1      -7.571  -2.056 124.077  0.00  0.00    +0.000 A 
ATOM     17  C   UNL     1      -6.775  -1.047 124.610  0.00  0.00    +0.000 A 
ATOM     18 CL   UNL     1      -5.258  -1.448 125.318  0.00  0.00    +0.000 Cl
ATOM     19  C   UNL     1      -7.183   0.288 124.566  0.00  0.00    +0.000 A 
BRANCH  13  20
ATOM     20  O   UNL     1     -10.393  -0.091 122.808  0.00  0.00    +0.000 OA
ATOM     21  H   UNL     1     -10.514  -0.692 122.052  0.00  0.00    +0.000 HD
ENDBRANCH  13  20
ENDBRANCH   1  12
TORSDOF 4
ENDMDL
MODEL 5
REMARK VINA RESULT:      -6.7      7.807     10.442
REMARK  Name = Bithionol
REMARK  4 active torsions:
REMARK  status: ('A' for Active; 'I' for Inactive)
REMARK    1  A    between atoms: O_1  and  C_2
REMARK    2  A    between atoms: C_3  and  S_4
REMARK    3  A    between atoms: S_4  and  C_5
REMARK    4  A    between atoms: C_6  and  O_7
REMARK                            x       y       z     vdW  Elec       q    Type
REMARK                         _______ _______ _______ _____ _____    ______ ____
ROOT
ATOM      1  S   UNL     1      -8.841   0.700 123.061  0.00  0.00    +0.000 S 
ENDROOT
BRANCH   1   3
ATOM      2  C   UNL     1      -8.174   2.639 124.933  0.00  0.00    +0.000 A 
ATOM      3  C   UNL     1      -7.897   2.113 123.651  0.00  0.00    +0.000 A 
ATOM      4  C   UNL     1      -6.897   2.736 122.896  0.00  0.00    +0.000 A 
ATOM      5  C   UNL     1      -6.184   3.823 123.402  0.00  0.00    +0.000 A 
ATOM      6 CL   UNL     1      -4.936   4.529 122.450  0.00  0.00    +0.000 Cl
ATOM      7  C   UNL     1      -6.466   4.340 124.660  0.00  0.00    +0.000 A 
ATOM      8  C   UNL     1      -7.468   3.747 125.425  0.00  0.00    +0.000 A 
ATOM      9 CL   UNL     1      -7.801   4.417 126.982  0.00  0.00    +0.000 Cl
BRANCH   2  10
ATOM     10  O   UNL     1      -9.146   2.085 125.732  0.00  0.00    +0.000 OA
ATOM     11  H   UNL     1      -8.750   1.359 126.244  0.00  0.00    +0.000 HD
ENDBRANCH   2  10
ENDBRANCH   1   3
BRANCH   1  12
ATOM     12  C   UNL     1      -8.112  -0.761 123.801  0.00  0.00    +0.000 A 
ATOM     13  C   UNL     1      -8.688  -1.352 124.940  0.00  0.00    +0.000 A 
ATOM     14  C   UNL     1      -8.098  -2.476 125.534  0.00  0.00    +0.000 A 
ATOM     15 CL   UNL     1      -8.780  -3.217 126.938  0.00  0.00    +0.000 Cl
ATOM     16  C   UNL     1      -6.935  -3.027 124.999  0.00  0.00    +0.000 A 
ATOM     17  C   UNL     1      -6.358  -2.438 123.879  0.00  0.00    +0.000 A 
ATOM     18 CL   UNL     1      -4.940  -3.131 123.192  0.00  0.00    +0.000 Cl
ATOM     19  C   UNL     1      -6.921  -1.301 123.295  0.00  0.00    +0.000 A 
BRANCH  13  20
ATOM     20  O   UNL     1      -9.836  -0.842 125.493  0.00  0.00    +0.000 OA
ATOM     21  H   UNL     1     -10.591  -1.370 125.178  0.00  0.00    +0.000 HD
ENDBRANCH  13  20
ENDBRANCH   1  12
TORSDOF 4
ENDMDL
MODEL 6
REMARK VINA RESULT:      -6.7      8.390      9.985
REMARK  Name = Bithionol
REMARK  4 active torsions:
REMARK  status: ('A' for Active; 'I' for Inactive)
REMARK    1  A    between atoms: O_1  and  C_2
REMARK    2  A    between atoms: C_3  and  S_4
REMARK    3  A    between atoms: S_4  and  C_5
REMARK    4  A    between atoms: C_6  and  O_7
REMARK                            x       y       z     vdW  Elec       q    Type
REMARK                         _______ _______ _______ _____ _____    ______ ____
ROOT
ATOM      1  S   UNL     1      -8.719   1.155 123.325  0.00  0.00    +0.000 S 
ENDROOT
BRANCH   1   3
ATOM      2  C   UNL     1      -8.663  -1.085 124.966  0.00  0.00    +0.000 A 
ATOM      3  C   UNL     1      -8.029  -0.403 123.904  0.00  0.00    +0.000 A 
ATOM      4  C   UNL     1      -6.877  -0.980 123.358  0.00  0.00    +0.000 A 
ATOM      5  C   UNL     1      -6.386  -2.197 123.833  0.00  0.00    +0.000 A 
ATOM      6 CL   UNL     1      -4.988  -2.885 123.101  0.00  0.00    +0.000 Cl
ATOM      7  C   UNL     1      -7.010  -2.859 124.882  0.00  0.00    +0.000 A 
ATOM      8  C   UNL     1      -8.151  -2.297 125.452  0.00  0.00    +0.000 A 
ATOM      9 CL   UNL     1      -8.900  -3.139 126.761  0.00  0.00    +0.000 Cl
BRANCH   2  10
ATOM     10  O   UNL     1      -9.797  -0.579 125.557  0.00  0.00    +0.000 OA
ATOM     11  H   UNL     1     -10.466  -1.283 125.600  0.00  0.00    +0.000 HD
ENDBRANCH   2  10
ENDBRANCH   1   3
BRANCH   1  12
ATOM     12  C   UNL     1      -7.384   2.351 123.330  0.00  0.00    +0.000 A 
ATOM     13  C   UNL     1      -6.812   2.784 124.539  0.00  0.00    +0.000 A 
ATOM     14  C   UNL     1      -5.790   3.743 124.541  0.00  0.00    +0.000 A 
ATOM     15 CL   UNL     1      -5.075   4.298 126.012  0.00  0.00    +0.000 Cl
ATOM     16  C   UNL     1      -5.322   4.275 123.340  0.00  0.00    +0.000 A 
ATOM     17  C   UNL     1      -5.893   3.856 122.143  0.00  0.00    +0.000 A 
ATOM     18 CL   UNL     1      -5.299   4.483 120.654  0.00  0.00    +0.000 Cl
ATOM     19  C   UNL     1      -6.932   2.922 122.131  0.00  0.00    +0.000 A 
BRANCH  13  20
ATOM     20  O   UNL     1      -7.243   2.280 125.741  0.00  0.00    +0.000 OA
ATOM     21  H   UNL     1      -6.591   1.627 126.052  0.00  0.00    +0.000 HD
ENDBRANCH  13  20
ENDBRANCH   1  12
TORSDOF 4
ENDMDL
MODEL 7
REMARK VINA RESULT:      -6.4      8.397     10.444
REMARK  Name = Bithionol
REMARK  4 active torsions:
REMARK  status: ('A' for Active; 'I' for Inactive)
REMARK    1  A    between atoms: O_1  and  C_2
REMARK    2  A    between atoms: C_3  and  S_4
REMARK    3  A    between atoms: S_4  and  C_5
REMARK    4  A    between atoms: C_6  and  O_7
REMARK                            x       y       z     vdW  Elec       q    Type
REMARK                         _______ _______ _______ _____ _____    ______ ____
ROOT
ATOM      1  S   UNL     1      -7.126   0.072 126.952  0.00  0.00    +0.000 S 
ENDROOT
BRANCH   1   3
ATOM      2  C   UNL     1      -4.905   1.729 127.123  0.00  0.00    +0.000 A 
ATOM      3  C   UNL     1      -6.088   1.438 126.409  0.00  0.00    +0.000 A 
ATOM      4  C   UNL     1      -6.399   2.246 125.309  0.00  0.00    +0.000 A 
ATOM      5  C   UNL     1      -5.555   3.287 124.920  0.00  0.00    +0.000 A 
ATOM      6 CL   UNL     1      -5.961   4.226 123.536  0.00  0.00    +0.000 Cl
ATOM      7  C   UNL     1      -4.397   3.573 125.630  0.00  0.00    +0.000 A 
ATOM      8  C   UNL     1      -4.074   2.792 126.738  0.00  0.00    +0.000 A 
ATOM      9 CL   UNL     1      -2.631   3.177 127.607  0.00  0.00    +0.000 Cl
BRANCH   2  10
ATOM     10  O   UNL     1      -4.536   0.984 128.218  0.00  0.00    +0.000 OA
ATOM     11  H   UNL     1      -4.820   1.451 129.022  0.00  0.00    +0.000 HD
ENDBRANCH   2  10
ENDBRANCH   1   3
BRANCH   1  12
ATOM     12  C   UNL     1      -7.093  -1.159 125.650  0.00  0.00    +0.000 A 
ATOM     13  C   UNL     1      -8.288  -1.683 125.126  0.00  0.00    +0.000 A 
ATOM     14  C   UNL     1      -8.257  -2.668 124.130  0.00  0.00    +0.000 A 
ATOM     15 CL   UNL     1      -9.710  -3.334 123.474  0.00  0.00    +0.000 Cl
ATOM     16  C   UNL     1      -7.039  -3.137 123.640  0.00  0.00    +0.000 A 
ATOM     17  C   UNL     1      -5.855  -2.628 124.164  0.00  0.00    +0.000 A 
ATOM     18 CL   UNL     1      -4.347  -3.178 123.543  0.00  0.00    +0.000 Cl
ATOM     19  C   UNL     1      -5.874  -1.667 125.177  0.00  0.00    +0.000 A 
BRANCH  13  20
ATOM     20  O   UNL     1      -9.506  -1.242 125.578  0.00  0.00    +0.000 OA
ATOM     21  H   UNL     1      -9.452  -0.281 125.725  0.00  0.00    +0.000 HD
ENDBRANCH  13  20
ENDBRANCH   1  12
TORSDOF 4
ENDMDL
MODEL 8
REMARK VINA RESULT:      -6.4      8.394     10.194
REMARK  Name = Bithionol
REMARK  4 active torsions:
REMARK  status: ('A' for Active; 'I' for Inactive)
REMARK    1  A    between atoms: O_1  and  C_2
REMARK    2  A    between atoms: C_3  and  S_4
REMARK    3  A    between atoms: S_4  and  C_5
REMARK    4  A    between atoms: C_6  and  O_7
REMARK                            x       y       z     vdW  Elec       q    Type
REMARK                         _______ _______ _______ _____ _____    ______ ____
ROOT
ATOM      1  S   UNL     1      -7.082   0.074 126.968  0.00  0.00    +0.000 S 
ENDROOT
BRANCH   1   3
ATOM      2  C   UNL     1      -8.228  -1.671 125.136  0.00  0.00    +0.000 A 
ATOM      3  C   UNL     1      -7.019  -1.171 125.670  0.00  0.00    +0.000 A 
ATOM      4  C   UNL     1      -5.822  -1.685 125.160  0.00  0.00    +0.000 A 
ATOM      5  C   UNL     1      -5.824  -2.641 124.144  0.00  0.00    +0.000 A 
ATOM      6 CL   UNL     1      -4.324  -3.213 123.522  0.00  0.00    +0.000 Cl
ATOM      7  C   UNL     1      -7.015  -3.135 123.628  0.00  0.00    +0.000 A 
ATOM      8  C   UNL     1      -8.220  -2.649 124.131  0.00  0.00    +0.000 A 
ATOM      9 CL   UNL     1      -9.686  -3.287 123.476  0.00  0.00    +0.000 Cl
BRANCH   2  10
ATOM     10  O   UNL     1      -9.444  -1.218 125.590  0.00  0.00    +0.000 OA
ATOM     11  H   UNL     1     -10.144  -1.599 125.033  0.00  0.00    +0.000 HD
ENDBRANCH   2  10
ENDBRANCH   1   3
BRANCH   1  12
ATOM     12  C   UNL     1      -6.022   1.423 126.451  0.00  0.00    +0.000 A 
ATOM     13  C   UNL     1      -4.847   1.726 127.162  0.00  0.00    +0.000 A 
ATOM     14  C   UNL     1      -4.036   2.801 126.774  0.00  0.00    +0.000 A 
ATOM     15 CL   UNL     1      -2.592   3.200 127.634  0.00  0.00    +0.000 Cl
ATOM     16  C   UNL     1      -4.381   3.580 125.670  0.00  0.00    +0.000 A 
ATOM     17  C   UNL     1      -5.548   3.289 124.971  0.00  0.00    +0.000 A 
ATOM     18 CL   UNL     1      -5.965   4.227 123.589  0.00  0.00    +0.000 Cl
ATOM     19  C   UNL     1      -6.378   2.238 125.367  0.00  0.00    +0.000 A 
BRANCH  13  20
ATOM     20  O   UNL     1      -4.471   0.978 128.250  0.00  0.00    +0.000 OA
ATOM     21  H   UNL     1      -5.259   0.525 128.600  0.00  0.00    +0.000 HD
ENDBRANCH  13  20
ENDBRANCH   1  12
TORSDOF 4
ENDMDL
MODEL 9
REMARK VINA RESULT:      -6.4      8.296      9.920
REMARK  Name = Bithionol
REMARK  4 active torsions:
REMARK  status: ('A' for Active; 'I' for Inactive)
REMARK    1  A    between atoms: O_1  and  C_2
REMARK    2  A    between atoms: C_3  and  S_4
REMARK    3  A    between atoms: S_4  and  C_5
REMARK    4  A    between atoms: C_6  and  O_7
REMARK                            x       y       z     vdW  Elec       q    Type
REMARK                         _______ _______ _______ _____ _____    ______ ____
ROOT
ATOM      1  S   UNL     1      -9.398   1.907 124.957  0.00  0.00    +0.000 S 
ENDROOT
BRANCH   1   3
ATOM      2  C   UNL     1      -7.918   2.952 122.853  0.00  0.00    +0.000 A 
ATOM      3  C   UNL     1      -7.943   2.684 124.240  0.00  0.00    +0.000 A 
ATOM      4  C   UNL     1      -6.814   3.035 124.990  0.00  0.00    +0.000 A 
ATOM      5  C   UNL     1      -5.713   3.647 124.390  0.00  0.00    +0.000 A 
ATOM      6 CL   UNL     1      -4.365   4.095 125.362  0.00  0.00    +0.000 Cl
ATOM      7  C   UNL     1      -5.692   3.901 123.024  0.00  0.00    +0.000 A 
ATOM      8  C   UNL     1      -6.798   3.547 122.255  0.00  0.00    +0.000 A 
ATOM      9 CL   UNL     1      -6.739   3.868 120.558  0.00  0.00    +0.000 Cl
BRANCH   2  10
ATOM     10  O   UNL     1      -8.987   2.631 122.050  0.00  0.00    +0.000 OA
ATOM     11  H   UNL     1      -9.175   3.387 121.467  0.00  0.00    +0.000 HD
ENDBRANCH   2  10
ENDBRANCH   1   3
BRANCH   1  12
ATOM     12  C   UNL     1      -9.002   0.175 125.194  0.00  0.00    +0.000 A 
ATOM     13  C   UNL     1      -9.234  -0.761 124.171  0.00  0.00    +0.000 A 
ATOM     14  C   UNL     1      -8.953  -2.120 124.371  0.00  0.00    +0.000 A 
ATOM     15 CL   UNL     1      -9.236  -3.292 123.133  0.00  0.00    +0.000 Cl
ATOM     16  C   UNL     1      -8.431  -2.560 125.586  0.00  0.00    +0.000 A 
ATOM     17  C   UNL     1      -8.210  -1.637 126.604  0.00  0.00    +0.000 A 
ATOM     18 CL   UNL     1      -7.536  -2.167 128.097  0.00  0.00    +0.000 Cl
ATOM     19  C   UNL     1      -8.514  -0.285 126.426  0.00  0.00    +0.000 A 
BRANCH  13  20
ATOM     20  O   UNL     1      -9.742  -0.366 122.958  0.00  0.00    +0.000 OA
ATOM     21  H   UNL     1      -9.151   0.311 122.583  0.00  0.00    +0.000 HD
ENDBRANCH  13  20
ENDBRANCH   1  12
TORSDOF 4
ENDMDL
