MODEL 1
REMARK VINA RESULT:      -8.9      0.000      0.000
REMARK  Name = Boceprevir
REMARK  18 active torsions:
REMARK  status: ('A' for Active; 'I' for Inactive)
REMARK    1  A    between atoms: C_5  and  C_6
REMARK    2  A    between atoms: N_8  and  C_9
REMARK    3  A    between atoms: C_9  and  C_10
REMARK    4  A    between atoms: C_9  and  C_15
REMARK    5  A    between atoms: C_10  and  C_11
REMARK    6  A    between atoms: C_15  and  C_17
REMARK    7  A    between atoms: C_22  and  C_23
REMARK    8  A    between atoms: C_22  and  C_24
REMARK    9  A    between atoms: C_25  and  C_27
REMARK   10  A    between atoms: C_27  and  N_28
REMARK   11  A    between atoms: C_27  and  C_36
REMARK   12  A    between atoms: N_31  and  C_32
REMARK   13  A    between atoms: C_32  and  C_33
REMARK   14  A    between atoms: C_32  and  C_34
REMARK   15  A    between atoms: C_32  and  C_35
REMARK   16  A    between atoms: C_36  and  C_37
REMARK   17  A    between atoms: C_36  and  C_38
REMARK   18  A    between atoms: C_36  and  C_39
REMARK                            x       y       z     vdW  Elec       q    Type
REMARK                         _______ _______ _______ _____ _____    ______ ____
ROOT
ATOM      1  C   UNL     1      -3.683   2.779 127.445  0.00  0.00    +0.000 C 
ATOM      2  C   UNL     1      -4.814   2.930 128.368  0.00  0.00    +0.000 C 
ATOM      3  N   UNL     1      -5.939   3.376 127.618  0.00  0.00    +0.000 N 
ATOM      4  C   UNL     1      -5.440   4.259 126.568  0.00  0.00    +0.000 C 
ATOM      5  C   UNL     1      -4.050   3.572 126.231  0.00  0.00    +0.000 C 
ATOM      6  C   UNL     1      -2.701   3.810 126.931  0.00  0.00    +0.000 C 
ATOM      7  C   UNL     1      -2.369   5.111 127.599  0.00  0.00    +0.000 C 
ATOM      8  C   UNL     1      -1.434   3.226 126.345  0.00  0.00    +0.000 C 
ATOM      9  C   UNL     1      -7.234   3.294 128.049  0.00  0.00    +0.000 C 
ATOM     10  O   UNL     1      -8.106   3.780 127.339  0.00  0.00    +0.000 OA
ENDROOT
BRANCH   4  11
ATOM     11  C   UNL     1      -6.219   4.528 125.279  0.00  0.00    +0.000 C 
ATOM     12  O   UNL     1      -6.545   5.704 125.127  0.00  0.00    +0.000 OA
ATOM     13  N   UNL     1      -6.602   3.491 124.459  0.00  0.00    +0.000 N 
ATOM     14  H   UNL     1      -6.451   2.559 124.835  0.00  0.00    +0.000 HD
BRANCH  13  15
ATOM     15  C   UNL     1      -7.007   3.412 123.040  0.00  0.00    +0.000 C 
BRANCH  15  16
ATOM     16  C   UNL     1      -8.437   2.839 122.849  0.00  0.00    +0.000 C 
ATOM     17  O   UNL     1      -9.186   3.126 121.921  0.00  0.00    +0.000 OA
BRANCH  16  18
ATOM     18  C   UNL     1      -8.952   1.806 123.869  0.00  0.00    +0.000 C 
ATOM     19  N   UNL     1     -10.270   1.843 124.238  0.00  0.00    +0.000 N 
ATOM     20  O   UNL     1      -8.202   0.968 124.353  0.00  0.00    +0.000 OA
ATOM     21  H   UNL     1     -10.959   2.499 123.906  0.00  0.00    +0.000 HD
ATOM     22  H   UNL     1     -10.584   1.116 124.868  0.00  0.00    +0.000 HD
ENDBRANCH  16  18
ENDBRANCH  15  16
BRANCH  15  23
ATOM     23  C   UNL     1      -6.007   2.560 122.220  0.00  0.00    +0.000 C 
BRANCH  23  24
ATOM     24  C   UNL     1      -5.609   3.342 120.988  0.00  0.00    +0.000 C 
ATOM     25  C   UNL     1      -6.469   4.227 120.068  0.00  0.00    +0.000 C 
ATOM     26  C   UNL     1      -5.243   5.184 119.984  0.00  0.00    +0.000 C 
ATOM     27  C   UNL     1      -4.877   4.689 121.380  0.00  0.00    +0.000 C 
ENDBRANCH  23  24
ENDBRANCH  15  23
ENDBRANCH  13  15
ENDBRANCH   4  11
BRANCH   9  28
ATOM     28  C   UNL     1      -7.763   2.620 129.332  0.00  0.00    +0.000 C 
BRANCH  28  29
ATOM     29  N   UNL     1      -9.157   3.113 129.551  0.00  0.00    +0.000 N 
ATOM     30  C   UNL     1      -9.395   4.109 130.432  0.00  0.00    +0.000 C 
ATOM     31  O   UNL     1      -8.511   4.467 131.209  0.00  0.00    +0.000 OA
ATOM     32  N   UNL     1     -10.580   4.761 130.377  0.00  0.00    +0.000 N 
ATOM     33  H   UNL     1      -9.907   2.455 129.415  0.00  0.00    +0.000 HD
ATOM     34  H   UNL     1     -11.405   4.183 130.263  0.00  0.00    +0.000 HD
BRANCH  32  35
ATOM     35  C   UNL     1     -10.737   6.124 130.980  0.00  0.00    +0.000 C 
ATOM     36  C   UNL     1     -12.167   6.723 130.871  0.00  0.00    +0.000 C 
ATOM     37  C   UNL     1     -10.340   6.100 132.466  0.00  0.00    +0.000 C 
ATOM     38  C   UNL     1      -9.785   7.100 130.289  0.00  0.00    +0.000 C 
ENDBRANCH  32  35
ENDBRANCH  28  29
BRANCH  28  39
ATOM     39  C   UNL     1      -7.727   1.021 129.140  0.00  0.00    +0.000 C 
ATOM     40  C   UNL     1      -8.363   0.583 127.790  0.00  0.00    +0.000 C 
ATOM     41  C   UNL     1      -6.296   0.402 129.250  0.00  0.00    +0.000 C 
ATOM     42  C   UNL     1      -8.550   0.372 130.266  0.00  0.00    +0.000 C 
ENDBRANCH  28  39
ENDBRANCH   9  28
TORSDOF 10
ENDMDL
MODEL 2
REMARK VINA RESULT:      -8.9      2.931      4.581
REMARK  Name = Boceprevir
REMARK  18 active torsions:
REMARK  status: ('A' for Active; 'I' for Inactive)
REMARK    1  A    between atoms: C_5  and  C_6
REMARK    2  A    between atoms: N_8  and  C_9
REMARK    3  A    between atoms: C_9  and  C_10
REMARK    4  A    between atoms: C_9  and  C_15
REMARK    5  A    between atoms: C_10  and  C_11
REMARK    6  A    between atoms: C_15  and  C_17
REMARK    7  A    between atoms: C_22  and  C_23
REMARK    8  A    between atoms: C_22  and  C_24
REMARK    9  A    between atoms: C_25  and  C_27
REMARK   10  A    between atoms: C_27  and  N_28
REMARK   11  A    between atoms: C_27  and  C_36
REMARK   12  A    between atoms: N_31  and  C_32
REMARK   13  A    between atoms: C_32  and  C_33
REMARK   14  A    between atoms: C_32  and  C_34
REMARK   15  A    between atoms: C_32  and  C_35
REMARK   16  A    between atoms: C_36  and  C_37
REMARK   17  A    between atoms: C_36  and  C_38
REMARK   18  A    between atoms: C_36  and  C_39
REMARK                            x       y       z     vdW  Elec       q    Type
REMARK                         _______ _______ _______ _____ _____    ______ ____
ROOT
ATOM      1  C   UNL     1      -4.530   2.835 128.582  0.00  0.00    +0.000 C 
ATOM      2  C   UNL     1      -5.794   3.253 129.198  0.00  0.00    +0.000 C 
ATOM      3  N   UNL     1      -6.861   2.679 128.451  0.00  0.00    +0.000 N 
ATOM      4  C   UNL     1      -6.446   2.649 127.051  0.00  0.00    +0.000 C 
ATOM      5  C   UNL     1      -4.890   2.378 127.204  0.00  0.00    +0.000 C 
ATOM      6  C   UNL     1      -3.778   3.422 127.406  0.00  0.00    +0.000 C 
ATOM      7  C   UNL     1      -3.907   4.828 126.899  0.00  0.00    +0.000 C 
ATOM      8  C   UNL     1      -2.326   3.005 127.322  0.00  0.00    +0.000 C 
ATOM      9  C   UNL     1      -8.142   2.550 128.910  0.00  0.00    +0.000 C 
ATOM     10  O   UNL     1      -8.985   2.104 128.142  0.00  0.00    +0.000 OA
ENDROOT
BRANCH   4  11
ATOM     11  C   UNL     1      -7.050   1.680 126.034  0.00  0.00    +0.000 C 
ATOM     12  O   UNL     1      -7.537   2.229 125.047  0.00  0.00    +0.000 OA
ATOM     13  N   UNL     1      -7.128   0.333 126.304  0.00  0.00    +0.000 N 
ATOM     14  H   UNL     1      -6.886   0.064 127.254  0.00  0.00    +0.000 HD
BRANCH  13  15
ATOM     15  C   UNL     1      -7.292  -0.868 125.458  0.00  0.00    +0.000 C 
BRANCH  15  16
ATOM     16  C   UNL     1      -8.742  -1.046 124.933  0.00  0.00    +0.000 C 
ATOM     17  O   UNL     1      -9.709  -0.398 125.320  0.00  0.00    +0.000 OA
BRANCH  16  18
ATOM     18  C   UNL     1      -8.993  -2.079 123.818  0.00  0.00    +0.000 C 
ATOM     19  N   UNL     1      -8.335  -1.939 122.626  0.00  0.00    +0.000 N 
ATOM     20  O   UNL     1      -9.773  -3.009 123.983  0.00  0.00    +0.000 OA
ATOM     21  H   UNL     1      -7.685  -1.205 122.393  0.00  0.00    +0.000 HD
ATOM     22  H   UNL     1      -8.483  -2.665 121.938  0.00  0.00    +0.000 HD
ENDBRANCH  16  18
ENDBRANCH  15  16
BRANCH  15  23
ATOM     23  C   UNL     1      -6.868  -2.149 126.218  0.00  0.00    +0.000 C 
BRANCH  23  24
ATOM     24  C   UNL     1      -7.848  -2.380 127.348  0.00  0.00    +0.000 C 
ATOM     25  C   UNL     1      -8.772  -3.582 127.615  0.00  0.00    +0.000 C 
ATOM     26  C   UNL     1      -8.443  -3.392 129.125  0.00  0.00    +0.000 C 
ATOM     27  C   UNL     1      -7.100  -2.830 128.668  0.00  0.00    +0.000 C 
ENDBRANCH  23  24
ENDBRANCH  15  23
ENDBRANCH  13  15
ENDBRANCH   4  11
BRANCH   9  28
ATOM     28  C   UNL     1      -8.677   2.871 130.322  0.00  0.00    +0.000 C 
BRANCH  28  29
ATOM     29  N   UNL     1     -10.101   3.300 130.170  0.00  0.00    +0.000 N 
ATOM     30  C   UNL     1     -10.477   4.547 130.528  0.00  0.00    +0.000 C 
ATOM     31  O   UNL     1      -9.708   5.259 131.173  0.00  0.00    +0.000 OA
ATOM     32  N   UNL     1     -11.663   5.025 130.084  0.00  0.00    +0.000 N 
ATOM     33  H   UNL     1     -10.809   2.587 130.243  0.00  0.00    +0.000 HD
ATOM     34  H   UNL     1     -12.450   4.389 130.136  0.00  0.00    +0.000 HD
BRANCH  32  35
ATOM     35  C   UNL     1     -11.934   6.498 130.047  0.00  0.00    +0.000 C 
ATOM     36  C   UNL     1     -12.369   7.114 131.406  0.00  0.00    +0.000 C 
ATOM     37  C   UNL     1     -10.691   7.258 129.554  0.00  0.00    +0.000 C 
ATOM     38  C   UNL     1     -13.049   6.786 129.042  0.00  0.00    +0.000 C 
ENDBRANCH  32  35
ENDBRANCH  28  29
BRANCH  28  39
ATOM     39  C   UNL     1      -8.554   1.555 131.243  0.00  0.00    +0.000 C 
ATOM     40  C   UNL     1      -9.899   1.205 131.941  0.00  0.00    +0.000 C 
ATOM     41  C   UNL     1      -8.038   0.294 130.478  0.00  0.00    +0.000 C 
ATOM     42  C   UNL     1      -7.520   1.824 132.349  0.00  0.00    +0.000 C 
ENDBRANCH  28  39
ENDBRANCH   9  28
TORSDOF 10
ENDMDL
MODEL 3
REMARK VINA RESULT:      -8.9      2.649      3.565
REMARK  Name = Boceprevir
REMARK  18 active torsions:
REMARK  status: ('A' for Active; 'I' for Inactive)
REMARK    1  A    between atoms: C_5  and  C_6
REMARK    2  A    between atoms: N_8  and  C_9
REMARK    3  A    between atoms: C_9  and  C_10
REMARK    4  A    between atoms: C_9  and  C_15
REMARK    5  A    between atoms: C_10  and  C_11
REMARK    6  A    between atoms: C_15  and  C_17
REMARK    7  A    between atoms: C_22  and  C_23
REMARK    8  A    between atoms: C_22  and  C_24
REMARK    9  A    between atoms: C_25  and  C_27
REMARK   10  A    between atoms: C_27  and  N_28
REMARK   11  A    between atoms: C_27  and  C_36
REMARK   12  A    between atoms: N_31  and  C_32
REMARK   13  A    between atoms: C_32  and  C_33
REMARK   14  A    between atoms: C_32  and  C_34
REMARK   15  A    between atoms: C_32  and  C_35
REMARK   16  A    between atoms: C_36  and  C_37
REMARK   17  A    between atoms: C_36  and  C_38
REMARK   18  A    between atoms: C_36  and  C_39
REMARK                            x       y       z     vdW  Elec       q    Type
REMARK                         _______ _______ _______ _____ _____    ______ ____
ROOT
ATOM      1  C   UNL     1      -4.313   2.726 128.475  0.00  0.00    +0.000 C 
ATOM      2  C   UNL     1      -5.541   3.107 129.183  0.00  0.00    +0.000 C 
ATOM      3  N   UNL     1      -6.652   2.707 128.387  0.00  0.00    +0.000 N 
ATOM      4  C   UNL     1      -6.267   2.872 126.988  0.00  0.00    +0.000 C 
ATOM      5  C   UNL     1      -4.725   2.504 127.054  0.00  0.00    +0.000 C 
ATOM      6  C   UNL     1      -3.556   3.449 127.381  0.00  0.00    +0.000 C 
ATOM      7  C   UNL     1      -3.619   4.920 127.098  0.00  0.00    +0.000 C 
ATOM      8  C   UNL     1      -2.130   2.977 127.194  0.00  0.00    +0.000 C 
ATOM      9  C   UNL     1      -7.929   2.574 128.857  0.00  0.00    +0.000 C 
ATOM     10  O   UNL     1      -8.809   2.292 128.054  0.00  0.00    +0.000 OA
ENDROOT
BRANCH   4  11
ATOM     11  C   UNL     1      -6.942   2.101 125.853  0.00  0.00    +0.000 C 
ATOM     12  O   UNL     1      -7.315   2.810 124.919  0.00  0.00    +0.000 OA
ATOM     13  N   UNL     1      -7.197   0.753 125.970  0.00  0.00    +0.000 N 
ATOM     14  H   UNL     1      -7.031   0.357 126.891  0.00  0.00    +0.000 HD
BRANCH  13  15
ATOM     15  C   UNL     1      -7.472  -0.320 124.992  0.00  0.00    +0.000 C 
BRANCH  15  16
ATOM     16  C   UNL     1      -8.977  -0.442 124.633  0.00  0.00    +0.000 C 
ATOM     17  O   UNL     1      -9.828  -0.953 125.354  0.00  0.00    +0.000 OA
BRANCH  16  18
ATOM     18  C   UNL     1      -9.459   0.149 123.295  0.00  0.00    +0.000 C 
ATOM     19  N   UNL     1      -9.110   1.433 122.976  0.00  0.00    +0.000 N 
ATOM     20  O   UNL     1     -10.151  -0.507 122.527  0.00  0.00    +0.000 OA
ATOM     21  H   UNL     1      -8.556   2.053 123.545  0.00  0.00    +0.000 HD
ATOM     22  H   UNL     1      -9.399   1.769 122.067  0.00  0.00    +0.000 HD
ENDBRANCH  16  18
ENDBRANCH  15  16
BRANCH  15  23
ATOM     23  C   UNL     1      -6.961  -1.688 125.507  0.00  0.00    +0.000 C 
BRANCH  23  24
ATOM     24  C   UNL     1      -5.750  -2.085 124.692  0.00  0.00    +0.000 C 
ATOM     25  C   UNL     1      -5.120  -3.473 124.483  0.00  0.00    +0.000 C 
ATOM     26  C   UNL     1      -4.865  -3.043 123.009  0.00  0.00    +0.000 C 
ATOM     27  C   UNL     1      -6.099  -2.157 123.150  0.00  0.00    +0.000 C 
ENDBRANCH  23  24
ENDBRANCH  15  23
ENDBRANCH  13  15
ENDBRANCH   4  11
BRANCH   9  28
ATOM     28  C   UNL     1      -8.417   2.701 130.315  0.00  0.00    +0.000 C 
BRANCH  28  29
ATOM     29  N   UNL     1      -9.847   3.134 130.268  0.00  0.00    +0.000 N 
ATOM     30  C   UNL     1     -10.184   4.403 130.586  0.00  0.00    +0.000 C 
ATOM     31  O   UNL     1      -9.357   5.143 131.116  0.00  0.00    +0.000 OA
ATOM     32  N   UNL     1     -11.404   4.865 130.224  0.00  0.00    +0.000 N 
ATOM     33  H   UNL     1     -10.549   2.433 130.446  0.00  0.00    +0.000 HD
ATOM     34  H   UNL     1     -12.186   4.241 130.384  0.00  0.00    +0.000 HD
BRANCH  32  35
ATOM     35  C   UNL     1     -11.671   6.337 130.126  0.00  0.00    +0.000 C 
ATOM     36  C   UNL     1     -10.448   7.192 129.692  0.00  0.00    +0.000 C 
ATOM     37  C   UNL     1     -12.819   6.608 129.140  0.00  0.00    +0.000 C 
ATOM     38  C   UNL     1     -12.129   6.863 131.487  0.00  0.00    +0.000 C 
ENDBRANCH  32  35
ENDBRANCH  28  29
BRANCH  28  39
ATOM     39  C   UNL     1      -8.258   1.276 131.050  0.00  0.00    +0.000 C 
ATOM     40  C   UNL     1      -9.534   0.886 131.847  0.00  0.00    +0.000 C 
ATOM     41  C   UNL     1      -7.887   0.105 130.085  0.00  0.00    +0.000 C 
ATOM     42  C   UNL     1      -7.099   1.369 132.057  0.00  0.00    +0.000 C 
ENDBRANCH  28  39
ENDBRANCH   9  28
TORSDOF 10
ENDMDL
MODEL 4
REMARK VINA RESULT:      -8.8      2.519      4.016
REMARK  Name = Boceprevir
REMARK  18 active torsions:
REMARK  status: ('A' for Active; 'I' for Inactive)
REMARK    1  A    between atoms: C_5  and  C_6
REMARK    2  A    between atoms: N_8  and  C_9
REMARK    3  A    between atoms: C_9  and  C_10
REMARK    4  A    between atoms: C_9  and  C_15
REMARK    5  A    between atoms: C_10  and  C_11
REMARK    6  A    between atoms: C_15  and  C_17
REMARK    7  A    between atoms: C_22  and  C_23
REMARK    8  A    between atoms: C_22  and  C_24
REMARK    9  A    between atoms: C_25  and  C_27
REMARK   10  A    between atoms: C_27  and  N_28
REMARK   11  A    between atoms: C_27  and  C_36
REMARK   12  A    between atoms: N_31  and  C_32
REMARK   13  A    between atoms: C_32  and  C_33
REMARK   14  A    between atoms: C_32  and  C_34
REMARK   15  A    between atoms: C_32  and  C_35
REMARK   16  A    between atoms: C_36  and  C_37
REMARK   17  A    between atoms: C_36  and  C_38
REMARK   18  A    between atoms: C_36  and  C_39
REMARK                            x       y       z     vdW  Elec       q    Type
REMARK                         _______ _______ _______ _____ _____    ______ ____
ROOT
ATOM      1  C   UNL     1      -4.189   2.946 128.677  0.00  0.00    +0.000 C 
ATOM      2  C   UNL     1      -5.494   3.299 129.248  0.00  0.00    +0.000 C 
ATOM      3  N   UNL     1      -6.460   2.385 128.740  0.00  0.00    +0.000 N 
ATOM      4  C   UNL     1      -6.074   2.060 127.370  0.00  0.00    +0.000 C 
ATOM      5  C   UNL     1      -4.492   2.095 127.486  0.00  0.00    +0.000 C 
ATOM      6  C   UNL     1      -3.575   3.322 127.346  0.00  0.00    +0.000 C 
ATOM      7  C   UNL     1      -3.955   4.508 126.510  0.00  0.00    +0.000 C 
ATOM      8  C   UNL     1      -2.074   3.138 127.277  0.00  0.00    +0.000 C 
ATOM      9  C   UNL     1      -7.690   2.173 129.298  0.00  0.00    +0.000 C 
ATOM     10  O   UNL     1      -8.458   1.412 128.723  0.00  0.00    +0.000 OA
ENDROOT
BRANCH   4  11
ATOM     11  C   UNL     1      -6.521   0.776 126.671  0.00  0.00    +0.000 C 
ATOM     12  O   UNL     1      -6.013  -0.247 127.127  0.00  0.00    +0.000 OA
ATOM     13  N   UNL     1      -7.326   0.825 125.555  0.00  0.00    +0.000 N 
ATOM     14  H   UNL     1      -7.479   1.752 125.168  0.00  0.00    +0.000 HD
BRANCH  13  15
ATOM     15  C   UNL     1      -8.205  -0.159 124.889  0.00  0.00    +0.000 C 
BRANCH  15  16
ATOM     16  C   UNL     1      -9.164   0.487 123.854  0.00  0.00    +0.000 C 
ATOM     17  O   UNL     1      -9.939  -0.136 123.135  0.00  0.00    +0.000 OA
BRANCH  16  18
ATOM     18  C   UNL     1      -9.184   2.023 123.737  0.00  0.00    +0.000 C 
ATOM     19  N   UNL     1      -9.038   2.593 122.501  0.00  0.00    +0.000 N 
ATOM     20  O   UNL     1      -9.320   2.731 124.727  0.00  0.00    +0.000 OA
ATOM     21  H   UNL     1      -8.910   2.097 121.633  0.00  0.00    +0.000 HD
ATOM     22  H   UNL     1      -9.110   3.601 122.455  0.00  0.00    +0.000 HD
ENDBRANCH  16  18
ENDBRANCH  15  16
BRANCH  15  23
ATOM     23  C   UNL     1      -9.038  -0.953 125.925  0.00  0.00    +0.000 C 
BRANCH  23  24
ATOM     24  C   UNL     1      -8.859  -2.430 125.652  0.00  0.00    +0.000 C 
ATOM     25  C   UNL     1      -9.361  -3.278 124.470  0.00  0.00    +0.000 C 
ATOM     26  C   UNL     1      -8.002  -4.033 124.542  0.00  0.00    +0.000 C 
ATOM     27  C   UNL     1      -7.413  -2.734 125.085  0.00  0.00    +0.000 C 
ENDBRANCH  23  24
ENDBRANCH  15  23
ENDBRANCH  13  15
ENDBRANCH   4  11
BRANCH   9  28
ATOM     28  C   UNL     1      -8.244   2.758 130.615  0.00  0.00    +0.000 C 
BRANCH  28  29
ATOM     29  N   UNL     1      -9.667   3.141 130.366  0.00  0.00    +0.000 N 
ATOM     30  C   UNL     1     -10.112   4.368 130.713  0.00  0.00    +0.000 C 
ATOM     31  O   UNL     1      -9.418   5.096 131.421  0.00  0.00    +0.000 OA
ATOM     32  N   UNL     1     -11.280   4.812 130.190  0.00  0.00    +0.000 N 
ATOM     33  H   UNL     1     -10.353   2.403 130.377  0.00  0.00    +0.000 HD
ATOM     34  H   UNL     1     -12.045   4.149 130.176  0.00  0.00    +0.000 HD
BRANCH  32  35
ATOM     35  C   UNL     1     -11.598   6.276 130.154  0.00  0.00    +0.000 C 
ATOM     36  C   UNL     1     -10.410   7.191 129.749  0.00  0.00    +0.000 C 
ATOM     37  C   UNL     1     -12.762   6.546 129.186  0.00  0.00    +0.000 C 
ATOM     38  C   UNL     1     -12.066   6.730 131.537  0.00  0.00    +0.000 C 
ENDBRANCH  32  35
ENDBRANCH  28  29
BRANCH  28  39
ATOM     39  C   UNL     1      -8.127   1.647 131.775  0.00  0.00    +0.000 C 
ATOM     40  C   UNL     1      -9.382   0.731 131.832  0.00  0.00    +0.000 C 
ATOM     41  C   UNL     1      -6.851   0.751 131.666  0.00  0.00    +0.000 C 
ATOM     42  C   UNL     1      -8.020   2.362 133.132  0.00  0.00    +0.000 C 
ENDBRANCH  28  39
ENDBRANCH   9  28
TORSDOF 10
ENDMDL
MODEL 5
REMARK VINA RESULT:      -8.6      3.188      4.934
REMARK  Name = Boceprevir
REMARK  18 active torsions:
REMARK  status: ('A' for Active; 'I' for Inactive)
REMARK    1  A    between atoms: C_5  and  C_6
REMARK    2  A    between atoms: N_8  and  C_9
REMARK    3  A    between atoms: C_9  and  C_10
REMARK    4  A    between atoms: C_9  and  C_15
REMARK    5  A    between atoms: C_10  and  C_11
REMARK    6  A    between atoms: C_15  and  C_17
REMARK    7  A    between atoms: C_22  and  C_23
REMARK    8  A    between atoms: C_22  and  C_24
REMARK    9  A    between atoms: C_25  and  C_27
REMARK   10  A    between atoms: C_27  and  N_28
REMARK   11  A    between atoms: C_27  and  C_36
REMARK   12  A    between atoms: N_31  and  C_32
REMARK   13  A    between atoms: C_32  and  C_33
REMARK   14  A    between atoms: C_32  and  C_34
REMARK   15  A    between atoms: C_32  and  C_35
REMARK   16  A    between atoms: C_36  and  C_37
REMARK   17  A    between atoms: C_36  and  C_38
REMARK   18  A    between atoms: C_36  and  C_39
REMARK                            x       y       z     vdW  Elec       q    Type
REMARK                         _______ _______ _______ _____ _____    ______ ____
ROOT
ATOM      1  C   UNL     1      -5.246   3.333 128.751  0.00  0.00    +0.000 C 
ATOM      2  C   UNL     1      -6.422   3.914 129.410  0.00  0.00    +0.000 C 
ATOM      3  N   UNL     1      -7.564   3.159 129.020  0.00  0.00    +0.000 N 
ATOM      4  C   UNL     1      -7.356   2.738 127.637  0.00  0.00    +0.000 C 
ATOM      5  C   UNL     1      -5.786   2.511 127.624  0.00  0.00    +0.000 C 
ATOM      6  C   UNL     1      -4.696   3.564 127.359  0.00  0.00    +0.000 C 
ATOM      7  C   UNL     1      -4.948   4.773 126.509  0.00  0.00    +0.000 C 
ATOM      8  C   UNL     1      -3.257   3.132 127.177  0.00  0.00    +0.000 C 
ATOM      9  C   UNL     1      -8.759   3.171 129.683  0.00  0.00    +0.000 C 
ATOM     10  O   UNL     1      -9.688   2.533 129.204  0.00  0.00    +0.000 OA
ENDROOT
BRANCH   4  11
ATOM     11  C   UNL     1      -8.066   1.527 127.030  0.00  0.00    +0.000 C 
ATOM     12  O   UNL     1      -8.881   1.811 126.154  0.00  0.00    +0.000 OA
ATOM     13  N   UNL     1      -7.866   0.264 127.541  0.00  0.00    +0.000 N 
ATOM     14  H   UNL     1      -7.336   0.223 128.408  0.00  0.00    +0.000 HD
BRANCH  13  15
ATOM     15  C   UNL     1      -8.076  -1.097 127.004  0.00  0.00    +0.000 C 
BRANCH  15  16
ATOM     16  C   UNL     1      -7.319  -2.189 127.807  0.00  0.00    +0.000 C 
ATOM     17  O   UNL     1      -6.099  -2.308 127.845  0.00  0.00    +0.000 OA
BRANCH  16  18
ATOM     18  C   UNL     1      -8.144  -3.179 128.651  0.00  0.00    +0.000 C 
ATOM     19  N   UNL     1      -7.889  -3.275 129.992  0.00  0.00    +0.000 N 
ATOM     20  O   UNL     1      -9.010  -3.878 128.139  0.00  0.00    +0.000 OA
ATOM     21  H   UNL     1      -7.193  -2.753 130.500  0.00  0.00    +0.000 HD
ATOM     22  H   UNL     1      -8.486  -3.896 130.524  0.00  0.00    +0.000 HD
ENDBRANCH  16  18
ENDBRANCH  15  16
BRANCH  15  23
ATOM     23  C   UNL     1      -7.656  -1.180 125.516  0.00  0.00    +0.000 C 
BRANCH  23  24
ATOM     24  C   UNL     1      -8.782  -1.822 124.736  0.00  0.00    +0.000 C 
ATOM     25  C   UNL     1      -9.047  -1.827 123.219  0.00  0.00    +0.000 C 
ATOM     26  C   UNL     1      -9.514  -3.302 123.391  0.00  0.00    +0.000 C 
ATOM     27  C   UNL     1      -8.543  -3.377 124.566  0.00  0.00    +0.000 C 
ENDBRANCH  23  24
ENDBRANCH  15  23
ENDBRANCH  13  15
ENDBRANCH   4  11
BRANCH   9  28
ATOM     28  C   UNL     1      -9.094   3.876 131.014  0.00  0.00    +0.000 C 
BRANCH  28  29
ATOM     29  N   UNL     1     -10.497   4.383 130.907  0.00  0.00    +0.000 N 
ATOM     30  C   UNL     1     -10.736   5.629 130.444  0.00  0.00    +0.000 C 
ATOM     31  O   UNL     1      -9.807   6.424 130.310  0.00  0.00    +0.000 OA
ATOM     32  N   UNL     1     -11.990   5.948 130.042  0.00  0.00    +0.000 N 
ATOM     33  H   UNL     1     -11.171   4.017 131.560  0.00  0.00    +0.000 HD
ATOM     34  H   UNL     1     -12.744   5.643 130.646  0.00  0.00    +0.000 HD
BRANCH  32  35
ATOM     35  C   UNL     1     -12.231   7.104 129.120  0.00  0.00    +0.000 C 
ATOM     36  C   UNL     1     -11.097   7.362 128.089  0.00  0.00    +0.000 C 
ATOM     37  C   UNL     1     -13.546   6.906 128.347  0.00  0.00    +0.000 C 
ATOM     38  C   UNL     1     -12.395   8.384 129.940  0.00  0.00    +0.000 C 
ENDBRANCH  32  35
ENDBRANCH  28  29
BRANCH  28  39
ATOM     39  C   UNL     1      -8.940   2.822 132.222  0.00  0.00    +0.000 C 
ATOM     40  C   UNL     1      -9.958   1.653 132.108  0.00  0.00    +0.000 C 
ATOM     41  C   UNL     1      -7.501   2.228 132.362  0.00  0.00    +0.000 C 
ATOM     42  C   UNL     1      -9.222   3.548 133.548  0.00  0.00    +0.000 C 
ENDBRANCH  28  39
ENDBRANCH   9  28
TORSDOF 10
ENDMDL
MODEL 6
REMARK VINA RESULT:      -8.5      2.634      7.515
REMARK  Name = Boceprevir
REMARK  18 active torsions:
REMARK  status: ('A' for Active; 'I' for Inactive)
REMARK    1  A    between atoms: C_5  and  C_6
REMARK    2  A    between atoms: N_8  and  C_9
REMARK    3  A    between atoms: C_9  and  C_10
REMARK    4  A    between atoms: C_9  and  C_15
REMARK    5  A    between atoms: C_10  and  C_11
REMARK    6  A    between atoms: C_15  and  C_17
REMARK    7  A    between atoms: C_22  and  C_23
REMARK    8  A    between atoms: C_22  and  C_24
REMARK    9  A    between atoms: C_25  and  C_27
REMARK   10  A    between atoms: C_27  and  N_28
REMARK   11  A    between atoms: C_27  and  C_36
REMARK   12  A    between atoms: N_31  and  C_32
REMARK   13  A    between atoms: C_32  and  C_33
REMARK   14  A    between atoms: C_32  and  C_34
REMARK   15  A    between atoms: C_32  and  C_35
REMARK   16  A    between atoms: C_36  and  C_37
REMARK   17  A    between atoms: C_36  and  C_38
REMARK   18  A    between atoms: C_36  and  C_39
REMARK                            x       y       z     vdW  Elec       q    Type
REMARK                         _______ _______ _______ _____ _____    ______ ____
ROOT
ATOM      1  C   UNL     1      -4.586   4.726 128.462  0.00  0.00    +0.000 C 
ATOM      2  C   UNL     1      -5.185   3.598 127.738  0.00  0.00    +0.000 C 
ATOM      3  N   UNL     1      -6.568   3.546 128.069  0.00  0.00    +0.000 N 
ATOM      4  C   UNL     1      -6.700   3.964 129.462  0.00  0.00    +0.000 C 
ATOM      5  C   UNL     1      -5.548   5.050 129.561  0.00  0.00    +0.000 C 
ATOM      6  C   UNL     1      -4.063   4.806 129.880  0.00  0.00    +0.000 C 
ATOM      7  C   UNL     1      -3.609   3.643 130.712  0.00  0.00    +0.000 C 
ATOM      8  C   UNL     1      -3.144   5.979 130.142  0.00  0.00    +0.000 C 
ATOM      9  C   UNL     1      -7.510   2.873 127.341  0.00  0.00    +0.000 C 
ATOM     10  O   UNL     1      -8.656   2.846 127.771  0.00  0.00    +0.000 OA
ENDROOT
BRANCH   4  11
ATOM     11  C   UNL     1      -8.002   4.526 130.033  0.00  0.00    +0.000 C 
ATOM     12  O   UNL     1      -8.259   4.137 131.172  0.00  0.00    +0.000 OA
ATOM     13  N   UNL     1      -8.839   5.295 129.256  0.00  0.00    +0.000 N 
ATOM     14  H   UNL     1      -8.596   5.341 128.270  0.00  0.00    +0.000 HD
BRANCH  13  15
ATOM     15  C   UNL     1      -9.918   6.255 129.565  0.00  0.00    +0.000 C 
BRANCH  15  16
ATOM     16  C   UNL     1     -11.109   5.606 130.319  0.00  0.00    +0.000 C 
ATOM     17  O   UNL     1     -11.783   4.674 129.891  0.00  0.00    +0.000 OA
BRANCH  16  18
ATOM     18  C   UNL     1     -11.458   6.133 131.724  0.00  0.00    +0.000 C 
ATOM     19  N   UNL     1     -10.593   5.887 132.756  0.00  0.00    +0.000 N 
ATOM     20  O   UNL     1     -12.494   6.754 131.927  0.00  0.00    +0.000 OA
ATOM     21  H   UNL     1      -9.726   5.377 132.691  0.00  0.00    +0.000 HD
ATOM     22  H   UNL     1     -10.828   6.293 133.652  0.00  0.00    +0.000 HD
ENDBRANCH  16  18
ENDBRANCH  15  16
BRANCH  15  23
ATOM     23  C   UNL     1     -10.446   6.935 128.277  0.00  0.00    +0.000 C 
BRANCH  23  24
ATOM     24  C   UNL     1     -11.872   7.377 128.519  0.00  0.00    +0.000 C 
ATOM     25  C   UNL     1     -12.480   8.791 128.484  0.00  0.00    +0.000 C 
ATOM     26  C   UNL     1     -13.733   8.144 127.823  0.00  0.00    +0.000 C 
ATOM     27  C   UNL     1     -12.779   7.099 127.253  0.00  0.00    +0.000 C 
ENDBRANCH  23  24
ENDBRANCH  15  23
ENDBRANCH  13  15
ENDBRANCH   4  11
BRANCH   9  28
ATOM     28  C   UNL     1      -7.321   2.149 125.991  0.00  0.00    +0.000 C 
BRANCH  28  29
ATOM     29  N   UNL     1      -8.358   1.075 125.915  0.00  0.00    +0.000 N 
ATOM     30  C   UNL     1      -8.040  -0.144 125.427  0.00  0.00    +0.000 C 
ATOM     31  O   UNL     1      -6.967  -0.314 124.850  0.00  0.00    +0.000 OA
ATOM     32  N   UNL     1      -8.874  -1.183 125.669  0.00  0.00    +0.000 N 
ATOM     33  H   UNL     1      -9.315   1.365 125.792  0.00  0.00    +0.000 HD
ATOM     34  H   UNL     1      -9.864  -1.001 125.550  0.00  0.00    +0.000 HD
BRANCH  32  35
ATOM     35  C   UNL     1      -8.389  -2.597 125.571  0.00  0.00    +0.000 C 
ATOM     36  C   UNL     1      -6.844  -2.761 125.635  0.00  0.00    +0.000 C 
ATOM     37  C   UNL     1      -9.008  -3.454 126.688  0.00  0.00    +0.000 C 
ATOM     38  C   UNL     1      -8.853  -3.204 124.247  0.00  0.00    +0.000 C 
ENDBRANCH  32  35
ENDBRANCH  28  29
BRANCH  28  39
ATOM     39  C   UNL     1      -7.488   3.214 124.795  0.00  0.00    +0.000 C 
ATOM     40  C   UNL     1      -7.722   4.656 125.327  0.00  0.00    +0.000 C 
ATOM     41  C   UNL     1      -6.288   3.233 123.793  0.00  0.00    +0.000 C 
ATOM     42  C   UNL     1      -8.721   2.828 123.960  0.00  0.00    +0.000 C 
ENDBRANCH  28  39
ENDBRANCH   9  28
TORSDOF 10
ENDMDL
MODEL 7
REMARK VINA RESULT:      -8.4      2.743      7.622
REMARK  Name = Boceprevir
REMARK  18 active torsions:
REMARK  status: ('A' for Active; 'I' for Inactive)
REMARK    1  A    between atoms: C_5  and  C_6
REMARK    2  A    between atoms: N_8  and  C_9
REMARK    3  A    between atoms: C_9  and  C_10
REMARK    4  A    between atoms: C_9  and  C_15
REMARK    5  A    between atoms: C_10  and  C_11
REMARK    6  A    between atoms: C_15  and  C_17
REMARK    7  A    between atoms: C_22  and  C_23
REMARK    8  A    between atoms: C_22  and  C_24
REMARK    9  A    between atoms: C_25  and  C_27
REMARK   10  A    between atoms: C_27  and  N_28
REMARK   11  A    between atoms: C_27  and  C_36
REMARK   12  A    between atoms: N_31  and  C_32
REMARK   13  A    between atoms: C_32  and  C_33
REMARK   14  A    between atoms: C_32  and  C_34
REMARK   15  A    between atoms: C_32  and  C_35
REMARK   16  A    between atoms: C_36  and  C_37
REMARK   17  A    between atoms: C_36  and  C_38
REMARK   18  A    between atoms: C_36  and  C_39
REMARK                            x       y       z     vdW  Elec       q    Type
REMARK                         _______ _______ _______ _____ _____    ______ ____
ROOT
ATOM      1  C   UNL     1      -4.693   3.159 129.054  0.00  0.00    +0.000 C 
ATOM      2  C   UNL     1      -5.249   2.443 127.899  0.00  0.00    +0.000 C 
ATOM      3  N   UNL     1      -6.668   2.539 127.961  0.00  0.00    +0.000 N 
ATOM      4  C   UNL     1      -7.045   2.514 129.371  0.00  0.00    +0.000 C 
ATOM      5  C   UNL     1      -5.824   3.288 130.025  0.00  0.00    +0.000 C 
ATOM      6  C   UNL     1      -4.480   2.693 130.478  0.00  0.00    +0.000 C 
ATOM      7  C   UNL     1      -4.351   1.266 130.922  0.00  0.00    +0.000 C 
ATOM      8  C   UNL     1      -3.510   3.540 131.273  0.00  0.00    +0.000 C 
ATOM      9  C   UNL     1      -7.503   2.309 126.903  0.00  0.00    +0.000 C 
ATOM     10  O   UNL     1      -8.710   2.354 127.105  0.00  0.00    +0.000 OA
ENDROOT
BRANCH   4  11
ATOM     11  C   UNL     1      -8.366   3.092 129.881  0.00  0.00    +0.000 C 
ATOM     12  O   UNL     1      -9.163   2.244 130.279  0.00  0.00    +0.000 OA
ATOM     13  N   UNL     1      -8.638   4.436 129.766  0.00  0.00    +0.000 N 
ATOM     14  H   UNL     1      -7.972   4.969 129.212  0.00  0.00    +0.000 HD
BRANCH  13  15
ATOM     15  C   UNL     1      -9.586   5.345 130.443  0.00  0.00    +0.000 C 
BRANCH  15  16
ATOM     16  C   UNL     1     -10.705   5.865 129.502  0.00  0.00    +0.000 C 
ATOM     17  O   UNL     1     -11.892   5.570 129.599  0.00  0.00    +0.000 OA
BRANCH  16  18
ATOM     18  C   UNL     1     -10.320   6.852 128.384  0.00  0.00    +0.000 C 
ATOM     19  N   UNL     1     -10.689   8.165 128.506  0.00  0.00    +0.000 N 
ATOM     20  O   UNL     1      -9.702   6.478 127.395  0.00  0.00    +0.000 OA
ATOM     21  H   UNL     1     -11.206   8.564 129.273  0.00  0.00    +0.000 HD
ATOM     22  H   UNL     1     -10.373   8.794 127.780  0.00  0.00    +0.000 HD
ENDBRANCH  16  18
ENDBRANCH  15  16
BRANCH  15  23
ATOM     23  C   UNL     1      -8.848   6.555 131.069  0.00  0.00    +0.000 C 
BRANCH  23  24
ATOM     24  C   UNL     1      -7.367   6.250 131.099  0.00  0.00    +0.000 C 
ATOM     25  C   UNL     1      -6.166   7.200 130.948  0.00  0.00    +0.000 C 
ATOM     26  C   UNL     1      -5.460   6.346 132.041  0.00  0.00    +0.000 C 
ATOM     27  C   UNL     1      -6.856   6.052 132.583  0.00  0.00    +0.000 C 
ENDBRANCH  23  24
ENDBRANCH  15  23
ENDBRANCH  13  15
ENDBRANCH   4  11
BRANCH   9  28
ATOM     28  C   UNL     1      -7.114   2.026 125.437  0.00  0.00    +0.000 C 
BRANCH  28  29
ATOM     29  N   UNL     1      -8.134   1.083 124.882  0.00  0.00    +0.000 N 
ATOM     30  C   UNL     1      -7.790  -0.187 124.577  0.00  0.00    +0.000 C 
ATOM     31  O   UNL     1      -6.605  -0.514 124.550  0.00  0.00    +0.000 OA
ATOM     32  N   UNL     1      -8.771  -1.104 124.399  0.00  0.00    +0.000 N 
ATOM     33  H   UNL     1      -8.884   1.481 124.340  0.00  0.00    +0.000 HD
ATOM     34  H   UNL     1      -9.566  -0.809 123.845  0.00  0.00    +0.000 HD
BRANCH  32  35
ATOM     35  C   UNL     1      -8.482  -2.570 124.515  0.00  0.00    +0.000 C 
ATOM     36  C   UNL     1      -7.084  -3.002 123.990  0.00  0.00    +0.000 C 
ATOM     37  C   UNL     1      -8.606  -3.026 125.978  0.00  0.00    +0.000 C 
ATOM     38  C   UNL     1      -9.525  -3.359 123.722  0.00  0.00    +0.000 C 
ENDBRANCH  32  35
ENDBRANCH  28  29
BRANCH  28  39
ATOM     39  C   UNL     1      -7.090   3.414 124.620  0.00  0.00    +0.000 C 
ATOM     40  C   UNL     1      -7.879   3.316 123.283  0.00  0.00    +0.000 C 
ATOM     41  C   UNL     1      -7.625   4.636 125.435  0.00  0.00    +0.000 C 
ATOM     42  C   UNL     1      -5.632   3.753 124.268  0.00  0.00    +0.000 C 
ENDBRANCH  28  39
ENDBRANCH   9  28
TORSDOF 10
ENDMDL
MODEL 8
REMARK VINA RESULT:      -8.4      2.914      7.919
REMARK  Name = Boceprevir
REMARK  18 active torsions:
REMARK  status: ('A' for Active; 'I' for Inactive)
REMARK    1  A    between atoms: C_5  and  C_6
REMARK    2  A    between atoms: N_8  and  C_9
REMARK    3  A    between atoms: C_9  and  C_10
REMARK    4  A    between atoms: C_9  and  C_15
REMARK    5  A    between atoms: C_10  and  C_11
REMARK    6  A    between atoms: C_15  and  C_17
REMARK    7  A    between atoms: C_22  and  C_23
REMARK    8  A    between atoms: C_22  and  C_24
REMARK    9  A    between atoms: C_25  and  C_27
REMARK   10  A    between atoms: C_27  and  N_28
REMARK   11  A    between atoms: C_27  and  C_36
REMARK   12  A    between atoms: N_31  and  C_32
REMARK   13  A    between atoms: C_32  and  C_33
REMARK   14  A    between atoms: C_32  and  C_34
REMARK   15  A    between atoms: C_32  and  C_35
REMARK   16  A    between atoms: C_36  and  C_37
REMARK   17  A    between atoms: C_36  and  C_38
REMARK   18  A    between atoms: C_36  and  C_39
REMARK                            x       y       z     vdW  Elec       q    Type
REMARK                         _______ _______ _______ _____ _____    ______ ____
ROOT
ATOM      1  C   UNL     1      -6.411   1.806 131.228  0.00  0.00    +0.000 C 
ATOM      2  C   UNL     1      -6.481   1.330 129.841  0.00  0.00    +0.000 C 
ATOM      3  N   UNL     1      -7.507   2.058 129.175  0.00  0.00    +0.000 N 
ATOM      4  C   UNL     1      -8.563   2.314 130.151  0.00  0.00    +0.000 C 
ATOM      5  C   UNL     1      -7.711   2.504 131.475  0.00  0.00    +0.000 C 
ATOM      6  C   UNL     1      -7.228   1.405 132.437  0.00  0.00    +0.000 C 
ATOM      7  C   UNL     1      -7.969   0.112 132.603  0.00  0.00    +0.000 C 
ATOM      8  C   UNL     1      -6.606   1.783 133.764  0.00  0.00    +0.000 C 
ATOM      9  C   UNL     1      -7.631   2.148 127.817  0.00  0.00    +0.000 C 
ATOM     10  O   UNL     1      -8.600   2.747 127.367  0.00  0.00    +0.000 OA
ENDROOT
BRANCH   4  11
ATOM     11  C   UNL     1      -9.563   3.462 130.000  0.00  0.00    +0.000 C 
ATOM     12  O   UNL     1     -10.738   3.102 129.973  0.00  0.00    +0.000 OA
ATOM     13  N   UNL     1      -9.128   4.751 129.792  0.00  0.00    +0.000 N 
ATOM     14  H   UNL     1      -8.132   4.852 129.616  0.00  0.00    +0.000 HD
BRANCH  13  15
ATOM     15  C   UNL     1      -9.755   6.078 129.968  0.00  0.00    +0.000 C 
BRANCH  15  16
ATOM     16  C   UNL     1     -10.286   6.679 128.639  0.00  0.00    +0.000 C 
ATOM     17  O   UNL     1      -9.805   6.458 127.532  0.00  0.00    +0.000 OA
BRANCH  16  18
ATOM     18  C   UNL     1     -11.527   7.589 128.693  0.00  0.00    +0.000 C 
ATOM     19  N   UNL     1     -11.436   8.860 128.193  0.00  0.00    +0.000 N 
ATOM     20  O   UNL     1     -12.579   7.195 129.179  0.00  0.00    +0.000 OA
ATOM     21  H   UNL     1     -10.615   9.278 127.785  0.00  0.00    +0.000 HD
ATOM     22  H   UNL     1     -12.285   9.411 128.197  0.00  0.00    +0.000 HD
ENDBRANCH  16  18
ENDBRANCH  15  16
BRANCH  15  23
ATOM     23  C   UNL     1      -8.769   7.080 130.618  0.00  0.00    +0.000 C 
BRANCH  23  24
ATOM     24  C   UNL     1      -7.513   6.331 131.006  0.00  0.00    +0.000 C 
ATOM     25  C   UNL     1      -6.085   6.861 131.233  0.00  0.00    +0.000 C 
ATOM     26  C   UNL     1      -5.987   5.846 132.410  0.00  0.00    +0.000 C 
ATOM     27  C   UNL     1      -7.497   6.007 132.554  0.00  0.00    +0.000 C 
ENDBRANCH  23  24
ENDBRANCH  15  23
ENDBRANCH  13  15
ENDBRANCH   4  11
BRANCH   9  28
ATOM     28  C   UNL     1      -6.665   1.608 126.741  0.00  0.00    +0.000 C 
BRANCH  28  29
ATOM     29  N   UNL     1      -7.500   1.013 125.653  0.00  0.00    +0.000 N 
ATOM     30  C   UNL     1      -7.311  -0.270 125.276  0.00  0.00    +0.000 C 
ATOM     31  O   UNL     1      -6.322  -0.887 125.669  0.00  0.00    +0.000 OA
ATOM     32  N   UNL     1      -8.271  -0.885 124.546  0.00  0.00    +0.000 N 
ATOM     33  H   UNL     1      -7.843   1.637 124.941  0.00  0.00    +0.000 HD
ATOM     34  H   UNL     1      -8.669  -0.346 123.785  0.00  0.00    +0.000 HD
BRANCH  32  35
ATOM     35  C   UNL     1      -8.353  -2.380 124.485  0.00  0.00    +0.000 C 
ATOM     36  C   UNL     1      -9.390  -2.935 123.469  0.00  0.00    +0.000 C 
ATOM     37  C   UNL     1      -6.978  -2.978 124.142  0.00  0.00    +0.000 C 
ATOM     38  C   UNL     1      -8.735  -2.925 125.862  0.00  0.00    +0.000 C 
ENDBRANCH  32  35
ENDBRANCH  28  29
BRANCH  28  39
ATOM     39  C   UNL     1      -5.758   2.820 126.192  0.00  0.00    +0.000 C 
ATOM     40  C   UNL     1      -6.060   3.143 124.701  0.00  0.00    +0.000 C 
ATOM     41  C   UNL     1      -5.883   4.133 127.029  0.00  0.00    +0.000 C 
ATOM     42  C   UNL     1      -4.279   2.408 126.281  0.00  0.00    +0.000 C 
ENDBRANCH  28  39
ENDBRANCH   9  28
TORSDOF 10
ENDMDL
MODEL 9
REMARK VINA RESULT:      -8.3      3.326      6.158
REMARK  Name = Boceprevir
REMARK  18 active torsions:
REMARK  status: ('A' for Active; 'I' for Inactive)
REMARK    1  A    between atoms: C_5  and  C_6
REMARK    2  A    between atoms: N_8  and  C_9
REMARK    3  A    between atoms: C_9  and  C_10
REMARK    4  A    between atoms: C_9  and  C_15
REMARK    5  A    between atoms: C_10  and  C_11
REMARK    6  A    between atoms: C_15  and  C_17
REMARK    7  A    between atoms: C_22  and  C_23
REMARK    8  A    between atoms: C_22  and  C_24
REMARK    9  A    between atoms: C_25  and  C_27
REMARK   10  A    between atoms: C_27  and  N_28
REMARK   11  A    between atoms: C_27  and  C_36
REMARK   12  A    between atoms: N_31  and  C_32
REMARK   13  A    between atoms: C_32  and  C_33
REMARK   14  A    between atoms: C_32  and  C_34
REMARK   15  A    between atoms: C_32  and  C_35
REMARK   16  A    between atoms: C_36  and  C_37
REMARK   17  A    between atoms: C_36  and  C_38
REMARK   18  A    between atoms: C_36  and  C_39
REMARK                            x       y       z     vdW  Elec       q    Type
REMARK                         _______ _______ _______ _____ _____    ______ ____
ROOT
ATOM      1  C   UNL     1      -6.199  -2.921 131.058  0.00  0.00    +0.000 C 
ATOM      2  C   UNL     1      -6.128  -1.457 130.973  0.00  0.00    +0.000 C 
ATOM      3  N   UNL     1      -6.962  -1.036 129.900  0.00  0.00    +0.000 N 
ATOM      4  C   UNL     1      -6.883  -2.057 128.859  0.00  0.00    +0.000 C 
ATOM      5  C   UNL     1      -6.736  -3.371 129.736  0.00  0.00    +0.000 C 
ATOM      6  C   UNL     1      -5.436  -3.979 130.291  0.00  0.00    +0.000 C 
ATOM      7  C   UNL     1      -4.114  -3.784 129.611  0.00  0.00    +0.000 C 
ATOM      8  C   UNL     1      -5.458  -5.351 130.930  0.00  0.00    +0.000 C 
ATOM      9  C   UNL     1      -7.423   0.241 129.737  0.00  0.00    +0.000 C 
ATOM     10  O   UNL     1      -8.075   0.492 128.731  0.00  0.00    +0.000 OA
ENDROOT
BRANCH   4  11
ATOM     11  C   UNL     1      -7.976  -2.247 127.807  0.00  0.00    +0.000 C 
ATOM     12  O   UNL     1      -8.741  -3.181 128.043  0.00  0.00    +0.000 OA
ATOM     13  N   UNL     1      -7.985  -1.493 126.656  0.00  0.00    +0.000 N 
ATOM     14  H   UNL     1      -7.160  -0.919 126.505  0.00  0.00    +0.000 HD
BRANCH  13  15
ATOM     15  C   UNL     1      -9.028  -1.163 125.663  0.00  0.00    +0.000 C 
BRANCH  15  16
ATOM     16  C   UNL     1      -8.832  -1.897 124.310  0.00  0.00    +0.000 C 
ATOM     17  O   UNL     1      -9.583  -1.797 123.345  0.00  0.00    +0.000 OA
BRANCH  16  18
ATOM     18  C   UNL     1      -7.588  -2.790 124.137  0.00  0.00    +0.000 C 
ATOM     19  N   UNL     1      -6.508  -2.295 123.457  0.00  0.00    +0.000 N 
ATOM     20  O   UNL     1      -7.559  -3.928 124.589  0.00  0.00    +0.000 OA
ATOM     21  H   UNL     1      -6.441  -1.379 123.041  0.00  0.00    +0.000 HD
ATOM     22  H   UNL     1      -5.691  -2.889 123.410  0.00  0.00    +0.000 HD
ENDBRANCH  16  18
ENDBRANCH  15  16
BRANCH  15  23
ATOM     23  C   UNL     1      -9.090   0.363 125.405  0.00  0.00    +0.000 C 
BRANCH  23  24
ATOM     24  C   UNL     1      -7.688   0.860 125.134  0.00  0.00    +0.000 C 
ATOM     25  C   UNL     1      -7.086   1.443 123.842  0.00  0.00    +0.000 C 
ATOM     26  C   UNL     1      -6.306   2.436 124.754  0.00  0.00    +0.000 C 
ATOM     27  C   UNL     1      -7.470   2.309 125.732  0.00  0.00    +0.000 C 
ENDBRANCH  23  24
ENDBRANCH  15  23
ENDBRANCH  13  15
ENDBRANCH   4  11
BRANCH   9  28
ATOM     28  C   UNL     1      -7.253   1.437 130.698  0.00  0.00    +0.000 C 
BRANCH  28  29
ATOM     29  N   UNL     1      -7.011   2.650 129.858  0.00  0.00    +0.000 N 
ATOM     30  C   UNL     1      -5.750   3.025 129.554  0.00  0.00    +0.000 C 
ATOM     31  O   UNL     1      -4.797   2.506 130.133  0.00  0.00    +0.000 OA
ATOM     32  N   UNL     1      -5.555   3.904 128.542  0.00  0.00    +0.000 N 
ATOM     33  H   UNL     1      -7.692   3.391 129.908  0.00  0.00    +0.000 HD
ATOM     34  H   UNL     1      -6.178   4.702 128.515  0.00  0.00    +0.000 HD
BRANCH  32  35
ATOM     35  C   UNL     1      -4.224   4.010 127.861  0.00  0.00    +0.000 C 
ATOM     36  C   UNL     1      -3.623   2.656 127.392  0.00  0.00    +0.000 C 
ATOM     37  C   UNL     1      -4.320   4.940 126.640  0.00  0.00    +0.000 C 
ATOM     38  C   UNL     1      -3.214   4.647 128.816  0.00  0.00    +0.000 C 
ENDBRANCH  32  35
ENDBRANCH  28  29
BRANCH  28  39
ATOM     39  C   UNL     1      -8.588   1.593 131.586  0.00  0.00    +0.000 C 
ATOM     40  C   UNL     1      -9.584   2.613 130.965  0.00  0.00    +0.000 C 
ATOM     41  C   UNL     1      -9.337   0.246 131.842  0.00  0.00    +0.000 C 
ATOM     42  C   UNL     1      -8.196   2.123 132.975  0.00  0.00    +0.000 C 
ENDBRANCH  28  39
ENDBRANCH   9  28
TORSDOF 10
ENDMDL
