MODEL 1
REMARK VINA RESULT:      -8.2      0.000      0.000
REMARK  Name = Boscalid
REMARK  3 active torsions:
REMARK  status: ('A' for Active; 'I' for Inactive)
REMARK    1  A    between atoms: C_5  and  C_8
REMARK    2  A    between atoms: C_9  and  N_10
REMARK    3  A    between atoms: C_11  and  C_13
REMARK                            x       y       z     vdW  Elec       q    Type
REMARK                         _______ _______ _______ _____ _____    ______ ____
ROOT
ATOM      1  C   UNL     1      -6.043   3.136 124.103  0.00  0.00    +0.000 A 
ATOM      2  C   UNL     1      -6.255   2.027 124.968  0.00  0.00    +0.000 A 
ATOM      3  C   UNL     1      -5.881   2.167 126.317  0.00  0.00    +0.000 A 
ATOM      4  C   UNL     1      -5.166   3.293 126.760  0.00  0.00    +0.000 A 
ATOM      5  C   UNL     1      -4.843   4.312 125.874  0.00  0.00    +0.000 A 
ATOM      6  C   UNL     1      -5.293   4.238 124.563  0.00  0.00    +0.000 A 
ENDROOT
BRANCH   1  11
ATOM      7 CL   UNL     1      -8.530   4.385 118.824  0.00  0.00    +0.000 Cl
ATOM      8  C   UNL     1      -7.803   3.922 120.312  0.00  0.00    +0.000 A 
ATOM      9  C   UNL     1      -6.418   4.005 120.457  0.00  0.00    +0.000 A 
ATOM     10  C   UNL     1      -5.830   3.656 121.673  0.00  0.00    +0.000 A 
ATOM     11  C   UNL     1      -6.629   3.259 122.761  0.00  0.00    +0.000 A 
ATOM     12  C   UNL     1      -8.024   3.154 122.587  0.00  0.00    +0.000 A 
ATOM     13  C   UNL     1      -8.609   3.501 121.369  0.00  0.00    +0.000 A 
ENDBRANCH   1  11
BRANCH   2  14
ATOM     14  N   UNL     1      -6.817   0.760 124.571  0.00  0.00    +0.000 N 
ATOM     15  C   UNL     1      -8.099   0.321 124.868  0.00  0.00    +0.000 C 
ATOM     16  O   UNL     1      -8.993   1.021 125.338  0.00  0.00    +0.000 OA
ATOM     17  H   UNL     1      -6.314   0.254 123.850  0.00  0.00    +0.000 HD
BRANCH  15  18
ATOM     18  C   UNL     1      -8.581  -1.027 124.533  0.00  0.00    +0.000 A 
ATOM     19  C   UNL     1      -9.390  -1.394 123.479  0.00  0.00    +0.000 A 
ATOM     20 CL   UNL     1     -10.010  -0.297 122.312  0.00  0.00    +0.000 Cl
ATOM     21  N   UNL     1      -9.745  -2.681 123.225  0.00  0.00    +0.000 NA
ATOM     22  C   UNL     1      -9.247  -3.641 124.044  0.00  0.00    +0.000 A 
ATOM     23  C   UNL     1      -8.401  -3.389 125.102  0.00  0.00    +0.000 A 
ATOM     24  C   UNL     1      -8.067  -2.069 125.338  0.00  0.00    +0.000 A 
ENDBRANCH  15  18
ENDBRANCH   2  14
TORSDOF 3
ENDMDL
MODEL 2
REMARK VINA RESULT:      -7.8      2.993      7.003
REMARK  Name = Boscalid
REMARK  3 active torsions:
REMARK  status: ('A' for Active; 'I' for Inactive)
REMARK    1  A    between atoms: C_5  and  C_8
REMARK    2  A    between atoms: C_9  and  N_10
REMARK    3  A    between atoms: C_11  and  C_13
REMARK                            x       y       z     vdW  Elec       q    Type
REMARK                         _______ _______ _______ _____ _____    ______ ____
ROOT
ATOM      1  C   UNL     1      -8.263  -1.154 125.340  0.00  0.00    +0.000 A 
ATOM      2  C   UNL     1      -7.940  -0.723 124.024  0.00  0.00    +0.000 A 
ATOM      3  C   UNL     1      -8.452  -1.469 122.946  0.00  0.00    +0.000 A 
ATOM      4  C   UNL     1      -9.112  -2.691 123.156  0.00  0.00    +0.000 A 
ATOM      5  C   UNL     1      -9.303  -3.173 124.444  0.00  0.00    +0.000 A 
ATOM      6  C   UNL     1      -8.896  -2.401 125.524  0.00  0.00    +0.000 A 
ENDROOT
BRANCH   1  11
ATOM      7 CL   UNL     1      -8.098   1.853 130.493  0.00  0.00    +0.000 Cl
ATOM      8  C   UNL     1      -8.051   1.033 128.981  0.00  0.00    +0.000 A 
ATOM      9  C   UNL     1      -7.450  -0.224 128.899  0.00  0.00    +0.000 A 
ATOM     10  C   UNL     1      -7.436  -0.902 127.680  0.00  0.00    +0.000 A 
ATOM     11  C   UNL     1      -8.056  -0.342 126.547  0.00  0.00    +0.000 A 
ATOM     12  C   UNL     1      -8.633   0.940 126.643  0.00  0.00    +0.000 A 
ATOM     13  C   UNL     1      -8.643   1.618 127.863  0.00  0.00    +0.000 A 
ENDBRANCH   1  11
BRANCH   2  14
ATOM     14  N   UNL     1      -7.118   0.417 123.702  0.00  0.00    +0.000 N 
ATOM     15  C   UNL     1      -7.578   1.621 123.189  0.00  0.00    +0.000 C 
ATOM     16  O   UNL     1      -8.761   1.952 123.120  0.00  0.00    +0.000 OA
ATOM     17  H   UNL     1      -6.175   0.407 124.074  0.00  0.00    +0.000 HD
BRANCH  15  18
ATOM     18  C   UNL     1      -6.682   2.709 122.774  0.00  0.00    +0.000 A 
ATOM     19  C   UNL     1      -6.192   3.738 123.549  0.00  0.00    +0.000 A 
ATOM     20 CL   UNL     1      -6.555   3.948 125.215  0.00  0.00    +0.000 Cl
ATOM     21  N   UNL     1      -5.327   4.676 123.083  0.00  0.00    +0.000 NA
ATOM     22  C   UNL     1      -4.914   4.562 121.795  0.00  0.00    +0.000 A 
ATOM     23  C   UNL     1      -5.310   3.552 120.946  0.00  0.00    +0.000 A 
ATOM     24  C   UNL     1      -6.198   2.620 121.449  0.00  0.00    +0.000 A 
ENDBRANCH  15  18
ENDBRANCH   2  14
TORSDOF 3
ENDMDL
MODEL 3
REMARK VINA RESULT:      -7.5      3.124      7.730
REMARK  Name = Boscalid
REMARK  3 active torsions:
REMARK  status: ('A' for Active; 'I' for Inactive)
REMARK    1  A    between atoms: C_5  and  C_8
REMARK    2  A    between atoms: C_9  and  N_10
REMARK    3  A    between atoms: C_11  and  C_13
REMARK                            x       y       z     vdW  Elec       q    Type
REMARK                         _______ _______ _______ _____ _____    ______ ____
ROOT
ATOM      1  C   UNL     1      -7.973  -2.434 125.389  0.00  0.00    +0.000 A 
ATOM      2  C   UNL     1      -7.629  -1.341 124.547  0.00  0.00    +0.000 A 
ATOM      3  C   UNL     1      -8.306  -1.221 123.319  0.00  0.00    +0.000 A 
ATOM      4  C   UNL     1      -9.163  -2.235 122.860  0.00  0.00    +0.000 A 
ATOM      5  C   UNL     1      -9.388  -3.367 123.631  0.00  0.00    +0.000 A 
ATOM      6  C   UNL     1      -8.809  -3.455 124.890  0.00  0.00    +0.000 A 
ENDROOT
BRANCH   1  11
ATOM      7 CL   UNL     1      -6.152  -3.600 130.952  0.00  0.00    +0.000 Cl
ATOM      8  C   UNL     1      -6.706  -3.164 129.382  0.00  0.00    +0.000 A 
ATOM      9  C   UNL     1      -5.817  -2.590 128.473  0.00  0.00    +0.000 A 
ATOM     10  C   UNL     1      -6.257  -2.262 127.191  0.00  0.00    +0.000 A 
ATOM     11  C   UNL     1      -7.580  -2.543 126.800  0.00  0.00    +0.000 A 
ATOM     12  C   UNL     1      -8.471  -3.097 127.741  0.00  0.00    +0.000 A 
ATOM     13  C   UNL     1      -8.028  -3.422 129.024  0.00  0.00    +0.000 A 
ENDBRANCH   1  11
BRANCH   2  14
ATOM     14  N   UNL     1      -6.632  -0.344 124.847  0.00  0.00    +0.000 N 
ATOM     15  C   UNL     1      -6.883   0.907 125.391  0.00  0.00    +0.000 C 
ATOM     16  O   UNL     1      -7.958   1.264 125.872  0.00  0.00    +0.000 OA
ATOM     17  H   UNL     1      -5.670  -0.664 124.856  0.00  0.00    +0.000 HD
BRANCH  15  18
ATOM     18  C   UNL     1      -5.840   1.926 125.572  0.00  0.00    +0.000 A 
ATOM     19  C   UNL     1      -5.726   3.139 124.926  0.00  0.00    +0.000 A 
ATOM     20 CL   UNL     1      -6.831   3.706 123.739  0.00  0.00    +0.000 Cl
ATOM     21  N   UNL     1      -4.746   4.039 125.197  0.00  0.00    +0.000 NA
ATOM     22  C   UNL     1      -3.860   3.724 126.175  0.00  0.00    +0.000 A 
ATOM     23  C   UNL     1      -3.904   2.559 126.909  0.00  0.00    +0.000 A 
ATOM     24  C   UNL     1      -4.909   1.661 126.601  0.00  0.00    +0.000 A 
ENDBRANCH  15  18
ENDBRANCH   2  14
TORSDOF 3
ENDMDL
MODEL 4
REMARK VINA RESULT:      -7.4      6.003      8.337
REMARK  Name = Boscalid
REMARK  3 active torsions:
REMARK  status: ('A' for Active; 'I' for Inactive)
REMARK    1  A    between atoms: C_5  and  C_8
REMARK    2  A    between atoms: C_9  and  N_10
REMARK    3  A    between atoms: C_11  and  C_13
REMARK                            x       y       z     vdW  Elec       q    Type
REMARK                         _______ _______ _______ _____ _____    ______ ____
ROOT
ATOM      1  C   UNL     1      -6.595  -2.987 129.925  0.00  0.00    +0.000 A 
ATOM      2  C   UNL     1      -6.250  -1.858 130.718  0.00  0.00    +0.000 A 
ATOM      3  C   UNL     1      -5.317  -2.047 131.755  0.00  0.00    +0.000 A 
ATOM      4  C   UNL     1      -4.873  -3.333 132.108  0.00  0.00    +0.000 A 
ATOM      5  C   UNL     1      -5.323  -4.447 131.412  0.00  0.00    +0.000 A 
ATOM      6  C   UNL     1      -6.164  -4.270 130.321  0.00  0.00    +0.000 A 
ENDROOT
BRANCH   1  11
ATOM      7 CL   UNL     1      -9.169  -3.324 124.550  0.00  0.00    +0.000 Cl
ATOM      8  C   UNL     1      -8.481  -3.134 126.115  0.00  0.00    +0.000 A 
ATOM      9  C   UNL     1      -9.120  -3.697 127.221  0.00  0.00    +0.000 A 
ATOM     10  C   UNL     1      -8.549  -3.567 128.487  0.00  0.00    +0.000 A 
ATOM     11  C   UNL     1      -7.317  -2.907 128.647  0.00  0.00    +0.000 A 
ATOM     12  C   UNL     1      -6.701  -2.321 127.523  0.00  0.00    +0.000 A 
ATOM     13  C   UNL     1      -7.276  -2.449 126.258  0.00  0.00    +0.000 A 
ENDBRANCH   1  11
BRANCH   2  14
ATOM     14  N   UNL     1      -6.787  -0.531 130.552  0.00  0.00    +0.000 N 
ATOM     15  C   UNL     1      -8.024  -0.101 131.010  0.00  0.00    +0.000 C 
ATOM     16  O   UNL     1      -8.746  -0.727 131.784  0.00  0.00    +0.000 OA
ATOM     17  H   UNL     1      -6.127   0.185 130.269  0.00  0.00    +0.000 HD
BRANCH  15  18
ATOM     18  C   UNL     1      -8.568   1.232 130.714  0.00  0.00    +0.000 A 
ATOM     19  C   UNL     1      -8.704   1.831 129.480  0.00  0.00    +0.000 A 
ATOM     20 CL   UNL     1      -8.242   1.099 127.996  0.00  0.00    +0.000 Cl
ATOM     21  N   UNL     1      -9.266   3.056 129.304  0.00  0.00    +0.000 NA
ATOM     22  C   UNL     1      -9.735   3.694 130.405  0.00  0.00    +0.000 A 
ATOM     23  C   UNL     1      -9.685   3.170 131.679  0.00  0.00    +0.000 A 
ATOM     24  C   UNL     1      -9.099   1.926 131.825  0.00  0.00    +0.000 A 
ENDBRANCH  15  18
ENDBRANCH   2  14
TORSDOF 3
ENDMDL
MODEL 5
REMARK VINA RESULT:      -7.4      8.329      9.967
REMARK  Name = Boscalid
REMARK  3 active torsions:
REMARK  status: ('A' for Active; 'I' for Inactive)
REMARK    1  A    between atoms: C_5  and  C_8
REMARK    2  A    between atoms: C_9  and  N_10
REMARK    3  A    between atoms: C_11  and  C_13
REMARK                            x       y       z     vdW  Elec       q    Type
REMARK                         _______ _______ _______ _____ _____    ______ ____
ROOT
ATOM      1  C   UNL     1      -6.900   5.271 132.258  0.00  0.00    +0.000 A 
ATOM      2  C   UNL     1      -8.204   5.754 132.556  0.00  0.00    +0.000 A 
ATOM      3  C   UNL     1      -8.760   5.415 133.804  0.00  0.00    +0.000 A 
ATOM      4  C   UNL     1      -8.127   4.492 134.654  0.00  0.00    +0.000 A 
ATOM      5  C   UNL     1      -6.915   3.921 134.292  0.00  0.00    +0.000 A 
ATOM      6  C   UNL     1      -6.303   4.321 133.112  0.00  0.00    +0.000 A 
ENDROOT
BRANCH   1  11
ATOM      7 CL   UNL     1      -2.938   6.973 128.132  0.00  0.00    +0.000 Cl
ATOM      8  C   UNL     1      -4.158   6.526 129.259  0.00  0.00    +0.000 A 
ATOM      9  C   UNL     1      -4.775   5.280 129.148  0.00  0.00    +0.000 A 
ATOM     10  C   UNL     1      -5.744   4.905 130.078  0.00  0.00    +0.000 A 
ATOM     11  C   UNL     1      -6.074   5.761 131.146  0.00  0.00    +0.000 A 
ATOM     12  C   UNL     1      -5.460   7.027 131.226  0.00  0.00    +0.000 A 
ATOM     13  C   UNL     1      -4.493   7.401 130.292  0.00  0.00    +0.000 A 
ENDBRANCH   1  11
BRANCH   2  14
ATOM     14  N   UNL     1      -9.013   6.559 131.675  0.00  0.00    +0.000 N 
ATOM     15  C   UNL     1     -10.076   6.097 130.912  0.00  0.00    +0.000 C 
ATOM     16  O   UNL     1     -10.597   4.989 131.028  0.00  0.00    +0.000 OA
ATOM     17  H   UNL     1      -8.929   7.563 131.785  0.00  0.00    +0.000 HD
BRANCH  15  18
ATOM     18  C   UNL     1     -10.794   6.940 129.946  0.00  0.00    +0.000 A 
ATOM     19  C   UNL     1     -11.988   7.604 130.131  0.00  0.00    +0.000 A 
ATOM     20 CL   UNL     1     -12.895   7.567 131.589  0.00  0.00    +0.000 Cl
ATOM     21  N   UNL     1     -12.551   8.402 129.187  0.00  0.00    +0.000 NA
ATOM     22  C   UNL     1     -11.879   8.562 128.020  0.00  0.00    +0.000 A 
ATOM     23  C   UNL     1     -10.661   7.977 127.746  0.00  0.00    +0.000 A 
ATOM     24  C   UNL     1     -10.120   7.165 128.724  0.00  0.00    +0.000 A 
ENDBRANCH  15  18
ENDBRANCH   2  14
TORSDOF 3
ENDMDL
MODEL 6
REMARK VINA RESULT:      -7.3      7.945     10.174
REMARK  Name = Boscalid
REMARK  3 active torsions:
REMARK  status: ('A' for Active; 'I' for Inactive)
REMARK    1  A    between atoms: C_5  and  C_8
REMARK    2  A    between atoms: C_9  and  N_10
REMARK    3  A    between atoms: C_11  and  C_13
REMARK                            x       y       z     vdW  Elec       q    Type
REMARK                         _______ _______ _______ _____ _____    ______ ____
ROOT
ATOM      1  C   UNL     1      -2.296   6.324 131.512  0.00  0.00    +0.000 A 
ATOM      2  C   UNL     1      -3.162   7.043 132.381  0.00  0.00    +0.000 A 
ATOM      3  C   UNL     1      -2.578   7.770 133.435  0.00  0.00    +0.000 A 
ATOM      4  C   UNL     1      -1.209   7.652 133.728  0.00  0.00    +0.000 A 
ATOM      5  C   UNL     1      -0.393   6.837 132.954  0.00  0.00    +0.000 A 
ATOM      6  C   UNL     1      -0.932   6.194 131.848  0.00  0.00    +0.000 A 
ENDROOT
BRANCH   1  11
ATOM      7 CL   UNL     1      -3.247   3.746 126.214  0.00  0.00    +0.000 Cl
ATOM      8  C   UNL     1      -3.075   4.527 127.737  0.00  0.00    +0.000 A 
ATOM      9  C   UNL     1      -3.376   3.828 128.906  0.00  0.00    +0.000 A 
ATOM     10  C   UNL     1      -3.211   4.450 130.143  0.00  0.00    +0.000 A 
ATOM     11  C   UNL     1      -2.706   5.762 130.218  0.00  0.00    +0.000 A 
ATOM     12  C   UNL     1      -2.434   6.462 129.025  0.00  0.00    +0.000 A 
ATOM     13  C   UNL     1      -2.604   5.838 127.789  0.00  0.00    +0.000 A 
ENDBRANCH   1  11
BRANCH   2  14
ATOM     14  N   UNL     1      -4.599   7.082 132.274  0.00  0.00    +0.000 N 
ATOM     15  C   UNL     1      -5.455   6.027 132.556  0.00  0.00    +0.000 C 
ATOM     16  O   UNL     1      -5.127   4.984 133.119  0.00  0.00    +0.000 OA
ATOM     17  H   UNL     1      -5.017   8.002 132.192  0.00  0.00    +0.000 HD
BRANCH  15  18
ATOM     18  C   UNL     1      -6.905   6.088 132.323  0.00  0.00    +0.000 A 
ATOM     19  C   UNL     1      -7.914   5.730 133.191  0.00  0.00    +0.000 A 
ATOM     20 CL   UNL     1      -7.651   5.121 134.776  0.00  0.00    +0.000 Cl
ATOM     21  N   UNL     1      -9.233   5.867 132.899  0.00  0.00    +0.000 NA
ATOM     22  C   UNL     1      -9.555   6.410 131.698  0.00  0.00    +0.000 A 
ATOM     23  C   UNL     1      -8.628   6.837 130.772  0.00  0.00    +0.000 A 
ATOM     24  C   UNL     1      -7.295   6.675 131.097  0.00  0.00    +0.000 A 
ENDBRANCH  15  18
ENDBRANCH   2  14
TORSDOF 3
ENDMDL
MODEL 7
REMARK VINA RESULT:      -7.2      2.939      4.887
REMARK  Name = Boscalid
REMARK  3 active torsions:
REMARK  status: ('A' for Active; 'I' for Inactive)
REMARK    1  A    between atoms: C_5  and  C_8
REMARK    2  A    between atoms: C_9  and  N_10
REMARK    3  A    between atoms: C_11  and  C_13
REMARK                            x       y       z     vdW  Elec       q    Type
REMARK                         _______ _______ _______ _____ _____    ______ ____
ROOT
ATOM      1  C   UNL     1      -6.808   1.850 123.632  0.00  0.00    +0.000 A 
ATOM      2  C   UNL     1      -6.581   2.339 124.948  0.00  0.00    +0.000 A 
ATOM      3  C   UNL     1      -6.174   3.680 125.087  0.00  0.00    +0.000 A 
ATOM      4  C   UNL     1      -5.836   4.457 123.965  0.00  0.00    +0.000 A 
ATOM      5  C   UNL     1      -5.932   3.923 122.687  0.00  0.00    +0.000 A 
ATOM      6  C   UNL     1      -6.428   2.637 122.526  0.00  0.00    +0.000 A 
ENDROOT
BRANCH   1  11
ATOM      7 CL   UNL     1      -9.697  -3.353 123.174  0.00  0.00    +0.000 Cl
ATOM      8  C   UNL     1      -8.857  -1.852 123.197  0.00  0.00    +0.000 A 
ATOM      9  C   UNL     1      -9.580  -0.659 123.173  0.00  0.00    +0.000 A 
ATOM     10  C   UNL     1      -8.903   0.559 123.220  0.00  0.00    +0.000 A 
ATOM     11  C   UNL     1      -7.500   0.589 123.330  0.00  0.00    +0.000 A 
ATOM     12  C   UNL     1      -6.785  -0.626 123.325  0.00  0.00    +0.000 A 
ATOM     13  C   UNL     1      -7.466  -1.843 123.275  0.00  0.00    +0.000 A 
ENDBRANCH   1  11
BRANCH   2  14
ATOM     14  N   UNL     1      -6.725   1.568 126.157  0.00  0.00    +0.000 N 
ATOM     15  C   UNL     1      -7.896   1.428 126.886  0.00  0.00    +0.000 C 
ATOM     16  O   UNL     1      -9.012   1.777 126.503  0.00  0.00    +0.000 OA
ATOM     17  H   UNL     1      -5.974   0.920 126.365  0.00  0.00    +0.000 HD
BRANCH  15  18
ATOM     18  C   UNL     1      -7.959   0.721 128.173  0.00  0.00    +0.000 A 
ATOM     19  C   UNL     1      -7.658  -0.601 128.424  0.00  0.00    +0.000 A 
ATOM     20 CL   UNL     1      -7.131  -1.713 127.225  0.00  0.00    +0.000 Cl
ATOM     21  N   UNL     1      -7.701  -1.153 129.664  0.00  0.00    +0.000 NA
ATOM     22  C   UNL     1      -8.034  -0.342 130.700  0.00  0.00    +0.000 A 
ATOM     23  C   UNL     1      -8.315   1.000 130.567  0.00  0.00    +0.000 A 
ATOM     24  C   UNL     1      -8.271   1.529 129.291  0.00  0.00    +0.000 A 
ENDBRANCH  15  18
ENDBRANCH   2  14
TORSDOF 3
ENDMDL
MODEL 8
REMARK VINA RESULT:      -7.1      6.114      8.888
REMARK  Name = Boscalid
REMARK  3 active torsions:
REMARK  status: ('A' for Active; 'I' for Inactive)
REMARK    1  A    between atoms: C_5  and  C_8
REMARK    2  A    between atoms: C_9  and  N_10
REMARK    3  A    between atoms: C_11  and  C_13
REMARK                            x       y       z     vdW  Elec       q    Type
REMARK                         _______ _______ _______ _____ _____    ______ ____
ROOT
ATOM      1  C   UNL     1      -6.736  -3.293 130.183  0.00  0.00    +0.000 A 
ATOM      2  C   UNL     1      -6.676  -2.321 131.220  0.00  0.00    +0.000 A 
ATOM      3  C   UNL     1      -5.773  -2.545 132.276  0.00  0.00    +0.000 A 
ATOM      4  C   UNL     1      -5.084  -3.764 132.397  0.00  0.00    +0.000 A 
ATOM      5  C   UNL     1      -5.255  -4.764 131.449  0.00  0.00    +0.000 A 
ATOM      6  C   UNL     1      -6.062  -4.521 130.346  0.00  0.00    +0.000 A 
ENDROOT
BRANCH   1  11
ATOM      7 CL   UNL     1      -9.051  -3.056 124.687  0.00  0.00    +0.000 Cl
ATOM      8  C   UNL     1      -8.440  -3.034 126.295  0.00  0.00    +0.000 A 
ATOM      9  C   UNL     1      -9.123  -3.718 127.300  0.00  0.00    +0.000 A 
ATOM     10  C   UNL     1      -8.614  -3.724 128.599  0.00  0.00    +0.000 A 
ATOM     11  C   UNL     1      -7.398  -3.078 128.889  0.00  0.00    +0.000 A 
ATOM     12  C   UNL     1      -6.737  -2.368 127.867  0.00  0.00    +0.000 A 
ATOM     13  C   UNL     1      -7.250  -2.361 126.569  0.00  0.00    +0.000 A 
ENDBRANCH   1  11
BRANCH   2  14
ATOM     14  N   UNL     1      -7.473  -1.122 131.281  0.00  0.00    +0.000 N 
ATOM     15  C   UNL     1      -7.077   0.131 130.838  0.00  0.00    +0.000 C 
ATOM     16  O   UNL     1      -6.076   0.355 130.159  0.00  0.00    +0.000 OA
ATOM     17  H   UNL     1      -8.462  -1.252 131.465  0.00  0.00    +0.000 HD
BRANCH  15  18
ATOM     18  C   UNL     1      -7.888   1.342 131.028  0.00  0.00    +0.000 A 
ATOM     19  C   UNL     1      -7.961   2.140 132.150  0.00  0.00    +0.000 A 
ATOM     20 CL   UNL     1      -7.078   1.854 133.595  0.00  0.00    +0.000 Cl
ATOM     21  N   UNL     1      -8.709   3.272 132.212  0.00  0.00    +0.000 NA
ATOM     22  C   UNL     1      -9.392   3.634 131.097  0.00  0.00    +0.000 A 
ATOM     23  C   UNL     1      -9.359   2.931 129.912  0.00  0.00    +0.000 A 
ATOM     24  C   UNL     1      -8.595   1.780 129.885  0.00  0.00    +0.000 A 
ENDBRANCH  15  18
ENDBRANCH   2  14
TORSDOF 3
ENDMDL
MODEL 9
REMARK VINA RESULT:      -7.1      3.901      7.583
REMARK  Name = Boscalid
REMARK  3 active torsions:
REMARK  status: ('A' for Active; 'I' for Inactive)
REMARK    1  A    between atoms: C_5  and  C_8
REMARK    2  A    between atoms: C_9  and  N_10
REMARK    3  A    between atoms: C_11  and  C_13
REMARK                            x       y       z     vdW  Elec       q    Type
REMARK                         _______ _______ _______ _____ _____    ______ ____
ROOT
ATOM      1  C   UNL     1      -6.345  -1.756 125.537  0.00  0.00    +0.000 A 
ATOM      2  C   UNL     1      -6.976  -0.611 124.978  0.00  0.00    +0.000 A 
ATOM      3  C   UNL     1      -7.095  -0.546 123.577  0.00  0.00    +0.000 A 
ATOM      4  C   UNL     1      -6.462  -1.490 122.750  0.00  0.00    +0.000 A 
ATOM      5  C   UNL     1      -5.732  -2.531 123.305  0.00  0.00    +0.000 A 
ATOM      6  C   UNL     1      -5.689  -2.669 124.685  0.00  0.00    +0.000 A 
ENDROOT
BRANCH   1  11
ATOM      7 CL   UNL     1      -6.372  -3.924 131.098  0.00  0.00    +0.000 Cl
ATOM      8  C   UNL     1      -6.390  -3.202 129.536  0.00  0.00    +0.000 A 
ATOM      9  C   UNL     1      -5.214  -2.664 129.013  0.00  0.00    +0.000 A 
ATOM     10  C   UNL     1      -5.221  -2.103 127.737  0.00  0.00    +0.000 A 
ATOM     11  C   UNL     1      -6.396  -2.113 126.962  0.00  0.00    +0.000 A 
ATOM     12  C   UNL     1      -7.581  -2.635 127.518  0.00  0.00    +0.000 A 
ATOM     13  C   UNL     1      -7.572  -3.193 128.797  0.00  0.00    +0.000 A 
ENDBRANCH   1  11
BRANCH   2  14
ATOM     14  N   UNL     1      -7.499   0.500 125.733  0.00  0.00    +0.000 N 
ATOM     15  C   UNL     1      -6.738   1.483 126.350  0.00  0.00    +0.000 C 
ATOM     16  O   UNL     1      -5.533   1.653 126.177  0.00  0.00    +0.000 OA
ATOM     17  H   UNL     1      -8.490   0.687 125.624  0.00  0.00    +0.000 HD
BRANCH  15  18
ATOM     18  C   UNL     1      -7.320   2.530 127.201  0.00  0.00    +0.000 A 
ATOM     19  C   UNL     1      -7.635   3.824 126.847  0.00  0.00    +0.000 A 
ATOM     20 CL   UNL     1      -7.394   4.481 125.278  0.00  0.00    +0.000 Cl
ATOM     21  N   UNL     1      -8.217   4.709 127.698  0.00  0.00    +0.000 NA
ATOM     22  C   UNL     1      -8.520   4.271 128.946  0.00  0.00    +0.000 A 
ATOM     23  C   UNL     1      -8.285   2.988 129.390  0.00  0.00    +0.000 A 
ATOM     24  C   UNL     1      -7.684   2.116 128.503  0.00  0.00    +0.000 A 
ENDBRANCH  15  18
ENDBRANCH   2  14
TORSDOF 3
ENDMDL
