MODEL 1
REMARK VINA RESULT:      -8.4      0.000      0.000
REMARK  Name = Bosutinib
REMARK  13 active torsions:
REMARK  status: ('A' for Active; 'I' for Inactive)
REMARK    1  A    between atoms: C_1  and  O_2
REMARK    2  A    between atoms: O_2  and  C_3
REMARK    3  A    between atoms: C_5  and  N_6
REMARK    4  A    between atoms: N_6  and  C_7
REMARK    5  A    between atoms: C_8  and  C_30
REMARK    6  A    between atoms: C_13  and  O_14
REMARK    7  A    between atoms: O_14  and  C_15
REMARK    8  A    between atoms: C_15  and  C_16
REMARK    9  A    between atoms: C_16  and  C_17
REMARK   10  A    between atoms: C_17  and  N_18
REMARK   11  A    between atoms: N_21  and  C_22
REMARK   12  A    between atoms: C_25  and  O_26
REMARK   13  A    between atoms: O_26  and  C_27
REMARK                            x       y       z     vdW  Elec       q    Type
REMARK                         _______ _______ _______ _____ _____    ______ ____
ROOT
ATOM      1  C   UNL     1      -6.760  -1.536 129.239  0.00  0.00    +0.000 A 
ATOM      2  C   UNL     1      -6.593  -2.290 130.413  0.00  0.00    +0.000 A 
ATOM      3  C   UNL     1      -7.253  -1.864 131.549  0.00  0.00    +0.000 A 
ATOM      4  N   UNL     1      -7.973  -0.721 131.631  0.00  0.00    +0.000 NA
ATOM      5  C   UNL     1      -8.065   0.056 130.540  0.00  0.00    +0.000 A 
ATOM      6  C   UNL     1      -8.770   1.253 130.622  0.00  0.00    +0.000 A 
ATOM      7  C   UNL     1      -8.898   2.121 129.528  0.00  0.00    +0.000 A 
ATOM      8  C   UNL     1      -8.325   1.754 128.300  0.00  0.00    +0.000 A 
ATOM      9  C   UNL     1      -7.646   0.541 128.199  0.00  0.00    +0.000 A 
ATOM     10  C   UNL     1      -7.472  -0.306 129.310  0.00  0.00    +0.000 A 
ENDROOT
BRANCH   1  11
ATOM     11  N   UNL     1      -6.329  -2.035 127.975  0.00  0.00    +0.000 N 
ATOM     12  H   UNL     1      -5.375  -2.388 127.969  0.00  0.00    +0.000 HD
BRANCH  11  15
ATOM     13  C   UNL     1      -7.610  -2.077 124.462  0.00  0.00    +0.000 A 
ATOM     14  C   UNL     1      -6.827  -1.805 125.600  0.00  0.00    +0.000 A 
ATOM     15  C   UNL     1      -7.144  -2.365 126.858  0.00  0.00    +0.000 A 
ATOM     16  C   UNL     1      -8.297  -3.193 126.927  0.00  0.00    +0.000 A 
ATOM     17 CL   UNL     1      -9.045  -3.783 128.382  0.00  0.00    +0.000 Cl
ATOM     18  C   UNL     1      -9.006  -3.541 125.783  0.00  0.00    +0.000 A 
ATOM     19  C   UNL     1      -8.689  -2.964 124.565  0.00  0.00    +0.000 A 
ATOM     20 CL   UNL     1      -9.707  -3.344 123.225  0.00  0.00    +0.000 Cl
BRANCH  13  22
ATOM     21  C   UNL     1      -6.332  -1.804 122.481  0.00  0.00    +0.000 C 
ATOM     22  O   UNL     1      -7.451  -1.420 123.269  0.00  0.00    +0.000 OA
ENDBRANCH  13  22
ENDBRANCH  11  15
ENDBRANCH   1  11
BRANCH   8  23
ATOM     23  O   UNL     1      -8.439   2.616 127.250  0.00  0.00    +0.000 OA
ATOM     24  C   UNL     1      -7.422   3.558 126.989  0.00  0.00    +0.000 C 
ENDBRANCH   8  23
BRANCH   2  25
ATOM     25  C   UNL     1      -5.934  -3.567 130.425  0.00  0.00    +0.000 C 
ATOM     26  N   UNL     1      -5.383  -4.577 130.530  0.00  0.00    +0.000 NA
ENDBRANCH   2  25
BRANCH   7  27
ATOM     27  O   UNL     1      -9.587   3.282 129.802  0.00  0.00    +0.000 OA
BRANCH  27  28
ATOM     28  C   UNL     1      -9.097   4.055 130.901  0.00  0.00    +0.000 C 
BRANCH  28  29
ATOM     29  C   UNL     1      -9.868   5.345 131.032  0.00  0.00    +0.000 C 
BRANCH  29  30
ATOM     30  C   UNL     1     -11.255   5.211 130.386  0.00  0.00    +0.000 C 
BRANCH  30  31
ATOM     31  N   UNL     1     -11.434   6.145 129.274  0.00  0.00    +0.000 NA
ATOM     32  C   UNL     1     -10.760   7.432 129.553  0.00  0.00    +0.000 C 
ATOM     33  C   UNL     1     -10.931   8.413 128.369  0.00  0.00    +0.000 C 
ATOM     34  N   UNL     1     -12.335   8.650 127.958  0.00  0.00    +0.000 NA
ATOM     35  C   UNL     1     -13.018   9.480 128.949  0.00  0.00    +0.000 C 
ATOM     36  C   UNL     1     -13.041   7.359 127.828  0.00  0.00    +0.000 C 
ATOM     37  C   UNL     1     -12.863   6.435 129.041  0.00  0.00    +0.000 C 
ENDBRANCH  30  31
ENDBRANCH  29  30
ENDBRANCH  28  29
ENDBRANCH  27  28
ENDBRANCH   7  27
TORSDOF 10
ENDMDL
MODEL 2
REMARK VINA RESULT:      -8.0      2.567      4.459
REMARK  Name = Bosutinib
REMARK  13 active torsions:
REMARK  status: ('A' for Active; 'I' for Inactive)
REMARK    1  A    between atoms: C_1  and  O_2
REMARK    2  A    between atoms: O_2  and  C_3
REMARK    3  A    between atoms: C_5  and  N_6
REMARK    4  A    between atoms: N_6  and  C_7
REMARK    5  A    between atoms: C_8  and  C_30
REMARK    6  A    between atoms: C_13  and  O_14
REMARK    7  A    between atoms: O_14  and  C_15
REMARK    8  A    between atoms: C_15  and  C_16
REMARK    9  A    between atoms: C_16  and  C_17
REMARK   10  A    between atoms: C_17  and  N_18
REMARK   11  A    between atoms: N_21  and  C_22
REMARK   12  A    between atoms: C_25  and  O_26
REMARK   13  A    between atoms: O_26  and  C_27
REMARK                            x       y       z     vdW  Elec       q    Type
REMARK                         _______ _______ _______ _____ _____    ______ ____
ROOT
ATOM      1  C   UNL     1      -6.782   2.481 125.577  0.00  0.00    +0.000 A 
ATOM      2  C   UNL     1      -6.696   3.634 124.778  0.00  0.00    +0.000 A 
ATOM      3  C   UNL     1      -6.998   4.847 125.366  0.00  0.00    +0.000 A 
ATOM      4  N   UNL     1      -7.458   4.989 126.631  0.00  0.00    +0.000 NA
ATOM      5  C   UNL     1      -7.632   3.885 127.376  0.00  0.00    +0.000 A 
ATOM      6  C   UNL     1      -8.142   4.015 128.664  0.00  0.00    +0.000 A 
ATOM      7  C   UNL     1      -8.361   2.906 129.495  0.00  0.00    +0.000 A 
ATOM      8  C   UNL     1      -8.023   1.627 129.025  0.00  0.00    +0.000 A 
ATOM      9  C   UNL     1      -7.480   1.492 127.748  0.00  0.00    +0.000 A 
ATOM     10  C   UNL     1      -7.309   2.598 126.893  0.00  0.00    +0.000 A 
ENDROOT
BRANCH   1  11
ATOM     11  N   UNL     1      -6.251   1.235 125.132  0.00  0.00    +0.000 N 
ATOM     12  H   UNL     1      -5.264   1.103 125.344  0.00  0.00    +0.000 HD
BRANCH  11  15
ATOM     13  C   UNL     1      -8.831  -0.846 123.401  0.00  0.00    +0.000 A 
ATOM     14  C   UNL     1      -8.057   0.252 123.824  0.00  0.00    +0.000 A 
ATOM     15  C   UNL     1      -6.981   0.086 124.724  0.00  0.00    +0.000 A 
ATOM     16  C   UNL     1      -6.732  -1.229 125.200  0.00  0.00    +0.000 A 
ATOM     17 CL   UNL     1      -5.654  -1.660 126.496  0.00  0.00    +0.000 Cl
ATOM     18  C   UNL     1      -7.430  -2.323 124.703  0.00  0.00    +0.000 A 
ATOM     19  C   UNL     1      -8.493  -2.133 123.836  0.00  0.00    +0.000 A 
ATOM     20 CL   UNL     1      -9.394  -3.532 123.377  0.00  0.00    +0.000 Cl
BRANCH  13  22
ATOM     21  C   UNL     1     -10.447   0.616 122.460  0.00  0.00    +0.000 C 
ATOM     22  O   UNL     1      -9.987  -0.712 122.676  0.00  0.00    +0.000 OA
ENDBRANCH  13  22
ENDBRANCH  11  15
ENDBRANCH   1  11
BRANCH   8  23
ATOM     23  O   UNL     1      -8.260   0.557 129.834  0.00  0.00    +0.000 OA
ATOM     24  C   UNL     1      -7.640  -0.684 129.573  0.00  0.00    +0.000 C 
ENDBRANCH   8  23
BRANCH   2  25
ATOM     25  C   UNL     1      -6.130   3.619 123.458  0.00  0.00    +0.000 C 
ATOM     26  N   UNL     1      -5.764   3.634 122.362  0.00  0.00    +0.000 NA
ENDBRANCH   2  25
BRANCH   7  27
ATOM     27  O   UNL     1      -8.916   3.215 130.718  0.00  0.00    +0.000 OA
BRANCH  27  28
ATOM     28  C   UNL     1      -9.229   4.594 130.932  0.00  0.00    +0.000 C 
BRANCH  28  29
ATOM     29  C   UNL     1     -10.712   4.833 130.781  0.00  0.00    +0.000 C 
BRANCH  29  30
ATOM     30  C   UNL     1     -11.087   6.228 131.305  0.00  0.00    +0.000 C 
BRANCH  30  31
ATOM     31  N   UNL     1     -11.508   7.122 130.225  0.00  0.00    +0.000 NA
ATOM     32  C   UNL     1     -12.333   6.399 129.233  0.00  0.00    +0.000 C 
ATOM     33  C   UNL     1     -12.797   7.350 128.103  0.00  0.00    +0.000 C 
ATOM     34  N   UNL     1     -11.703   8.081 127.422  0.00  0.00    +0.000 NA
ATOM     35  C   UNL     1     -10.946   7.173 126.562  0.00  0.00    +0.000 C 
ATOM     36  C   UNL     1     -10.798   8.675 128.427  0.00  0.00    +0.000 C 
ATOM     37  C   UNL     1     -10.345   7.683 129.510  0.00  0.00    +0.000 C 
ENDBRANCH  30  31
ENDBRANCH  29  30
ENDBRANCH  28  29
ENDBRANCH  27  28
ENDBRANCH   7  27
TORSDOF 10
ENDMDL
MODEL 3
REMARK VINA RESULT:      -7.5      2.669      3.820
REMARK  Name = Bosutinib
REMARK  13 active torsions:
REMARK  status: ('A' for Active; 'I' for Inactive)
REMARK    1  A    between atoms: C_1  and  O_2
REMARK    2  A    between atoms: O_2  and  C_3
REMARK    3  A    between atoms: C_5  and  N_6
REMARK    4  A    between atoms: N_6  and  C_7
REMARK    5  A    between atoms: C_8  and  C_30
REMARK    6  A    between atoms: C_13  and  O_14
REMARK    7  A    between atoms: O_14  and  C_15
REMARK    8  A    between atoms: C_15  and  C_16
REMARK    9  A    between atoms: C_16  and  C_17
REMARK   10  A    between atoms: C_17  and  N_18
REMARK   11  A    between atoms: N_21  and  C_22
REMARK   12  A    between atoms: C_25  and  O_26
REMARK   13  A    between atoms: O_26  and  C_27
REMARK                            x       y       z     vdW  Elec       q    Type
REMARK                         _______ _______ _______ _____ _____    ______ ____
ROOT
ATOM      1  C   UNL     1      -6.868  -1.296 129.210  0.00  0.00    +0.000 A 
ATOM      2  C   UNL     1      -6.758  -2.043 130.395  0.00  0.00    +0.000 A 
ATOM      3  C   UNL     1      -7.433  -1.584 131.510  0.00  0.00    +0.000 A 
ATOM      4  N   UNL     1      -8.117  -0.418 131.562  0.00  0.00    +0.000 NA
ATOM      5  C   UNL     1      -8.154   0.352 130.461  0.00  0.00    +0.000 A 
ATOM      6  C   UNL     1      -8.821   1.572 130.514  0.00  0.00    +0.000 A 
ATOM      7  C   UNL     1      -8.890   2.432 129.409  0.00  0.00    +0.000 A 
ATOM      8  C   UNL     1      -8.298   2.035 128.200  0.00  0.00    +0.000 A 
ATOM      9  C   UNL     1      -7.657   0.799 128.128  0.00  0.00    +0.000 A 
ATOM     10  C   UNL     1      -7.541  -0.042 129.252  0.00  0.00    +0.000 A 
ENDROOT
BRANCH   1  11
ATOM     11  N   UNL     1      -6.421  -1.821 127.963  0.00  0.00    +0.000 N 
ATOM     12  H   UNL     1      -5.457  -2.147 127.970  0.00  0.00    +0.000 HD
BRANCH  11  15
ATOM     13  C   UNL     1      -7.732  -1.959 124.464  0.00  0.00    +0.000 A 
ATOM     14  C   UNL     1      -6.957  -1.632 125.593  0.00  0.00    +0.000 A 
ATOM     15  C   UNL     1      -7.224  -2.208 126.856  0.00  0.00    +0.000 A 
ATOM     16  C   UNL     1      -8.318  -3.109 126.939  0.00  0.00    +0.000 A 
ATOM     17 CL   UNL     1      -9.012  -3.743 128.403  0.00  0.00    +0.000 Cl
ATOM     18  C   UNL     1      -9.015  -3.508 125.804  0.00  0.00    +0.000 A 
ATOM     19  C   UNL     1      -8.749  -2.915 124.581  0.00  0.00    +0.000 A 
ATOM     20 CL   UNL     1      -9.754  -3.366 123.253  0.00  0.00    +0.000 Cl
BRANCH  13  22
ATOM     21  C   UNL     1      -6.992  -0.027 123.302  0.00  0.00    +0.000 C 
ATOM     22  O   UNL     1      -7.629  -1.297 123.268  0.00  0.00    +0.000 OA
ENDBRANCH  13  22
ENDBRANCH  11  15
ENDBRANCH   1  11
BRANCH   8  23
ATOM     23  O   UNL     1      -8.355   2.889 127.139  0.00  0.00    +0.000 OA
ATOM     24  C   UNL     1      -8.047   2.433 125.840  0.00  0.00    +0.000 C 
ENDBRANCH   8  23
BRANCH   2  25
ATOM     25  C   UNL     1      -6.142  -3.340 130.436  0.00  0.00    +0.000 C 
ATOM     26  N   UNL     1      -5.731  -4.420 130.431  0.00  0.00    +0.000 NA
ENDBRANCH   2  25
BRANCH   7  27
ATOM     27  O   UNL     1      -9.548   3.619 129.654  0.00  0.00    +0.000 OA
BRANCH  27  28
ATOM     28  C   UNL     1      -9.094   4.361 130.789  0.00  0.00    +0.000 C 
BRANCH  28  29
ATOM     29  C   UNL     1      -8.196   5.495 130.360  0.00  0.00    +0.000 C 
BRANCH  29  30
ATOM     30  C   UNL     1      -6.725   5.151 130.638  0.00  0.00    +0.000 C 
BRANCH  30  31
ATOM     31  N   UNL     1      -5.812   5.936 129.805  0.00  0.00    +0.000 NA
ATOM     32  C   UNL     1      -4.869   5.056 129.082  0.00  0.00    +0.000 C 
ATOM     33  C   UNL     1      -3.918   5.884 128.185  0.00  0.00    +0.000 C 
ATOM     34  N   UNL     1      -3.178   6.956 128.892  0.00  0.00    +0.000 NA
ATOM     35  C   UNL     1      -2.133   6.377 129.735  0.00  0.00    +0.000 C 
ATOM     36  C   UNL     1      -4.109   7.737 129.730  0.00  0.00    +0.000 C 
ATOM     37  C   UNL     1      -5.010   6.869 130.622  0.00  0.00    +0.000 C 
ENDBRANCH  30  31
ENDBRANCH  29  30
ENDBRANCH  28  29
ENDBRANCH  27  28
ENDBRANCH   7  27
TORSDOF 10
ENDMDL
MODEL 4
REMARK VINA RESULT:      -7.5      2.960      4.905
REMARK  Name = Bosutinib
REMARK  13 active torsions:
REMARK  status: ('A' for Active; 'I' for Inactive)
REMARK    1  A    between atoms: C_1  and  O_2
REMARK    2  A    between atoms: O_2  and  C_3
REMARK    3  A    between atoms: C_5  and  N_6
REMARK    4  A    between atoms: N_6  and  C_7
REMARK    5  A    between atoms: C_8  and  C_30
REMARK    6  A    between atoms: C_13  and  O_14
REMARK    7  A    between atoms: O_14  and  C_15
REMARK    8  A    between atoms: C_15  and  C_16
REMARK    9  A    between atoms: C_16  and  C_17
REMARK   10  A    between atoms: C_17  and  N_18
REMARK   11  A    between atoms: N_21  and  C_22
REMARK   12  A    between atoms: C_25  and  O_26
REMARK   13  A    between atoms: O_26  and  C_27
REMARK                            x       y       z     vdW  Elec       q    Type
REMARK                         _______ _______ _______ _____ _____    ______ ____
ROOT
ATOM      1  C   UNL     1      -6.300   2.348 125.344  0.00  0.00    +0.000 A 
ATOM      2  C   UNL     1      -6.447   3.439 124.471  0.00  0.00    +0.000 A 
ATOM      3  C   UNL     1      -6.554   4.699 125.028  0.00  0.00    +0.000 A 
ATOM      4  N   UNL     1      -6.620   4.942 126.358  0.00  0.00    +0.000 NA
ATOM      5  C   UNL     1      -6.573   3.899 127.202  0.00  0.00    +0.000 A 
ATOM      6  C   UNL     1      -6.679   4.133 128.570  0.00  0.00    +0.000 A 
ATOM      7  C   UNL     1      -6.650   3.092 129.509  0.00  0.00    +0.000 A 
ATOM      8  C   UNL     1      -6.474   1.775 129.058  0.00  0.00    +0.000 A 
ATOM      9  C   UNL     1      -6.333   1.534 127.693  0.00  0.00    +0.000 A 
ATOM     10  C   UNL     1      -6.414   2.572 126.744  0.00  0.00    +0.000 A 
ENDROOT
BRANCH   1  11
ATOM     11  N   UNL     1      -5.932   1.060 124.858  0.00  0.00    +0.000 N 
ATOM     12  H   UNL     1      -4.942   0.844 124.957  0.00  0.00    +0.000 HD
BRANCH  11  15
ATOM     13  C   UNL     1      -8.780  -0.830 123.342  0.00  0.00    +0.000 A 
ATOM     14  C   UNL     1      -7.874   0.199 123.665  0.00  0.00    +0.000 A 
ATOM     15  C   UNL     1      -6.799  -0.024 124.553  0.00  0.00    +0.000 A 
ATOM     16  C   UNL     1      -6.686  -1.322 125.120  0.00  0.00    +0.000 A 
ATOM     17 CL   UNL     1      -5.626  -1.779 126.423  0.00  0.00    +0.000 Cl
ATOM     18  C   UNL     1      -7.518  -2.361 124.721  0.00  0.00    +0.000 A 
ATOM     19  C   UNL     1      -8.578  -2.113 123.865  0.00  0.00    +0.000 A 
ATOM     20 CL   UNL     1      -9.644  -3.428 123.531  0.00  0.00    +0.000 Cl
BRANCH  13  22
ATOM     21  C   UNL     1     -10.381   0.730 122.545  0.00  0.00    +0.000 C 
ATOM     22  O   UNL     1      -9.934  -0.617 122.633  0.00  0.00    +0.000 OA
ENDBRANCH  13  22
ENDBRANCH  11  15
ENDBRANCH   1  11
BRANCH   8  23
ATOM     23  O   UNL     1      -6.468   0.771 129.980  0.00  0.00    +0.000 OA
ATOM     24  C   UNL     1      -7.037  -0.483 129.670  0.00  0.00    +0.000 C 
ENDBRANCH   8  23
BRANCH   2  25
ATOM     25  C   UNL     1      -6.296   3.316 123.047  0.00  0.00    +0.000 C 
ATOM     26  N   UNL     1      -6.270   3.245 121.894  0.00  0.00    +0.000 NA
ENDBRANCH   2  25
BRANCH   7  27
ATOM     27  O   UNL     1      -6.817   3.502 130.815  0.00  0.00    +0.000 OA
BRANCH  27  28
ATOM     28  C   UNL     1      -5.964   4.563 131.250  0.00  0.00    +0.000 C 
BRANCH  28  29
ATOM     29  C   UNL     1      -6.722   5.533 132.125  0.00  0.00    +0.000 C 
BRANCH  29  30
ATOM     30  C   UNL     1      -7.146   6.768 131.316  0.00  0.00    +0.000 C 
BRANCH  30  31
ATOM     31  N   UNL     1      -8.593   6.980 131.360  0.00  0.00    +0.000 NA
ATOM     32  C   UNL     1      -9.249   5.966 132.213  0.00  0.00    +0.000 C 
ATOM     33  C   UNL     1     -10.777   6.203 132.276  0.00  0.00    +0.000 C 
ATOM     34  N   UNL     1     -11.448   6.273 130.958  0.00  0.00    +0.000 NA
ATOM     35  C   UNL     1     -11.522   4.943 130.356  0.00  0.00    +0.000 C 
ATOM     36  C   UNL     1     -10.697   7.177 130.063  0.00  0.00    +0.000 C 
ATOM     37  C   UNL     1      -9.190   6.881 130.013  0.00  0.00    +0.000 C 
ENDBRANCH  30  31
ENDBRANCH  29  30
ENDBRANCH  28  29
ENDBRANCH  27  28
ENDBRANCH   7  27
TORSDOF 10
ENDMDL
MODEL 5
REMARK VINA RESULT:      -7.5      1.898      2.244
REMARK  Name = Bosutinib
REMARK  13 active torsions:
REMARK  status: ('A' for Active; 'I' for Inactive)
REMARK    1  A    between atoms: C_1  and  O_2
REMARK    2  A    between atoms: O_2  and  C_3
REMARK    3  A    between atoms: C_5  and  N_6
REMARK    4  A    between atoms: N_6  and  C_7
REMARK    5  A    between atoms: C_8  and  C_30
REMARK    6  A    between atoms: C_13  and  O_14
REMARK    7  A    between atoms: O_14  and  C_15
REMARK    8  A    between atoms: C_15  and  C_16
REMARK    9  A    between atoms: C_16  and  C_17
REMARK   10  A    between atoms: C_17  and  N_18
REMARK   11  A    between atoms: N_21  and  C_22
REMARK   12  A    between atoms: C_25  and  O_26
REMARK   13  A    between atoms: O_26  and  C_27
REMARK                            x       y       z     vdW  Elec       q    Type
REMARK                         _______ _______ _______ _____ _____    ______ ____
ROOT
ATOM      1  C   UNL     1      -6.714   0.123 128.657  0.00  0.00    +0.000 A 
ATOM      2  C   UNL     1      -7.371  -0.744 129.546  0.00  0.00    +0.000 A 
ATOM      3  C   UNL     1      -8.229  -0.186 130.473  0.00  0.00    +0.000 A 
ATOM      4  N   UNL     1      -8.407   1.144 130.644  0.00  0.00    +0.000 NA
ATOM      5  C   UNL     1      -7.714   1.989 129.862  0.00  0.00    +0.000 A 
ATOM      6  C   UNL     1      -7.860   3.359 130.055  0.00  0.00    +0.000 A 
ATOM      7  C   UNL     1      -7.159   4.299 129.284  0.00  0.00    +0.000 A 
ATOM      8  C   UNL     1      -6.311   3.843 128.263  0.00  0.00    +0.000 A 
ATOM      9  C   UNL     1      -6.186   2.473 128.041  0.00  0.00    +0.000 A 
ATOM     10  C   UNL     1      -6.847   1.527 128.848  0.00  0.00    +0.000 A 
ENDROOT
BRANCH   1  11
ATOM     11  N   UNL     1      -6.018  -0.376 127.518  0.00  0.00    +0.000 N 
ATOM     12  H   UNL     1      -5.052  -0.639 127.702  0.00  0.00    +0.000 HD
BRANCH  11  15
ATOM     13  C   UNL     1      -6.287  -2.056 124.189  0.00  0.00    +0.000 A 
ATOM     14  C   UNL     1      -5.790  -1.607 125.427  0.00  0.00    +0.000 A 
ATOM     15  C   UNL     1      -6.582  -0.818 126.291  0.00  0.00    +0.000 A 
ATOM     16  C   UNL     1      -7.888  -0.480 125.845  0.00  0.00    +0.000 A 
ATOM     17 CL   UNL     1      -8.953   0.678 126.586  0.00  0.00    +0.000 Cl
ATOM     18  C   UNL     1      -8.411  -1.009 124.670  0.00  0.00    +0.000 A 
ATOM     19  C   UNL     1      -7.608  -1.763 123.831  0.00  0.00    +0.000 A 
ATOM     20 CL   UNL     1      -8.293  -2.263 122.328  0.00  0.00    +0.000 Cl
BRANCH  13  22
ATOM     21  C   UNL     1      -4.706  -3.756 123.692  0.00  0.00    +0.000 C 
ATOM     22  O   UNL     1      -5.502  -2.666 123.244  0.00  0.00    +0.000 OA
ENDBRANCH  13  22
ENDBRANCH  11  15
ENDBRANCH   1  11
BRANCH   8  23
ATOM     23  O   UNL     1      -5.621   4.766 127.535  0.00  0.00    +0.000 OA
ATOM     24  C   UNL     1      -4.400   4.419 126.919  0.00  0.00    +0.000 C 
ENDBRANCH   8  23
BRANCH   2  25
ATOM     25  C   UNL     1      -7.336  -2.173 129.399  0.00  0.00    +0.000 C 
ATOM     26  N   UNL     1      -7.401  -3.318 129.250  0.00  0.00    +0.000 NA
ENDBRANCH   2  25
BRANCH   7  27
ATOM     27  O   UNL     1      -7.387   5.610 129.644  0.00  0.00    +0.000 OA
BRANCH  27  28
ATOM     28  C   UNL     1      -7.830   5.821 130.988  0.00  0.00    +0.000 C 
BRANCH  28  29
ATOM     29  C   UNL     1      -8.904   6.880 131.035  0.00  0.00    +0.000 C 
BRANCH  29  30
ATOM     30  C   UNL     1     -10.298   6.234 130.998  0.00  0.00    +0.000 C 
BRANCH  30  31
ATOM     31  N   UNL     1     -11.049   6.621 129.803  0.00  0.00    +0.000 NA
ATOM     32  C   UNL     1     -10.534   7.890 129.245  0.00  0.00    +0.000 C 
ATOM     33  C   UNL     1     -11.314   8.289 127.969  0.00  0.00    +0.000 C 
ATOM     34  N   UNL     1     -12.784   8.365 128.140  0.00  0.00    +0.000 NA
ATOM     35  C   UNL     1     -13.141   9.550 128.919  0.00  0.00    +0.000 C 
ATOM     36  C   UNL     1     -13.268   7.156 128.836  0.00  0.00    +0.000 C 
ATOM     37  C   UNL     1     -12.479   6.821 130.110  0.00  0.00    +0.000 C 
ENDBRANCH  30  31
ENDBRANCH  29  30
ENDBRANCH  28  29
ENDBRANCH  27  28
ENDBRANCH   7  27
TORSDOF 10
ENDMDL
MODEL 6
REMARK VINA RESULT:      -7.5      3.260      4.963
REMARK  Name = Bosutinib
REMARK  13 active torsions:
REMARK  status: ('A' for Active; 'I' for Inactive)
REMARK    1  A    between atoms: C_1  and  O_2
REMARK    2  A    between atoms: O_2  and  C_3
REMARK    3  A    between atoms: C_5  and  N_6
REMARK    4  A    between atoms: N_6  and  C_7
REMARK    5  A    between atoms: C_8  and  C_30
REMARK    6  A    between atoms: C_13  and  O_14
REMARK    7  A    between atoms: O_14  and  C_15
REMARK    8  A    between atoms: C_15  and  C_16
REMARK    9  A    between atoms: C_16  and  C_17
REMARK   10  A    between atoms: C_17  and  N_18
REMARK   11  A    between atoms: N_21  and  C_22
REMARK   12  A    between atoms: C_25  and  O_26
REMARK   13  A    between atoms: O_26  and  C_27
REMARK                            x       y       z     vdW  Elec       q    Type
REMARK                         _______ _______ _______ _____ _____    ______ ____
ROOT
ATOM      1  C   UNL     1      -7.028   3.732 126.722  0.00  0.00    +0.000 A 
ATOM      2  C   UNL     1      -6.008   4.510 126.149  0.00  0.00    +0.000 A 
ATOM      3  C   UNL     1      -5.066   5.061 126.996  0.00  0.00    +0.000 A 
ATOM      4  N   UNL     1      -5.112   4.978 128.346  0.00  0.00    +0.000 NA
ATOM      5  C   UNL     1      -6.134   4.314 128.911  0.00  0.00    +0.000 A 
ATOM      6  C   UNL     1      -6.214   4.256 130.299  0.00  0.00    +0.000 A 
ATOM      7  C   UNL     1      -7.258   3.591 130.959  0.00  0.00    +0.000 A 
ATOM      8  C   UNL     1      -8.235   2.934 130.195  0.00  0.00    +0.000 A 
ATOM      9  C   UNL     1      -8.144   2.959 128.805  0.00  0.00    +0.000 A 
ATOM     10  C   UNL     1      -7.126   3.670 128.140  0.00  0.00    +0.000 A 
ENDROOT
BRANCH   1  11
ATOM     11  N   UNL     1      -7.883   2.926 125.915  0.00  0.00    +0.000 N 
ATOM     12  H   UNL     1      -8.774   3.362 125.688  0.00  0.00    +0.000 HD
BRANCH  11  15
ATOM     13  C   UNL     1      -6.291  -0.355 125.090  0.00  0.00    +0.000 A 
ATOM     14  C   UNL     1      -6.698   0.801 125.783  0.00  0.00    +0.000 A 
ATOM     15  C   UNL     1      -7.525   1.769 125.172  0.00  0.00    +0.000 A 
ATOM     16  C   UNL     1      -7.906   1.536 123.823  0.00  0.00    +0.000 A 
ATOM     17 CL   UNL     1      -8.690   2.679 122.771  0.00  0.00    +0.000 Cl
ATOM     18  C   UNL     1      -7.589   0.347 123.176  0.00  0.00    +0.000 A 
ATOM     19  C   UNL     1      -6.760  -0.577 123.790  0.00  0.00    +0.000 A 
ATOM     20 CL   UNL     1      -6.303  -1.960 122.863  0.00  0.00    +0.000 Cl
BRANCH  13  22
ATOM     21  C   UNL     1      -5.669  -1.888 126.791  0.00  0.00    +0.000 C 
ATOM     22  O   UNL     1      -5.350  -1.227 125.574  0.00  0.00    +0.000 OA
ENDBRANCH  13  22
ENDBRANCH  11  15
ENDBRANCH   1  11
BRANCH   8  23
ATOM     23  O   UNL     1      -9.255   2.310 130.849  0.00  0.00    +0.000 OA
ATOM     24  C   UNL     1      -9.061   1.032 131.414  0.00  0.00    +0.000 C 
ENDBRANCH   8  23
BRANCH   2  25
ATOM     25  C   UNL     1      -5.802   4.589 124.729  0.00  0.00    +0.000 C 
ATOM     26  N   UNL     1      -5.724   4.696 123.581  0.00  0.00    +0.000 NA
ENDBRANCH   2  25
BRANCH   7  27
ATOM     27  O   UNL     1      -7.205   3.676 132.334  0.00  0.00    +0.000 OA
BRANCH  27  28
ATOM     28  C   UNL     1      -7.679   4.900 132.903  0.00  0.00    +0.000 C 
BRANCH  28  29
ATOM     29  C   UNL     1      -9.163   4.824 133.169  0.00  0.00    +0.000 C 
BRANCH  29  30
ATOM     30  C   UNL     1      -9.873   6.068 132.614  0.00  0.00    +0.000 C 
BRANCH  30  31
ATOM     31  N   UNL     1     -10.336   5.866 131.240  0.00  0.00    +0.000 NA
ATOM     32  C   UNL     1      -9.444   6.548 130.277  0.00  0.00    +0.000 C 
ATOM     33  C   UNL     1      -9.922   6.316 128.823  0.00  0.00    +0.000 C 
ATOM     34  N   UNL     1     -11.332   6.691 128.568  0.00  0.00    +0.000 NA
ATOM     35  C   UNL     1     -11.473   8.146 128.549  0.00  0.00    +0.000 C 
ATOM     36  C   UNL     1     -12.197   6.127 129.623  0.00  0.00    +0.000 C 
ATOM     37  C   UNL     1     -11.695   6.409 131.047  0.00  0.00    +0.000 C 
ENDBRANCH  30  31
ENDBRANCH  29  30
ENDBRANCH  28  29
ENDBRANCH  27  28
ENDBRANCH   7  27
TORSDOF 10
ENDMDL
MODEL 7
REMARK VINA RESULT:      -7.4      2.796      4.603
REMARK  Name = Bosutinib
REMARK  13 active torsions:
REMARK  status: ('A' for Active; 'I' for Inactive)
REMARK    1  A    between atoms: C_1  and  O_2
REMARK    2  A    between atoms: O_2  and  C_3
REMARK    3  A    between atoms: C_5  and  N_6
REMARK    4  A    between atoms: N_6  and  C_7
REMARK    5  A    between atoms: C_8  and  C_30
REMARK    6  A    between atoms: C_13  and  O_14
REMARK    7  A    between atoms: O_14  and  C_15
REMARK    8  A    between atoms: C_15  and  C_16
REMARK    9  A    between atoms: C_16  and  C_17
REMARK   10  A    between atoms: C_17  and  N_18
REMARK   11  A    between atoms: N_21  and  C_22
REMARK   12  A    between atoms: C_25  and  O_26
REMARK   13  A    between atoms: O_26  and  C_27
REMARK                            x       y       z     vdW  Elec       q    Type
REMARK                         _______ _______ _______ _____ _____    ______ ____
ROOT
ATOM      1  C   UNL     1      -8.506   2.344 125.899  0.00  0.00    +0.000 A 
ATOM      2  C   UNL     1      -8.115   3.250 124.898  0.00  0.00    +0.000 A 
ATOM      3  C   UNL     1      -7.386   4.358 125.283  0.00  0.00    +0.000 A 
ATOM      4  N   UNL     1      -7.104   4.677 126.567  0.00  0.00    +0.000 NA
ATOM      5  C   UNL     1      -7.551   3.868 127.541  0.00  0.00    +0.000 A 
ATOM      6  C   UNL     1      -7.301   4.207 128.868  0.00  0.00    +0.000 A 
ATOM      7  C   UNL     1      -7.748   3.416 129.936  0.00  0.00    +0.000 A 
ATOM      8  C   UNL     1      -8.440   2.227 129.659  0.00  0.00    +0.000 A 
ATOM      9  C   UNL     1      -8.665   1.862 128.333  0.00  0.00    +0.000 A 
ATOM     10  C   UNL     1      -8.263   2.682 127.260  0.00  0.00    +0.000 A 
ENDROOT
BRANCH   1  11
ATOM     11  N   UNL     1      -9.033   1.062 125.568  0.00  0.00    +0.000 N 
ATOM     12  H   UNL     1     -10.032   1.058 125.375  0.00  0.00    +0.000 HD
BRANCH  11  15
ATOM     13  C   UNL     1      -6.457  -1.646 125.682  0.00  0.00    +0.000 A 
ATOM     14  C   UNL     1      -7.232  -0.519 126.014  0.00  0.00    +0.000 A 
ATOM     15  C   UNL     1      -8.301  -0.097 125.193  0.00  0.00    +0.000 A 
ATOM     16  C   UNL     1      -8.543  -0.846 124.009  0.00  0.00    +0.000 A 
ATOM     17 CL   UNL     1      -9.610  -0.392 122.713  0.00  0.00    +0.000 Cl
ATOM     18  C   UNL     1      -7.843  -2.016 123.738  0.00  0.00    +0.000 A 
ATOM     19  C   UNL     1      -6.786  -2.398 124.548  0.00  0.00    +0.000 A 
ATOM     20 CL   UNL     1      -5.884  -3.785 124.061  0.00  0.00    +0.000 Cl
BRANCH  13  22
ATOM     21  C   UNL     1      -5.360  -1.946 127.766  0.00  0.00    +0.000 C 
ATOM     22  O   UNL     1      -5.306  -1.986 126.346  0.00  0.00    +0.000 OA
ENDBRANCH  13  22
ENDBRANCH  11  15
ENDBRANCH   1  11
BRANCH   8  23
ATOM     23  O   UNL     1      -8.886   1.478 130.707  0.00  0.00    +0.000 OA
ATOM     24  C   UNL     1      -8.313   0.217 130.976  0.00  0.00    +0.000 C 
ENDBRANCH   8  23
BRANCH   2  25
ATOM     25  C   UNL     1      -8.273   2.969 123.498  0.00  0.00    +0.000 C 
ATOM     26  N   UNL     1      -8.417   2.841 122.358  0.00  0.00    +0.000 NA
ENDBRANCH   2  25
BRANCH   7  27
ATOM     27  O   UNL     1      -7.453   3.928 131.182  0.00  0.00    +0.000 OA
BRANCH  27  28
ATOM     28  C   UNL     1      -7.852   5.282 131.411  0.00  0.00    +0.000 C 
BRANCH  28  29
ATOM     29  C   UNL     1      -9.193   5.333 132.101  0.00  0.00    +0.000 C 
BRANCH  29  30
ATOM     30  C   UNL     1     -10.331   5.273 131.071  0.00  0.00    +0.000 C 
BRANCH  30  31
ATOM     31  N   UNL     1     -10.663   6.597 130.544  0.00  0.00    +0.000 NA
ATOM     32  C   UNL     1     -12.113   6.863 130.662  0.00  0.00    +0.000 C 
ATOM     33  C   UNL     1     -12.462   8.271 130.125  0.00  0.00    +0.000 C 
ATOM     34  N   UNL     1     -12.005   8.537 128.741  0.00  0.00    +0.000 NA
ATOM     35  C   UNL     1     -12.828   7.797 127.786  0.00  0.00    +0.000 C 
ATOM     36  C   UNL     1     -10.594   8.127 128.594  0.00  0.00    +0.000 C 
ATOM     37  C   UNL     1     -10.306   6.711 129.116  0.00  0.00    +0.000 C 
ENDBRANCH  30  31
ENDBRANCH  29  30
ENDBRANCH  28  29
ENDBRANCH  27  28
ENDBRANCH   7  27
TORSDOF 10
ENDMDL
MODEL 8
REMARK VINA RESULT:      -7.4      2.819      4.298
REMARK  Name = Bosutinib
REMARK  13 active torsions:
REMARK  status: ('A' for Active; 'I' for Inactive)
REMARK    1  A    between atoms: C_1  and  O_2
REMARK    2  A    between atoms: O_2  and  C_3
REMARK    3  A    between atoms: C_5  and  N_6
REMARK    4  A    between atoms: N_6  and  C_7
REMARK    5  A    between atoms: C_8  and  C_30
REMARK    6  A    between atoms: C_13  and  O_14
REMARK    7  A    between atoms: O_14  and  C_15
REMARK    8  A    between atoms: C_15  and  C_16
REMARK    9  A    between atoms: C_16  and  C_17
REMARK   10  A    between atoms: C_17  and  N_18
REMARK   11  A    between atoms: N_21  and  C_22
REMARK   12  A    between atoms: C_25  and  O_26
REMARK   13  A    between atoms: O_26  and  C_27
REMARK                            x       y       z     vdW  Elec       q    Type
REMARK                         _______ _______ _______ _____ _____    ______ ____
ROOT
ATOM      1  C   UNL     1      -8.234   2.196 126.521  0.00  0.00    +0.000 A 
ATOM      2  C   UNL     1      -7.920   3.178 125.567  0.00  0.00    +0.000 A 
ATOM      3  C   UNL     1      -7.351   4.353 126.017  0.00  0.00    +0.000 A 
ATOM      4  N   UNL     1      -7.161   4.659 127.321  0.00  0.00    +0.000 NA
ATOM      5  C   UNL     1      -7.541   3.766 128.250  0.00  0.00    +0.000 A 
ATOM      6  C   UNL     1      -7.386   4.085 129.595  0.00  0.00    +0.000 A 
ATOM      7  C   UNL     1      -7.772   3.207 130.619  0.00  0.00    +0.000 A 
ATOM      8  C   UNL     1      -8.299   1.952 130.275  0.00  0.00    +0.000 A 
ATOM      9  C   UNL     1      -8.426   1.611 128.930  0.00  0.00    +0.000 A 
ATOM     10  C   UNL     1      -8.088   2.511 127.901  0.00  0.00    +0.000 A 
ENDROOT
BRANCH   1  11
ATOM     11  N   UNL     1      -8.582   0.870 126.129  0.00  0.00    +0.000 N 
ATOM     12  H   UNL     1      -9.584   0.687 126.123  0.00  0.00    +0.000 HD
BRANCH  11  15
ATOM     13  C   UNL     1      -7.563  -1.926 123.866  0.00  0.00    +0.000 A 
ATOM     14  C   UNL     1      -8.331  -0.948 124.526  0.00  0.00    +0.000 A 
ATOM     15  C   UNL     1      -7.751  -0.081 125.479  0.00  0.00    +0.000 A 
ATOM     16  C   UNL     1      -6.368  -0.254 125.755  0.00  0.00    +0.000 A 
ATOM     17 CL   UNL     1      -5.484   0.493 127.053  0.00  0.00    +0.000 Cl
ATOM     18  C   UNL     1      -5.592  -1.150 125.028  0.00  0.00    +0.000 A 
ATOM     19  C   UNL     1      -6.187  -2.003 124.114  0.00  0.00    +0.000 A 
ATOM     20 CL   UNL     1      -5.174  -3.177 123.359  0.00  0.00    +0.000 Cl
BRANCH  13  22
ATOM     21  C   UNL     1      -9.437  -3.305 123.397  0.00  0.00    +0.000 C 
ATOM     22  O   UNL     1      -8.112  -2.902 123.074  0.00  0.00    +0.000 OA
ENDBRANCH  13  22
ENDBRANCH  11  15
ENDBRANCH   1  11
BRANCH   8  23
ATOM     23  O   UNL     1      -8.688   1.117 131.280  0.00  0.00    +0.000 OA
ATOM     24  C   UNL     1      -7.896   0.001 131.625  0.00  0.00    +0.000 C 
ENDBRANCH   8  23
BRANCH   2  25
ATOM     25  C   UNL     1      -7.988   2.931 124.153  0.00  0.00    +0.000 C 
ATOM     26  N   UNL     1      -7.957   2.782 123.007  0.00  0.00    +0.000 NA
ENDBRANCH   2  25
BRANCH   7  27
ATOM     27  O   UNL     1      -7.592   3.706 131.891  0.00  0.00    +0.000 OA
BRANCH  27  28
ATOM     28  C   UNL     1      -8.124   5.012 132.131  0.00  0.00    +0.000 C 
BRANCH  28  29
ATOM     29  C   UNL     1      -9.626   5.012 131.979  0.00  0.00    +0.000 C 
BRANCH  29  30
ATOM     30  C   UNL     1     -10.134   6.427 131.665  0.00  0.00    +0.000 C 
BRANCH  30  31
ATOM     31  N   UNL     1     -10.772   6.500 130.350  0.00  0.00    +0.000 NA
ATOM     32  C   UNL     1     -10.252   7.647 129.575  0.00  0.00    +0.000 C 
ATOM     33  C   UNL     1     -10.911   7.711 128.176  0.00  0.00    +0.000 C 
ATOM     34  N   UNL     1     -12.392   7.733 128.190  0.00  0.00    +0.000 NA
ATOM     35  C   UNL     1     -12.874   9.035 128.650  0.00  0.00    +0.000 C 
ATOM     36  C   UNL     1     -12.899   6.676 129.087  0.00  0.00    +0.000 C 
ATOM     37  C   UNL     1     -12.233   6.673 130.472  0.00  0.00    +0.000 C 
ENDBRANCH  30  31
ENDBRANCH  29  30
ENDBRANCH  28  29
ENDBRANCH  27  28
ENDBRANCH   7  27
TORSDOF 10
ENDMDL
MODEL 9
REMARK VINA RESULT:      -7.3      2.563      4.612
REMARK  Name = Bosutinib
REMARK  13 active torsions:
REMARK  status: ('A' for Active; 'I' for Inactive)
REMARK    1  A    between atoms: C_1  and  O_2
REMARK    2  A    between atoms: O_2  and  C_3
REMARK    3  A    between atoms: C_5  and  N_6
REMARK    4  A    between atoms: N_6  and  C_7
REMARK    5  A    between atoms: C_8  and  C_30
REMARK    6  A    between atoms: C_13  and  O_14
REMARK    7  A    between atoms: O_14  and  C_15
REMARK    8  A    between atoms: C_15  and  C_16
REMARK    9  A    between atoms: C_16  and  C_17
REMARK   10  A    between atoms: C_17  and  N_18
REMARK   11  A    between atoms: N_21  and  C_22
REMARK   12  A    between atoms: C_25  and  O_26
REMARK   13  A    between atoms: O_26  and  C_27
REMARK                            x       y       z     vdW  Elec       q    Type
REMARK                         _______ _______ _______ _____ _____    ______ ____
ROOT
ATOM      1  C   UNL     1      -7.307   2.306 126.562  0.00  0.00    +0.000 A 
ATOM      2  C   UNL     1      -7.493   3.078 125.403  0.00  0.00    +0.000 A 
ATOM      3  C   UNL     1      -7.891   4.391 125.562  0.00  0.00    +0.000 A 
ATOM      4  N   UNL     1      -8.203   4.956 126.751  0.00  0.00    +0.000 NA
ATOM      5  C   UNL     1      -8.118   4.201 127.859  0.00  0.00    +0.000 A 
ATOM      6  C   UNL     1      -8.473   4.759 129.084  0.00  0.00    +0.000 A 
ATOM      7  C   UNL     1      -8.421   4.028 130.280  0.00  0.00    +0.000 A 
ATOM      8  C   UNL     1      -7.962   2.702 130.246  0.00  0.00    +0.000 A 
ATOM      9  C   UNL     1      -7.572   2.146 129.029  0.00  0.00    +0.000 A 
ATOM     10  C   UNL     1      -7.674   2.861 127.820  0.00  0.00    +0.000 A 
ENDROOT
BRANCH   1  11
ATOM     11  N   UNL     1      -6.661   1.037 126.507  0.00  0.00    +0.000 N 
ATOM     12  H   UNL     1      -5.645   1.088 126.469  0.00  0.00    +0.000 HD
BRANCH  11  15
ATOM     13  C   UNL     1      -7.192  -2.268 128.174  0.00  0.00    +0.000 A 
ATOM     14  C   UNL     1      -6.684  -0.994 127.853  0.00  0.00    +0.000 A 
ATOM     15  C   UNL     1      -7.231  -0.232 126.798  0.00  0.00    +0.000 A 
ATOM     16  C   UNL     1      -8.298  -0.815 126.063  0.00  0.00    +0.000 A 
ATOM     17 CL   UNL     1      -8.965  -0.210 124.574  0.00  0.00    +0.000 Cl
ATOM     18  C   UNL     1      -8.864  -2.026 126.447  0.00  0.00    +0.000 A 
ATOM     19  C   UNL     1      -8.297  -2.764 127.472  0.00  0.00    +0.000 A 
ATOM     20 CL   UNL     1      -8.975  -4.318 127.791  0.00  0.00    +0.000 Cl
BRANCH  13  22
ATOM     21  C   UNL     1      -6.866  -2.897 130.439  0.00  0.00    +0.000 C 
ATOM     22  O   UNL     1      -6.582  -3.115 129.064  0.00  0.00    +0.000 OA
ENDBRANCH  13  22
ENDBRANCH  11  15
ENDBRANCH   1  11
BRANCH   8  23
ATOM     23  O   UNL     1      -7.936   1.996 131.412  0.00  0.00    +0.000 OA
ATOM     24  C   UNL     1      -9.108   1.375 131.894  0.00  0.00    +0.000 C 
ENDBRANCH   8  23
BRANCH   2  25
ATOM     25  C   UNL     1      -7.103   2.619 124.098  0.00  0.00    +0.000 C 
ATOM     26  N   UNL     1      -6.832   2.332 123.012  0.00  0.00    +0.000 NA
ENDBRANCH   2  25
BRANCH   7  27
ATOM     27  O   UNL     1      -8.855   4.723 131.388  0.00  0.00    +0.000 OA
BRANCH  27  28
ATOM     28  C   UNL     1     -10.263   4.964 131.462  0.00  0.00    +0.000 C 
BRANCH  28  29
ATOM     29  C   UNL     1     -10.550   6.445 131.472  0.00  0.00    +0.000 C 
BRANCH  29  30
ATOM     30  C   UNL     1     -12.063   6.699 131.555  0.00  0.00    +0.000 C 
BRANCH  30  31
ATOM     31  N   UNL     1     -12.595   7.245 130.305  0.00  0.00    +0.000 NA
ATOM     32  C   UNL     1     -12.733   6.184 129.284  0.00  0.00    +0.000 C 
ATOM     33  C   UNL     1     -13.316   6.756 127.969  0.00  0.00    +0.000 C 
ATOM     34  N   UNL     1     -12.571   7.908 127.411  0.00  0.00    +0.000 NA
ATOM     35  C   UNL     1     -11.302   7.460 126.838  0.00  0.00    +0.000 C 
ATOM     36  C   UNL     1     -12.307   8.895 128.477  0.00  0.00    +0.000 C 
ATOM     37  C   UNL     1     -11.703   8.281 129.749  0.00  0.00    +0.000 C 
ENDBRANCH  30  31
ENDBRANCH  29  30
ENDBRANCH  28  29
ENDBRANCH  27  28
ENDBRANCH   7  27
TORSDOF 10
ENDMDL
