MODEL 1
REMARK VINA RESULT:      -5.3      0.000      0.000
REMARK  Name = Bretylium
REMARK  6 active torsions:
REMARK  status: ('A' for Active; 'I' for Inactive)
REMARK    1  A    between atoms: C_1  and  C_2
REMARK    2  A    between atoms: C_2  and  N_3
REMARK    3  A    between atoms: N_3  and  C_4
REMARK    4  A    between atoms: N_3  and  C_5
REMARK    5  A    between atoms: N_3  and  C_6
REMARK    6  A    between atoms: C_6  and  C_7
REMARK                            x       y       z     vdW  Elec       q    Type
REMARK                         _______ _______ _______ _____ _____    ______ ____
ROOT
ATOM      1  C   UNL     1      -8.109  -2.419 126.491  0.00  0.00    +0.000 A 
ATOM      2  C   UNL     1      -9.044  -3.387 126.915  0.00  0.00    +0.000 A 
ATOM      3  C   UNL     1      -8.973  -3.941 128.194  0.00  0.00    +0.000 A 
ATOM      4  C   UNL     1      -7.957  -3.556 129.057  0.00  0.00    +0.000 A 
ATOM      5  C   UNL     1      -6.996  -2.635 128.644  0.00  0.00    +0.000 A 
ATOM      6  C   UNL     1      -7.055  -2.087 127.359  0.00  0.00    +0.000 A 
ATOM      7 BR   UNL     1      -5.671  -0.867 126.899  0.00  0.00    +0.000 Br
ENDROOT
BRANCH   1   8
ATOM      8  C   UNL     1      -8.362  -1.691 125.188  0.00  0.00    +0.000 C 
BRANCH   8   9
ATOM      9  N   UNL     1      -8.028  -2.523 123.903  0.00  0.00    +0.000 N 
ATOM     10  C   UNL     1      -7.463  -1.600 122.827  0.00  0.00    +0.000 C 
ATOM     11  C   UNL     1      -9.293  -3.195 123.384  0.00  0.00    +0.000 C 
BRANCH   9  13
ATOM     12  C   UNL     1      -5.571  -3.191 123.846  0.00  0.00    +0.000 C 
ATOM     13  C   UNL     1      -6.977  -3.583 124.284  0.00  0.00    +0.000 C 
ENDBRANCH   9  13
ENDBRANCH   8   9
ENDBRANCH   1   8
TORSDOF 3
ENDMDL
MODEL 2
REMARK VINA RESULT:      -5.0     10.036     11.360
REMARK  Name = Bretylium
REMARK  6 active torsions:
REMARK  status: ('A' for Active; 'I' for Inactive)
REMARK    1  A    between atoms: C_1  and  C_2
REMARK    2  A    between atoms: C_2  and  N_3
REMARK    3  A    between atoms: N_3  and  C_4
REMARK    4  A    between atoms: N_3  and  C_5
REMARK    5  A    between atoms: N_3  and  C_6
REMARK    6  A    between atoms: C_6  and  C_7
REMARK                            x       y       z     vdW  Elec       q    Type
REMARK                         _______ _______ _______ _____ _____    ______ ____
ROOT
ATOM      1  C   UNL     1     -10.839   7.200 129.174  0.00  0.00    +0.000 A 
ATOM      2  C   UNL     1     -10.489   7.117 127.809  0.00  0.00    +0.000 A 
ATOM      3  C   UNL     1     -11.460   7.231 126.812  0.00  0.00    +0.000 A 
ATOM      4  C   UNL     1     -12.790   7.405 127.161  0.00  0.00    +0.000 A 
ATOM      5  C   UNL     1     -13.165   7.445 128.503  0.00  0.00    +0.000 A 
ATOM      6  C   UNL     1     -12.199   7.317 129.506  0.00  0.00    +0.000 A 
ATOM      7 BR   UNL     1     -12.835   7.355 131.298  0.00  0.00    +0.000 Br
ENDROOT
BRANCH   1   8
ATOM      8  C   UNL     1      -9.730   7.294 130.200  0.00  0.00    +0.000 C 
BRANCH   8   9
ATOM      9  N   UNL     1      -9.332   5.928 130.856  0.00  0.00    +0.000 N 
ATOM     10  C   UNL     1     -10.126   4.797 130.209  0.00  0.00    +0.000 C 
ATOM     11  C   UNL     1      -9.633   5.972 132.350  0.00  0.00    +0.000 C 
BRANCH   9  13
ATOM     12  C   UNL     1      -6.985   6.881 131.110  0.00  0.00    +0.000 C 
ATOM     13  C   UNL     1      -7.825   5.709 130.620  0.00  0.00    +0.000 C 
ENDBRANCH   9  13
ENDBRANCH   8   9
ENDBRANCH   1   8
TORSDOF 3
ENDMDL
MODEL 3
REMARK VINA RESULT:      -4.9     10.380     11.481
REMARK  Name = Bretylium
REMARK  6 active torsions:
REMARK  status: ('A' for Active; 'I' for Inactive)
REMARK    1  A    between atoms: C_1  and  C_2
REMARK    2  A    between atoms: C_2  and  N_3
REMARK    3  A    between atoms: N_3  and  C_4
REMARK    4  A    between atoms: N_3  and  C_5
REMARK    5  A    between atoms: N_3  and  C_6
REMARK    6  A    between atoms: C_6  and  C_7
REMARK                            x       y       z     vdW  Elec       q    Type
REMARK                         _______ _______ _______ _____ _____    ______ ____
ROOT
ATOM      1  C   UNL     1     -11.393   6.739 130.195  0.00  0.00    +0.000 A 
ATOM      2  C   UNL     1     -12.071   6.914 131.420  0.00  0.00    +0.000 A 
ATOM      3  C   UNL     1     -12.970   7.967 131.599  0.00  0.00    +0.000 A 
ATOM      4  C   UNL     1     -13.185   8.872 130.570  0.00  0.00    +0.000 A 
ATOM      5  C   UNL     1     -12.493   8.746 129.367  0.00  0.00    +0.000 A 
ATOM      6  C   UNL     1     -11.581   7.700 129.188  0.00  0.00    +0.000 A 
ATOM      7 BR   UNL     1     -10.674   7.651 127.517  0.00  0.00    +0.000 Br
ENDROOT
BRANCH   1   8
ATOM      8  C   UNL     1     -10.607   5.464 129.979  0.00  0.00    +0.000 C 
BRANCH   8   9
ATOM      9  N   UNL     1      -9.150   5.491 130.554  0.00  0.00    +0.000 N 
ATOM     10  C   UNL     1      -8.692   6.937 130.721  0.00  0.00    +0.000 C 
ATOM     11  C   UNL     1      -8.209   4.766 129.600  0.00  0.00    +0.000 C 
BRANCH   9  13
ATOM     12  C   UNL     1      -8.912   5.753 133.076  0.00  0.00    +0.000 C 
ATOM     13  C   UNL     1      -9.168   4.788 131.926  0.00  0.00    +0.000 C 
ENDBRANCH   9  13
ENDBRANCH   8   9
ENDBRANCH   1   8
TORSDOF 3
ENDMDL
MODEL 4
REMARK VINA RESULT:      -4.7      2.723      4.467
REMARK  Name = Bretylium
REMARK  6 active torsions:
REMARK  status: ('A' for Active; 'I' for Inactive)
REMARK    1  A    between atoms: C_1  and  C_2
REMARK    2  A    between atoms: C_2  and  N_3
REMARK    3  A    between atoms: N_3  and  C_4
REMARK    4  A    between atoms: N_3  and  C_5
REMARK    5  A    between atoms: N_3  and  C_6
REMARK    6  A    between atoms: C_6  and  C_7
REMARK                            x       y       z     vdW  Elec       q    Type
REMARK                         _______ _______ _______ _____ _____    ______ ____
ROOT
ATOM      1  C   UNL     1      -7.395  -1.561 124.026  0.00  0.00    +0.000 A 
ATOM      2  C   UNL     1      -6.846  -1.583 122.726  0.00  0.00    +0.000 A 
ATOM      3  C   UNL     1      -5.697  -2.325 122.446  0.00  0.00    +0.000 A 
ATOM      4  C   UNL     1      -5.068  -3.032 123.459  0.00  0.00    +0.000 A 
ATOM      5  C   UNL     1      -5.566  -2.989 124.760  0.00  0.00    +0.000 A 
ATOM      6  C   UNL     1      -6.709  -2.237 125.050  0.00  0.00    +0.000 A 
ATOM      7 BR   UNL     1      -7.275  -2.229 126.865  0.00  0.00    +0.000 Br
ENDROOT
BRANCH   1   8
ATOM      8  C   UNL     1      -8.757  -0.930 124.225  0.00  0.00    +0.000 C 
BRANCH   8   9
ATOM      9  N   UNL     1      -8.720   0.592 124.598  0.00  0.00    +0.000 N 
ATOM     10  C   UNL     1      -7.271   1.057 124.713  0.00  0.00    +0.000 C 
ATOM     11  C   UNL     1      -9.432   0.811 125.927  0.00  0.00    +0.000 C 
BRANCH   9  13
ATOM     12  C   UNL     1     -10.173   0.455 122.511  0.00  0.00    +0.000 C 
ATOM     13  C   UNL     1      -9.431   1.372 123.475  0.00  0.00    +0.000 C 
ENDBRANCH   9  13
ENDBRANCH   8   9
ENDBRANCH   1   8
TORSDOF 3
ENDMDL
MODEL 5
REMARK VINA RESULT:      -4.7      2.929      4.526
REMARK  Name = Bretylium
REMARK  6 active torsions:
REMARK  status: ('A' for Active; 'I' for Inactive)
REMARK    1  A    between atoms: C_1  and  C_2
REMARK    2  A    between atoms: C_2  and  N_3
REMARK    3  A    between atoms: N_3  and  C_4
REMARK    4  A    between atoms: N_3  and  C_5
REMARK    5  A    between atoms: N_3  and  C_6
REMARK    6  A    between atoms: C_6  and  C_7
REMARK                            x       y       z     vdW  Elec       q    Type
REMARK                         _______ _______ _______ _____ _____    ______ ____
ROOT
ATOM      1  C   UNL     1      -7.630  -1.619 123.641  0.00  0.00    +0.000 A 
ATOM      2  C   UNL     1      -6.414  -1.538 122.930  0.00  0.00    +0.000 A 
ATOM      3  C   UNL     1      -5.445  -2.535 123.052  0.00  0.00    +0.000 A 
ATOM      4  C   UNL     1      -5.664  -3.611 123.900  0.00  0.00    +0.000 A 
ATOM      5  C   UNL     1      -6.838  -3.689 124.646  0.00  0.00    +0.000 A 
ATOM      6  C   UNL     1      -7.807  -2.686 124.538  0.00  0.00    +0.000 A 
ATOM      7 BR   UNL     1      -9.351  -2.885 125.630  0.00  0.00    +0.000 Br
ENDROOT
BRANCH   1   8
ATOM      8  C   UNL     1      -8.731  -0.636 123.305  0.00  0.00    +0.000 C 
BRANCH   8   9
ATOM      9  N   UNL     1      -8.600   0.756 124.013  0.00  0.00    +0.000 N 
ATOM     10  C   UNL     1      -9.985   1.365 124.209  0.00  0.00    +0.000 C 
ATOM     11  C   UNL     1      -7.750   1.688 123.156  0.00  0.00    +0.000 C 
BRANCH   9  13
ATOM     12  C   UNL     1      -8.837   0.919 126.543  0.00  0.00    +0.000 C 
ATOM     13  C   UNL     1      -7.931   0.530 125.382  0.00  0.00    +0.000 C 
ENDBRANCH   9  13
ENDBRANCH   8   9
ENDBRANCH   1   8
TORSDOF 3
ENDMDL
MODEL 6
REMARK VINA RESULT:      -4.5      2.433      3.351
REMARK  Name = Bretylium
REMARK  6 active torsions:
REMARK  status: ('A' for Active; 'I' for Inactive)
REMARK    1  A    between atoms: C_1  and  C_2
REMARK    2  A    between atoms: C_2  and  N_3
REMARK    3  A    between atoms: N_3  and  C_4
REMARK    4  A    between atoms: N_3  and  C_5
REMARK    5  A    between atoms: N_3  and  C_6
REMARK    6  A    between atoms: C_6  and  C_7
REMARK                            x       y       z     vdW  Elec       q    Type
REMARK                         _______ _______ _______ _____ _____    ______ ____
ROOT
ATOM      1  C   UNL     1      -7.740  -1.768 126.579  0.00  0.00    +0.000 A 
ATOM      2  C   UNL     1      -7.436  -1.550 127.940  0.00  0.00    +0.000 A 
ATOM      3  C   UNL     1      -7.855  -2.450 128.921  0.00  0.00    +0.000 A 
ATOM      4  C   UNL     1      -8.601  -3.563 128.564  0.00  0.00    +0.000 A 
ATOM      5  C   UNL     1      -8.951  -3.775 127.232  0.00  0.00    +0.000 A 
ATOM      6  C   UNL     1      -8.545  -2.870 126.246  0.00  0.00    +0.000 A 
ATOM      7 BR   UNL     1      -9.111  -3.249 124.470  0.00  0.00    +0.000 Br
ENDROOT
BRANCH   1   8
ATOM      8  C   UNL     1      -7.075  -0.890 125.540  0.00  0.00    +0.000 C 
BRANCH   8   9
ATOM      9  N   UNL     1      -7.830   0.451 125.243  0.00  0.00    +0.000 N 
ATOM     10  C   UNL     1      -7.105   1.609 125.922  0.00  0.00    +0.000 C 
ATOM     11  C   UNL     1      -9.257   0.363 125.771  0.00  0.00    +0.000 C 
BRANCH   9  13
ATOM     12  C   UNL     1      -7.074   1.914 123.301  0.00  0.00    +0.000 C 
ATOM     13  C   UNL     1      -7.836   0.663 123.717  0.00  0.00    +0.000 C 
ENDBRANCH   9  13
ENDBRANCH   8   9
ENDBRANCH   1   8
TORSDOF 3
ENDMDL
MODEL 7
REMARK VINA RESULT:      -4.5      2.678      4.356
REMARK  Name = Bretylium
REMARK  6 active torsions:
REMARK  status: ('A' for Active; 'I' for Inactive)
REMARK    1  A    between atoms: C_1  and  C_2
REMARK    2  A    between atoms: C_2  and  N_3
REMARK    3  A    between atoms: N_3  and  C_4
REMARK    4  A    between atoms: N_3  and  C_5
REMARK    5  A    between atoms: N_3  and  C_6
REMARK    6  A    between atoms: C_6  and  C_7
REMARK                            x       y       z     vdW  Elec       q    Type
REMARK                         _______ _______ _______ _____ _____    ______ ____
ROOT
ATOM      1  C   UNL     1      -8.006  -1.194 123.777  0.00  0.00    +0.000 A 
ATOM      2  C   UNL     1      -9.099  -1.849 123.168  0.00  0.00    +0.000 A 
ATOM      3  C   UNL     1      -9.362  -3.195 123.426  0.00  0.00    +0.000 A 
ATOM      4  C   UNL     1      -8.529  -3.912 124.272  0.00  0.00    +0.000 A 
ATOM      5  C   UNL     1      -7.419  -3.298 124.849  0.00  0.00    +0.000 A 
ATOM      6  C   UNL     1      -7.142  -1.953 124.584  0.00  0.00    +0.000 A 
ATOM      7 BR   UNL     1      -5.583  -1.237 125.403  0.00  0.00    +0.000 Br
ENDROOT
BRANCH   1   8
ATOM      8  C   UNL     1      -7.898   0.309 123.642  0.00  0.00    +0.000 C 
BRANCH   8   9
ATOM      9  N   UNL     1      -8.769   1.119 124.662  0.00  0.00    +0.000 N 
ATOM     10  C   UNL     1      -9.242   0.195 125.780  0.00  0.00    +0.000 C 
ATOM     11  C   UNL     1      -9.977   1.712 123.946  0.00  0.00    +0.000 C 
BRANCH   9  13
ATOM     12  C   UNL     1      -8.115   3.578 124.553  0.00  0.00    +0.000 C 
ATOM     13  C   UNL     1      -7.891   2.241 125.249  0.00  0.00    +0.000 C 
ENDBRANCH   9  13
ENDBRANCH   8   9
ENDBRANCH   1   8
TORSDOF 3
ENDMDL
MODEL 8
REMARK VINA RESULT:      -4.4      2.303      4.379
REMARK  Name = Bretylium
REMARK  6 active torsions:
REMARK  status: ('A' for Active; 'I' for Inactive)
REMARK    1  A    between atoms: C_1  and  C_2
REMARK    2  A    between atoms: C_2  and  N_3
REMARK    3  A    between atoms: N_3  and  C_4
REMARK    4  A    between atoms: N_3  and  C_5
REMARK    5  A    between atoms: N_3  and  C_6
REMARK    6  A    between atoms: C_6  and  C_7
REMARK                            x       y       z     vdW  Elec       q    Type
REMARK                         _______ _______ _______ _____ _____    ______ ____
ROOT
ATOM      1  C   UNL     1      -7.161  -2.608 125.265  0.00  0.00    +0.000 A 
ATOM      2  C   UNL     1      -6.978  -2.285 123.903  0.00  0.00    +0.000 A 
ATOM      3  C   UNL     1      -8.021  -2.430 122.986  0.00  0.00    +0.000 A 
ATOM      4  C   UNL     1      -9.248  -2.920 123.408  0.00  0.00    +0.000 A 
ATOM      5  C   UNL     1      -9.437  -3.287 124.739  0.00  0.00    +0.000 A 
ATOM      6  C   UNL     1      -8.392  -3.157 125.659  0.00  0.00    +0.000 A 
ATOM      7 BR   UNL     1      -8.760  -3.722 127.438  0.00  0.00    +0.000 Br
ENDROOT
BRANCH   1   8
ATOM      8  C   UNL     1      -6.078  -2.223 126.250  0.00  0.00    +0.000 C 
BRANCH   8   9
ATOM      9  N   UNL     1      -6.179  -0.754 126.787  0.00  0.00    +0.000 N 
ATOM     10  C   UNL     1      -7.608  -0.246 126.627  0.00  0.00    +0.000 C 
ATOM     11  C   UNL     1      -5.228   0.144 126.004  0.00  0.00    +0.000 C 
BRANCH   9  13
ATOM     12  C   UNL     1      -5.043  -2.033 128.674  0.00  0.00    +0.000 C 
ATOM     13  C   UNL     1      -5.794  -0.768 128.280  0.00  0.00    +0.000 C 
ENDBRANCH   9  13
ENDBRANCH   8   9
ENDBRANCH   1   8
TORSDOF 3
ENDMDL
MODEL 9
REMARK VINA RESULT:      -4.4      2.825      4.936
REMARK  Name = Bretylium
REMARK  6 active torsions:
REMARK  status: ('A' for Active; 'I' for Inactive)
REMARK    1  A    between atoms: C_1  and  C_2
REMARK    2  A    between atoms: C_2  and  N_3
REMARK    3  A    between atoms: N_3  and  C_4
REMARK    4  A    between atoms: N_3  and  C_5
REMARK    5  A    between atoms: N_3  and  C_6
REMARK    6  A    between atoms: C_6  and  C_7
REMARK                            x       y       z     vdW  Elec       q    Type
REMARK                         _______ _______ _______ _____ _____    ______ ____
ROOT
ATOM      1  C   UNL     1      -7.752  -2.135 128.880  0.00  0.00    +0.000 A 
ATOM      2  C   UNL     1      -8.405  -3.378 129.022  0.00  0.00    +0.000 A 
ATOM      3  C   UNL     1      -8.984  -4.013 127.921  0.00  0.00    +0.000 A 
ATOM      4  C   UNL     1      -8.940  -3.409 126.674  0.00  0.00    +0.000 A 
ATOM      5  C   UNL     1      -8.339  -2.161 126.519  0.00  0.00    +0.000 A 
ATOM      6  C   UNL     1      -7.770  -1.513 127.621  0.00  0.00    +0.000 A 
ATOM      7 BR   UNL     1      -7.009   0.198 127.291  0.00  0.00    +0.000 Br
ENDROOT
BRANCH   1   8
ATOM      8  C   UNL     1      -6.953  -1.601 130.050  0.00  0.00    +0.000 C 
BRANCH   8   9
ATOM      9  N   UNL     1      -5.515  -2.210 130.188  0.00  0.00    +0.000 N 
ATOM     10  C   UNL     1      -4.534  -1.120 130.606  0.00  0.00    +0.000 C 
ATOM     11  C   UNL     1      -5.080  -2.803 128.853  0.00  0.00    +0.000 C 
BRANCH   9  13
ATOM     12  C   UNL     1      -5.421  -4.706 130.684  0.00  0.00    +0.000 C 
ATOM     13  C   UNL     1      -5.567  -3.308 131.269  0.00  0.00    +0.000 C 
ENDBRANCH   9  13
ENDBRANCH   8   9
ENDBRANCH   1   8
TORSDOF 3
ENDMDL
