MODEL 1
REMARK VINA RESULT:      -8.4      0.000      0.000
REMARK  Name = Brexanolone
REMARK  5 active torsions:
REMARK  status: ('A' for Active; 'I' for Inactive)
REMARK    1  A    between atoms: C_2  and  C_26
REMARK    2  A    between atoms: C_14  and  O_15
REMARK    3  A    between atoms: C_18  and  C_19
REMARK    4  A    between atoms: C_24  and  C_25
REMARK    5  A    between atoms: C_26  and  C_27
REMARK                            x       y       z     vdW  Elec       q    Type
REMARK                         _______ _______ _______ _____ _____    ______ ____
ROOT
ATOM      1  C   UNL     1     -10.261   5.196 131.420  0.00  0.00    +0.000 C 
ATOM      2  C   UNL     1      -9.859   6.582 131.644  0.00  0.00    +0.000 C 
ATOM      3  C   UNL     1      -8.451   6.285 131.156  0.00  0.00    +0.000 C 
ATOM      4  C   UNL     1      -7.839   6.023 132.454  0.00  0.00    +0.000 C 
ATOM      5  C   UNL     1      -6.348   5.705 132.404  0.00  0.00    +0.000 C 
ATOM      6  C   UNL     1      -5.836   6.741 131.426  0.00  0.00    +0.000 C 
ATOM      7  C   UNL     1      -4.416   6.565 131.283  0.00  0.00    +0.000 C 
ATOM      8  C   UNL     1      -3.777   6.891 132.626  0.00  0.00    +0.000 C 
ATOM      9  C   UNL     1      -2.410   6.720 132.326  0.00  0.00    +0.000 C 
ATOM     10  C   UNL     1      -1.330   6.687 131.408  0.00  0.00    +0.000 C 
ATOM     11  C   UNL     1      -1.015   5.261 132.277  0.00  0.00    +0.000 C 
ATOM     12  C   UNL     1      -2.594   4.545 133.172  0.00  0.00    +0.000 C 
ATOM     13  C   UNL     1      -3.917   5.744 133.707  0.00  0.00    +0.000 C 
ATOM     14  C   UNL     1      -3.420   6.121 135.143  0.00  0.00    +0.000 C 
ATOM     15  C   UNL     1      -5.592   5.822 133.757  0.00  0.00    +0.000 C 
ATOM     16  C   UNL     1      -6.497   5.097 134.738  0.00  0.00    +0.000 C 
ATOM     17  C   UNL     1      -8.141   5.552 134.507  0.00  0.00    +0.000 C 
ATOM     18  C   UNL     1      -8.916   4.967 132.898  0.00  0.00    +0.000 C 
ATOM     19  C   UNL     1      -9.270   3.758 133.834  0.00  0.00    +0.000 C 
ENDROOT
BRANCH   1  20
ATOM     20  C   UNL     1     -11.236   6.035 130.049  0.00  0.00    +0.000 C 
ATOM     21  C   UNL     1     -12.610   7.090 130.022  0.00  0.00    +0.000 C 
ATOM     22  O   UNL     1     -10.822   5.817 128.832  0.00  0.00    +0.000 OA
ENDBRANCH   1  20
BRANCH  10  23
ATOM     23  O   UNL     1      -1.736   6.531 130.058  0.00  0.00    +0.000 OA
ATOM     24  H   UNL     1      -1.456   7.306 129.542  0.00  0.00    +0.000 HD
ENDBRANCH  10  23
TORSDOF 2
ENDMDL
MODEL 2
REMARK VINA RESULT:      -7.9      8.000      9.825
REMARK  Name = Brexanolone
REMARK  5 active torsions:
REMARK  status: ('A' for Active; 'I' for Inactive)
REMARK    1  A    between atoms: C_2  and  C_26
REMARK    2  A    between atoms: C_14  and  O_15
REMARK    3  A    between atoms: C_18  and  C_19
REMARK    4  A    between atoms: C_24  and  C_25
REMARK    5  A    between atoms: C_26  and  C_27
REMARK                            x       y       z     vdW  Elec       q    Type
REMARK                         _______ _______ _______ _____ _____    ______ ____
ROOT
ATOM      1  C   UNL     1      -8.248   0.077 131.812  0.00  0.00    +0.000 C 
ATOM      2  C   UNL     1      -7.463   1.008 131.007  0.00  0.00    +0.000 C 
ATOM      3  C   UNL     1      -8.236   0.626 129.756  0.00  0.00    +0.000 C 
ATOM      4  C   UNL     1      -7.318  -0.392 129.256  0.00  0.00    +0.000 C 
ATOM      5  C   UNL     1      -7.730  -1.030 127.932  0.00  0.00    +0.000 C 
ATOM      6  C   UNL     1      -8.173   0.174 127.127  0.00  0.00    +0.000 C 
ATOM      7  C   UNL     1      -8.589  -0.281 125.827  0.00  0.00    +0.000 C 
ATOM      8  C   UNL     1      -7.361  -0.842 125.123  0.00  0.00    +0.000 C 
ATOM      9  C   UNL     1      -7.904  -1.200 123.873  0.00  0.00    +0.000 C 
ATOM     10  C   UNL     1      -8.879  -1.065 122.851  0.00  0.00    +0.000 C 
ATOM     11  C   UNL     1      -8.837  -2.758 122.989  0.00  0.00    +0.000 C 
ATOM     12  C   UNL     1      -8.160  -3.370 124.714  0.00  0.00    +0.000 C 
ATOM     13  C   UNL     1      -6.936  -2.286 125.609  0.00  0.00    +0.000 C 
ATOM     14  C   UNL     1      -5.583  -2.812 125.024  0.00  0.00    +0.000 C 
ATOM     15  C   UNL     1      -6.609  -1.799 127.181  0.00  0.00    +0.000 C 
ATOM     16  C   UNL     1      -5.960  -2.641 128.266  0.00  0.00    +0.000 C 
ATOM     17  C   UNL     1      -5.706  -1.711 129.692  0.00  0.00    +0.000 C 
ATOM     18  C   UNL     1      -7.267  -1.199 130.604  0.00  0.00    +0.000 C 
ATOM     19  C   UNL     1      -6.966  -2.566 131.313  0.00  0.00    +0.000 C 
ENDROOT
BRANCH   1  20
ATOM     20  C   UNL     1      -8.905   1.706 132.480  0.00  0.00    +0.000 C 
ATOM     21  C   UNL     1      -8.217   2.981 133.432  0.00  0.00    +0.000 C 
ATOM     22  O   UNL     1     -10.142   1.994 132.184  0.00  0.00    +0.000 OA
ENDBRANCH   1  20
BRANCH  10  23
ATOM     23  O   UNL     1     -10.069  -0.423 123.283  0.00  0.00    +0.000 OA
ATOM     24  H   UNL     1      -9.907   0.027 124.129  0.00  0.00    +0.000 HD
ENDBRANCH  10  23
TORSDOF 2
ENDMDL
MODEL 3
REMARK VINA RESULT:      -7.9      8.698     10.253
REMARK  Name = Brexanolone
REMARK  5 active torsions:
REMARK  status: ('A' for Active; 'I' for Inactive)
REMARK    1  A    between atoms: C_2  and  C_26
REMARK    2  A    between atoms: C_14  and  O_15
REMARK    3  A    between atoms: C_18  and  C_19
REMARK    4  A    between atoms: C_24  and  C_25
REMARK    5  A    between atoms: C_26  and  C_27
REMARK                            x       y       z     vdW  Elec       q    Type
REMARK                         _______ _______ _______ _____ _____    ______ ____
ROOT
ATOM      1  C   UNL     1      -6.763   1.042 123.012  0.00  0.00    +0.000 C 
ATOM      2  C   UNL     1      -7.970   1.425 123.737  0.00  0.00    +0.000 C 
ATOM      3  C   UNL     1      -7.319   1.079 125.066  0.00  0.00    +0.000 C 
ATOM      4  C   UNL     1      -7.824  -0.285 125.188  0.00  0.00    +0.000 C 
ATOM      5  C   UNL     1      -7.408  -1.008 126.466  0.00  0.00    +0.000 C 
ATOM      6  C   UNL     1      -7.614   0.064 127.516  0.00  0.00    +0.000 C 
ATOM      7  C   UNL     1      -7.264  -0.487 128.797  0.00  0.00    +0.000 C 
ATOM      8  C   UNL     1      -8.263  -1.593 129.110  0.00  0.00    +0.000 C 
ATOM      9  C   UNL     1      -7.828  -2.000 130.387  0.00  0.00    +0.000 C 
ATOM     10  C   UNL     1      -7.163  -1.753 131.615  0.00  0.00    +0.000 C 
ATOM     11  C   UNL     1      -6.507  -3.273 131.231  0.00  0.00    +0.000 C 
ATOM     12  C   UNL     1      -6.602  -3.688 129.327  0.00  0.00    +0.000 C 
ATOM     13  C   UNL     1      -7.996  -2.947 128.337  0.00  0.00    +0.000 C 
ATOM     14  C   UNL     1      -9.103  -4.040 128.509  0.00  0.00    +0.000 C 
ATOM     15  C   UNL     1      -8.235  -2.274 126.818  0.00  0.00    +0.000 C 
ATOM     16  C   UNL     1      -8.314  -3.030 125.503  0.00  0.00    +0.000 C 
ATOM     17  C   UNL     1      -8.687  -1.962 124.205  0.00  0.00    +0.000 C 
ATOM     18  C   UNL     1      -7.335  -0.735 123.763  0.00  0.00    +0.000 C 
ATOM     19  C   UNL     1      -6.951  -1.926 122.816  0.00  0.00    +0.000 C 
ENDROOT
BRANCH   1  20
ATOM     20  C   UNL     1      -6.710   2.903 122.755  0.00  0.00    +0.000 C 
ATOM     21  C   UNL     1      -5.950   4.213 123.598  0.00  0.00    +0.000 C 
ATOM     22  O   UNL     1      -7.365   3.361 121.724  0.00  0.00    +0.000 OA
ENDBRANCH   1  20
BRANCH  10  23
ATOM     23  O   UNL     1      -6.275  -0.648 131.569  0.00  0.00    +0.000 OA
ATOM     24  H   UNL     1      -6.517  -0.067 130.828  0.00  0.00    +0.000 HD
ENDBRANCH  10  23
TORSDOF 2
ENDMDL
MODEL 4
REMARK VINA RESULT:      -7.8      8.909     10.995
REMARK  Name = Brexanolone
REMARK  5 active torsions:
REMARK  status: ('A' for Active; 'I' for Inactive)
REMARK    1  A    between atoms: C_2  and  C_26
REMARK    2  A    between atoms: C_14  and  O_15
REMARK    3  A    between atoms: C_18  and  C_19
REMARK    4  A    between atoms: C_24  and  C_25
REMARK    5  A    between atoms: C_26  and  C_27
REMARK                            x       y       z     vdW  Elec       q    Type
REMARK                         _______ _______ _______ _____ _____    ______ ____
ROOT
ATOM      1  C   UNL     1      -7.522  -3.219 130.173  0.00  0.00    +0.000 C 
ATOM      2  C   UNL     1      -6.344  -3.300 129.315  0.00  0.00    +0.000 C 
ATOM      3  C   UNL     1      -6.661  -1.948 128.699  0.00  0.00    +0.000 C 
ATOM      4  C   UNL     1      -7.395  -2.426 127.532  0.00  0.00    +0.000 C 
ATOM      5  C   UNL     1      -7.880  -1.329 126.589  0.00  0.00    +0.000 C 
ATOM      6  C   UNL     1      -6.669  -0.423 126.509  0.00  0.00    +0.000 C 
ATOM      7  C   UNL     1      -6.982   0.672 125.631  0.00  0.00    +0.000 C 
ATOM      8  C   UNL     1      -7.182   0.099 124.235  0.00  0.00    +0.000 C 
ATOM      9  C   UNL     1      -7.433   1.269 123.492  0.00  0.00    +0.000 C 
ATOM     10  C   UNL     1      -7.324   2.670 123.297  0.00  0.00    +0.000 C 
ATOM     11  C   UNL     1      -8.979   2.461 122.972  0.00  0.00    +0.000 C 
ATOM     12  C   UNL     1      -9.718   0.842 123.773  0.00  0.00    +0.000 C 
ATOM     13  C   UNL     1      -8.579  -0.612 124.019  0.00  0.00    +0.000 C 
ATOM     14  C   UNL     1      -8.740  -1.357 122.652  0.00  0.00    +0.000 C 
ATOM     15  C   UNL     1      -8.295  -1.801 125.169  0.00  0.00    +0.000 C 
ATOM     16  C   UNL     1      -9.161  -3.020 125.433  0.00  0.00    +0.000 C 
ATOM     17  C   UNL     1      -8.439  -4.039 126.618  0.00  0.00    +0.000 C 
ATOM     18  C   UNL     1      -8.382  -3.330 128.357  0.00  0.00    +0.000 C 
ATOM     19  C   UNL     1      -9.763  -4.074 128.404  0.00  0.00    +0.000 C 
ENDROOT
BRANCH   1  20
ATOM     20  C   UNL     1      -6.174  -3.017 131.466  0.00  0.00    +0.000 C 
ATOM     21  C   UNL     1      -4.870  -4.020 132.012  0.00  0.00    +0.000 C 
ATOM     22  O   UNL     1      -6.165  -1.887 132.119  0.00  0.00    +0.000 OA
ENDBRANCH   1  20
BRANCH  10  23
ATOM     23  O   UNL     1      -6.994   3.384 124.478  0.00  0.00    +0.000 OA
ATOM     24  H   UNL     1      -6.505   2.803 125.084  0.00  0.00    +0.000 HD
ENDBRANCH  10  23
TORSDOF 2
ENDMDL
MODEL 5
REMARK VINA RESULT:      -7.8      8.176     11.084
REMARK  Name = Brexanolone
REMARK  5 active torsions:
REMARK  status: ('A' for Active; 'I' for Inactive)
REMARK    1  A    between atoms: C_2  and  C_26
REMARK    2  A    between atoms: C_14  and  O_15
REMARK    3  A    between atoms: C_18  and  C_19
REMARK    4  A    between atoms: C_24  and  C_25
REMARK    5  A    between atoms: C_26  and  C_27
REMARK                            x       y       z     vdW  Elec       q    Type
REMARK                         _______ _______ _______ _____ _____    ______ ____
ROOT
ATOM      1  C   UNL     1      -3.781   3.934 125.586  0.00  0.00    +0.000 C 
ATOM      2  C   UNL     1      -4.818   3.865 126.612  0.00  0.00    +0.000 C 
ATOM      3  C   UNL     1      -5.093   2.407 126.279  0.00  0.00    +0.000 C 
ATOM      4  C   UNL     1      -6.196   2.619 125.347  0.00  0.00    +0.000 C 
ATOM      5  C   UNL     1      -6.809   1.340 124.784  0.00  0.00    +0.000 C 
ATOM      6  C   UNL     1      -6.904   0.466 126.017  0.00  0.00    +0.000 C 
ATOM      7  C   UNL     1      -7.483  -0.794 125.633  0.00  0.00    +0.000 C 
ATOM      8  C   UNL     1      -8.914  -0.524 125.188  0.00  0.00    +0.000 C 
ATOM      9  C   UNL     1      -9.358  -1.828 124.891  0.00  0.00    +0.000 C 
ATOM     10  C   UNL     1      -9.285  -3.236 125.047  0.00  0.00    +0.000 C 
ATOM     11  C   UNL     1      -9.372  -3.136 123.352  0.00  0.00    +0.000 C 
ATOM     12  C   UNL     1      -8.800  -1.405 122.657  0.00  0.00    +0.000 C 
ATOM     13  C   UNL     1      -9.037   0.095 123.737  0.00  0.00    +0.000 C 
ATOM     14  C   UNL     1     -10.480   0.539 123.325  0.00  0.00    +0.000 C 
ATOM     15  C   UNL     1      -8.209   1.501 124.129  0.00  0.00    +0.000 C 
ATOM     16  C   UNL     1      -8.055   2.728 123.248  0.00  0.00    +0.000 C 
ATOM     17  C   UNL     1      -7.230   3.985 124.087  0.00  0.00    +0.000 C 
ATOM     18  C   UNL     1      -5.418   3.650 124.451  0.00  0.00    +0.000 C 
ATOM     19  C   UNL     1      -5.296   4.355 123.055  0.00  0.00    +0.000 C 
ENDROOT
BRANCH   1  20
ATOM     20  C   UNL     1      -2.711   4.033 127.128  0.00  0.00    +0.000 C 
ATOM     21  C   UNL     1      -2.605   5.149 128.449  0.00  0.00    +0.000 C 
ATOM     22  O   UNL     1      -1.848   3.069 127.294  0.00  0.00    +0.000 OA
ENDBRANCH   1  20
BRANCH  10  23
ATOM     23  O   UNL     1      -8.056  -3.684 125.594  0.00  0.00    +0.000 OA
ATOM     24  H   UNL     1      -7.807  -4.530 125.185  0.00  0.00    +0.000 HD
ENDBRANCH  10  23
TORSDOF 2
ENDMDL
MODEL 6
REMARK VINA RESULT:      -7.8      7.130      9.029
REMARK  Name = Brexanolone
REMARK  5 active torsions:
REMARK  status: ('A' for Active; 'I' for Inactive)
REMARK    1  A    between atoms: C_2  and  C_26
REMARK    2  A    between atoms: C_14  and  O_15
REMARK    3  A    between atoms: C_18  and  C_19
REMARK    4  A    between atoms: C_24  and  C_25
REMARK    5  A    between atoms: C_26  and  C_27
REMARK                            x       y       z     vdW  Elec       q    Type
REMARK                         _______ _______ _______ _____ _____    ______ ____
ROOT
ATOM      1  C   UNL     1      -9.388   3.077 130.642  0.00  0.00    +0.000 C 
ATOM      2  C   UNL     1      -8.336   3.507 129.724  0.00  0.00    +0.000 C 
ATOM      3  C   UNL     1      -8.978   2.740 128.580  0.00  0.00    +0.000 C 
ATOM      4  C   UNL     1      -8.203   1.510 128.703  0.00  0.00    +0.000 C 
ATOM      5  C   UNL     1      -8.533   0.442 127.664  0.00  0.00    +0.000 C 
ATOM      6  C   UNL     1      -8.623   1.257 126.391  0.00  0.00    +0.000 C 
ATOM      7  C   UNL     1      -8.925   0.364 125.304  0.00  0.00    +0.000 C 
ATOM      8  C   UNL     1      -7.735  -0.569 125.132  0.00  0.00    +0.000 C 
ATOM      9  C   UNL     1      -8.150  -1.339 124.028  0.00  0.00    +0.000 C 
ATOM     10  C   UNL     1      -8.925  -1.520 122.854  0.00  0.00    +0.000 C 
ATOM     11  C   UNL     1      -9.219  -3.005 123.626  0.00  0.00    +0.000 C 
ATOM     12  C   UNL     1      -8.922  -2.937 125.554  0.00  0.00    +0.000 C 
ATOM     13  C   UNL     1      -7.660  -1.730 126.204  0.00  0.00    +0.000 C 
ATOM     14  C   UNL     1      -6.359  -2.598 126.154  0.00  0.00    +0.000 C 
ATOM     15  C   UNL     1      -7.478  -0.688 127.506  0.00  0.00    +0.000 C 
ATOM     16  C   UNL     1      -7.160  -1.085 128.938  0.00  0.00    +0.000 C 
ATOM     17  C   UNL     1      -6.945   0.308 129.927  0.00  0.00    +0.000 C 
ATOM     18  C   UNL     1      -8.498   1.319 130.235  0.00  0.00    +0.000 C 
ATOM     19  C   UNL     1      -8.561   0.332 131.453  0.00  0.00    +0.000 C 
ENDROOT
BRANCH   1  20
ATOM     20  C   UNL     1      -9.820   4.900 130.494  0.00  0.00    +0.000 C 
ATOM     21  C   UNL     1      -9.044   6.365 130.999  0.00  0.00    +0.000 C 
ATOM     22  O   UNL     1     -10.934   5.181 129.876  0.00  0.00    +0.000 OA
ENDBRANCH   1  20
BRANCH  10  23
ATOM     23  O   UNL     1     -10.024  -0.628 122.756  0.00  0.00    +0.000 OA
ATOM     24  H   UNL     1      -9.746   0.181 122.294  0.00  0.00    +0.000 HD
ENDBRANCH  10  23
TORSDOF 2
ENDMDL
MODEL 7
REMARK VINA RESULT:      -7.6      1.634      7.184
REMARK  Name = Brexanolone
REMARK  5 active torsions:
REMARK  status: ('A' for Active; 'I' for Inactive)
REMARK    1  A    between atoms: C_2  and  C_26
REMARK    2  A    between atoms: C_14  and  O_15
REMARK    3  A    between atoms: C_18  and  C_19
REMARK    4  A    between atoms: C_24  and  C_25
REMARK    5  A    between atoms: C_26  and  C_27
REMARK                            x       y       z     vdW  Elec       q    Type
REMARK                         _______ _______ _______ _____ _____    ______ ____
ROOT
ATOM      1  C   UNL     1      -4.715   6.107 134.126  0.00  0.00    +0.000 C 
ATOM      2  C   UNL     1      -4.560   5.579 132.774  0.00  0.00    +0.000 C 
ATOM      3  C   UNL     1      -5.662   6.490 132.259  0.00  0.00    +0.000 C 
ATOM      4  C   UNL     1      -6.771   5.547 132.370  0.00  0.00    +0.000 C 
ATOM      5  C   UNL     1      -8.117   6.087 131.896  0.00  0.00    +0.000 C 
ATOM      6  C   UNL     1      -7.739   6.794 130.612  0.00  0.00    +0.000 C 
ATOM      7  C   UNL     1      -8.933   7.355 130.037  0.00  0.00    +0.000 C 
ATOM      8  C   UNL     1      -9.838   6.197 129.639  0.00  0.00    +0.000 C 
ATOM      9  C   UNL     1     -10.924   6.885 129.064  0.00  0.00    +0.000 C 
ATOM     10  C   UNL     1     -11.482   8.020 128.422  0.00  0.00    +0.000 C 
ATOM     11  C   UNL     1     -12.663   7.752 129.614  0.00  0.00    +0.000 C 
ATOM     12  C   UNL     1     -11.993   6.739 131.141  0.00  0.00    +0.000 C 
ATOM     13  C   UNL     1     -10.607   5.529 130.849  0.00  0.00    +0.000 C 
ATOM     14  C   UNL     1     -11.409   4.233 130.492  0.00  0.00    +0.000 C 
ATOM     15  C   UNL     1      -9.208   5.016 131.620  0.00  0.00    +0.000 C 
ATOM     16  C   UNL     1      -9.133   4.105 132.834  0.00  0.00    +0.000 C 
ATOM     17  C   UNL     1      -7.496   3.740 133.225  0.00  0.00    +0.000 C 
ATOM     18  C   UNL     1      -6.486   5.185 133.873  0.00  0.00    +0.000 C 
ATOM     19  C   UNL     1      -7.049   4.612 135.221  0.00  0.00    +0.000 C 
ENDROOT
BRANCH   1  20
ATOM     20  C   UNL     1      -3.041   6.840 133.689  0.00  0.00    +0.000 C 
ATOM     21  C   UNL     1      -1.501   6.161 133.275  0.00  0.00    +0.000 C 
ATOM     22  O   UNL     1      -2.969   8.142 133.669  0.00  0.00    +0.000 OA
ENDBRANCH   1  20
BRANCH  10  23
ATOM     23  O   UNL     1     -10.697   9.194 128.558  0.00  0.00    +0.000 OA
ATOM     24  H   UNL     1     -10.219   9.169 129.404  0.00  0.00    +0.000 HD
ENDBRANCH  10  23
TORSDOF 2
ENDMDL
MODEL 8
REMARK VINA RESULT:      -7.5      6.603      8.038
REMARK  Name = Brexanolone
REMARK  5 active torsions:
REMARK  status: ('A' for Active; 'I' for Inactive)
REMARK    1  A    between atoms: C_2  and  C_26
REMARK    2  A    between atoms: C_14  and  O_15
REMARK    3  A    between atoms: C_18  and  C_19
REMARK    4  A    between atoms: C_24  and  C_25
REMARK    5  A    between atoms: C_26  and  C_27
REMARK                            x       y       z     vdW  Elec       q    Type
REMARK                         _______ _______ _______ _____ _____    ______ ____
ROOT
ATOM      1  C   UNL     1      -8.882   4.081 130.851  0.00  0.00    +0.000 C 
ATOM      2  C   UNL     1      -7.452   3.812 130.723  0.00  0.00    +0.000 C 
ATOM      3  C   UNL     1      -7.682   3.035 129.437  0.00  0.00    +0.000 C 
ATOM      4  C   UNL     1      -7.759   1.700 130.019  0.00  0.00    +0.000 C 
ATOM      5  C   UNL     1      -7.958   0.573 129.010  0.00  0.00    +0.000 C 
ATOM      6  C   UNL     1      -6.989   0.959 127.912  0.00  0.00    +0.000 C 
ATOM      7  C   UNL     1      -7.063  -0.036 126.875  0.00  0.00    +0.000 C 
ATOM      8  C   UNL     1      -6.551  -1.346 127.459  0.00  0.00    +0.000 C 
ATOM      9  C   UNL     1      -6.639  -2.197 126.340  0.00  0.00    +0.000 C 
ATOM     10  C   UNL     1      -6.679  -2.415 124.939  0.00  0.00    +0.000 C 
ATOM     11  C   UNL     1      -7.978  -3.398 125.421  0.00  0.00    +0.000 C 
ATOM     12  C   UNL     1      -8.724  -2.887 127.150  0.00  0.00    +0.000 C 
ATOM     13  C   UNL     1      -7.588  -2.090 128.393  0.00  0.00    +0.000 C 
ATOM     14  C   UNL     1      -7.028  -3.346 129.140  0.00  0.00    +0.000 C 
ATOM     15  C   UNL     1      -7.642  -0.856 129.530  0.00  0.00    +0.000 C 
ATOM     16  C   UNL     1      -8.334  -0.909 130.881  0.00  0.00    +0.000 C 
ATOM     17  C   UNL     1      -8.041   0.532 131.776  0.00  0.00    +0.000 C 
ATOM     18  C   UNL     1      -8.848   2.082 131.086  0.00  0.00    +0.000 C 
ATOM     19  C   UNL     1      -9.980   1.585 132.053  0.00  0.00    +0.000 C 
ENDROOT
BRANCH   1  20
ATOM     20  C   UNL     1      -8.269   5.809 130.438  0.00  0.00    +0.000 C 
ATOM     21  C   UNL     1      -7.096   6.870 131.145  0.00  0.00    +0.000 C 
ATOM     22  O   UNL     1      -8.805   6.376 129.393  0.00  0.00    +0.000 OA
ENDBRANCH   1  20
BRANCH  10  23
ATOM     23  O   UNL     1      -7.005  -1.253 124.192  0.00  0.00    +0.000 OA
ATOM     24  H   UNL     1      -6.464  -0.506 124.500  0.00  0.00    +0.000 HD
ENDBRANCH  10  23
TORSDOF 2
ENDMDL
MODEL 9
REMARK VINA RESULT:      -7.4      8.578     10.799
REMARK  Name = Brexanolone
REMARK  5 active torsions:
REMARK  status: ('A' for Active; 'I' for Inactive)
REMARK    1  A    between atoms: C_2  and  C_26
REMARK    2  A    between atoms: C_14  and  O_15
REMARK    3  A    between atoms: C_18  and  C_19
REMARK    4  A    between atoms: C_24  and  C_25
REMARK    5  A    between atoms: C_26  and  C_27
REMARK                            x       y       z     vdW  Elec       q    Type
REMARK                         _______ _______ _______ _____ _____    ______ ____
ROOT
ATOM      1  C   UNL     1      -5.663  -2.824 132.128  0.00  0.00    +0.000 C 
ATOM      2  C   UNL     1      -7.111  -2.982 132.020  0.00  0.00    +0.000 C 
ATOM      3  C   UNL     1      -7.001  -3.258 130.530  0.00  0.00    +0.000 C 
ATOM      4  C   UNL     1      -7.234  -1.898 130.055  0.00  0.00    +0.000 C 
ATOM      5  C   UNL     1      -7.240  -1.744 128.537  0.00  0.00    +0.000 C 
ATOM      6  C   UNL     1      -8.059  -2.940 128.101  0.00  0.00    +0.000 C 
ATOM      7  C   UNL     1      -8.158  -2.921 126.666  0.00  0.00    +0.000 C 
ATOM      8  C   UNL     1      -8.961  -1.687 126.279  0.00  0.00    +0.000 C 
ATOM      9  C   UNL     1      -9.011  -1.823 124.877  0.00  0.00    +0.000 C 
ATOM     10  C   UNL     1      -8.963  -2.611 123.698  0.00  0.00    +0.000 C 
ATOM     11  C   UNL     1      -7.925  -1.345 123.243  0.00  0.00    +0.000 C 
ATOM     12  C   UNL     1      -7.156  -0.400 124.768  0.00  0.00    +0.000 C 
ATOM     13  C   UNL     1      -8.144  -0.334 126.346  0.00  0.00    +0.000 C 
ATOM     14  C   UNL     1      -8.990   0.964 126.119  0.00  0.00    +0.000 C 
ATOM     15  C   UNL     1      -7.874  -0.432 127.999  0.00  0.00    +0.000 C 
ATOM     16  C   UNL     1      -7.264   0.648 128.876  0.00  0.00    +0.000 C 
ATOM     17  C   UNL     1      -7.279   0.175 130.531  0.00  0.00    +0.000 C 
ATOM     18  C   UNL     1      -6.132  -1.248 130.968  0.00  0.00    +0.000 C 
ATOM     19  C   UNL     1      -5.172  -0.031 131.213  0.00  0.00    +0.000 C 
ENDROOT
BRANCH   1  20
ATOM     20  C   UNL     1      -5.876  -4.447 133.052  0.00  0.00    +0.000 C 
ATOM     21  C   UNL     1      -6.768  -4.922 134.460  0.00  0.00    +0.000 C 
ATOM     22  O   UNL     1      -5.242  -5.476 132.563  0.00  0.00    +0.000 OA
ENDBRANCH   1  20
BRANCH  10  23
ATOM     23  O   UNL     1      -8.368  -3.884 123.889  0.00  0.00    +0.000 OA
ATOM     24  H   UNL     1      -8.102  -3.983 124.819  0.00  0.00    +0.000 HD
ENDBRANCH  10  23
TORSDOF 2
ENDMDL
