MODEL 1
REMARK VINA RESULT:      -8.6      0.000      0.000
REMARK  Name = Brexpiprazole
REMARK  7 active torsions:
REMARK  status: ('A' for Active; 'I' for Inactive)
REMARK    1  A    between atoms: C_6  and  O_7
REMARK    2  A    between atoms: O_7  and  C_8
REMARK    3  A    between atoms: C_8  and  C_9
REMARK    4  A    between atoms: C_9  and  C_10
REMARK    5  A    between atoms: C_10  and  C_11
REMARK    6  A    between atoms: C_11  and  N_12
REMARK    7  A    between atoms: N_15  and  C_18
REMARK                            x       y       z     vdW  Elec       q    Type
REMARK                         _______ _______ _______ _____ _____    ______ ____
ROOT
ATOM      1  C   UNL     1      -8.158  -1.216 123.193  0.00  0.00    +0.000 C 
ENDROOT
BRANCH   1   2
ATOM      2  C   UNL     1      -9.481  -0.452 123.055  0.00  0.00    +0.000 C 
BRANCH   2   3
ATOM      3  C   UNL     1      -9.485   0.770 123.966  0.00  0.00    +0.000 C 
BRANCH   3   4
ATOM      4  O   UNL     1      -9.724   1.950 123.193  0.00  0.00    +0.000 OA
BRANCH   4  10
ATOM      5  O   UNL     1      -6.064   5.531 118.215  0.00  0.00    +0.000 OA
ATOM      6  C   UNL     1      -6.113   5.013 119.330  0.00  0.00    +0.000 A 
ATOM      7  N   UNL     1      -7.228   4.368 119.785  0.00  0.00    +0.000 N 
ATOM      8  C   UNL     1      -7.313   3.776 121.052  0.00  0.00    +0.000 A 
ATOM      9  C   UNL     1      -8.503   3.162 121.440  0.00  0.00    +0.000 A 
ATOM     10  C   UNL     1      -8.605   2.575 122.703  0.00  0.00    +0.000 A 
ATOM     11  C   UNL     1      -7.501   2.612 123.564  0.00  0.00    +0.000 A 
ATOM     12  C   UNL     1      -6.305   3.229 123.171  0.00  0.00    +0.000 A 
ATOM     13  C   UNL     1      -6.208   3.817 121.909  0.00  0.00    +0.000 A 
ATOM     14  C   UNL     1      -4.988   4.486 121.455  0.00  0.00    +0.000 A 
ATOM     15  C   UNL     1      -4.949   5.062 120.245  0.00  0.00    +0.000 A 
ATOM     16  H   UNL     1      -8.014   4.339 119.150  0.00  0.00    +0.000 HD
ENDBRANCH   4  10
ENDBRANCH   3   4
ENDBRANCH   2   3
ENDBRANCH   1   2
BRANCH   1  17
ATOM     17  C   UNL     1      -8.371  -2.557 123.892  0.00  0.00    +0.000 C 
BRANCH  17  18
ATOM     18  N   UNL     1      -7.891  -2.670 125.258  0.00  0.00    +0.000 NA
ATOM     19  C   UNL     1      -8.988  -2.789 126.234  0.00  0.00    +0.000 C 
ATOM     20  C   UNL     1      -8.461  -3.469 127.502  0.00  0.00    +0.000 C 
ATOM     21  N   UNL     1      -7.390  -2.636 128.052  0.00  0.00    +0.000 N 
ATOM     22  C   UNL     1      -6.286  -2.360 127.121  0.00  0.00    +0.000 C 
ATOM     23  C   UNL     1      -6.855  -1.759 125.791  0.00  0.00    +0.000 C 
BRANCH  21  24
ATOM     24  C   UNL     1      -7.384  -2.280 129.384  0.00  0.00    +0.000 A 
ATOM     25  C   UNL     1      -6.781  -3.092 130.391  0.00  0.00    +0.000 A 
ATOM     26  C   UNL     1      -6.030  -4.314 130.264  0.00  0.00    +0.000 A 
ATOM     27  C   UNL     1      -5.573  -4.804 131.461  0.00  0.00    +0.000 A 
ATOM     28  S   UNL     1      -6.032  -3.814 132.765  0.00  0.00    +0.000 S 
ATOM     29  C   UNL     1      -6.853  -2.700 131.732  0.00  0.00    +0.000 A 
ATOM     30  C   UNL     1      -7.526  -1.532 132.129  0.00  0.00    +0.000 A 
ATOM     31  C   UNL     1      -8.119  -0.743 131.147  0.00  0.00    +0.000 A 
ATOM     32  C   UNL     1      -8.035  -1.103 129.804  0.00  0.00    +0.000 A 
ENDBRANCH  21  24
ENDBRANCH  17  18
ENDBRANCH   1  17
TORSDOF 7
ENDMDL
MODEL 2
REMARK VINA RESULT:      -8.5      5.870      8.222
REMARK  Name = Brexpiprazole
REMARK  7 active torsions:
REMARK  status: ('A' for Active; 'I' for Inactive)
REMARK    1  A    between atoms: C_6  and  O_7
REMARK    2  A    between atoms: O_7  and  C_8
REMARK    3  A    between atoms: C_8  and  C_9
REMARK    4  A    between atoms: C_9  and  C_10
REMARK    5  A    between atoms: C_10  and  C_11
REMARK    6  A    between atoms: C_11  and  N_12
REMARK    7  A    between atoms: N_15  and  C_18
REMARK                            x       y       z     vdW  Elec       q    Type
REMARK                         _______ _______ _______ _____ _____    ______ ____
ROOT
ATOM      1  C   UNL     1      -8.237   2.811 133.308  0.00  0.00    +0.000 C 
ENDROOT
BRANCH   1   2
ATOM      2  C   UNL     1      -8.700   4.226 133.677  0.00  0.00    +0.000 C 
BRANCH   2   3
ATOM      3  C   UNL     1      -8.450   5.184 132.518  0.00  0.00    +0.000 C 
BRANCH   3   4
ATOM      4  O   UNL     1      -9.293   6.332 132.648  0.00  0.00    +0.000 OA
BRANCH   4  10
ATOM      5  O   UNL     1     -10.819   7.868 125.843  0.00  0.00    +0.000 OA
ATOM      6  C   UNL     1     -11.199   7.595 126.981  0.00  0.00    +0.000 A 
ATOM      7  N   UNL     1     -10.326   7.405 128.014  0.00  0.00    +0.000 N 
ATOM      8  C   UNL     1     -10.730   7.086 129.317  0.00  0.00    +0.000 A 
ATOM      9  C   UNL     1      -9.765   6.884 130.302  0.00  0.00    +0.000 A 
ATOM     10  C   UNL     1     -10.153   6.558 131.603  0.00  0.00    +0.000 A 
ATOM     11  C   UNL     1     -11.517   6.441 131.899  0.00  0.00    +0.000 A 
ATOM     12  C   UNL     1     -12.486   6.645 130.907  0.00  0.00    +0.000 A 
ATOM     13  C   UNL     1     -12.094   6.969 129.607  0.00  0.00    +0.000 A 
ATOM     14  C   UNL     1     -13.065   7.178 128.532  0.00  0.00    +0.000 A 
ATOM     15  C   UNL     1     -12.642   7.459 127.291  0.00  0.00    +0.000 A 
ATOM     16  H   UNL     1      -9.345   7.503 127.790  0.00  0.00    +0.000 HD
ENDBRANCH   4  10
ENDBRANCH   3   4
ENDBRANCH   2   3
ENDBRANCH   1   2
BRANCH   1  17
ATOM     17  C   UNL     1      -7.005   2.857 132.406  0.00  0.00    +0.000 C 
BRANCH  17  18
ATOM     18  N   UNL     1      -6.969   1.922 131.295  0.00  0.00    +0.000 NA
ATOM     19  C   UNL     1      -8.315   1.570 130.809  0.00  0.00    +0.000 C 
ATOM     20  C   UNL     1      -8.216   1.096 129.356  0.00  0.00    +0.000 C 
ATOM     21  N   UNL     1      -7.349  -0.082 129.321  0.00  0.00    +0.000 N 
ATOM     22  C   UNL     1      -6.007   0.126 129.884  0.00  0.00    +0.000 C 
ATOM     23  C   UNL     1      -6.127   0.707 131.335  0.00  0.00    +0.000 C 
BRANCH  21  24
ATOM     24  C   UNL     1      -7.744  -1.233 128.672  0.00  0.00    +0.000 A 
ATOM     25  C   UNL     1      -7.917  -1.292 127.257  0.00  0.00    +0.000 A 
ATOM     26  C   UNL     1      -7.663  -0.293 126.253  0.00  0.00    +0.000 A 
ATOM     27  C   UNL     1      -7.922  -0.719 124.974  0.00  0.00    +0.000 A 
ATOM     28  S   UNL     1      -8.475  -2.327 124.946  0.00  0.00    +0.000 S 
ATOM     29  C   UNL     1      -8.370  -2.476 126.663  0.00  0.00    +0.000 A 
ATOM     30  C   UNL     1      -8.683  -3.615 127.425  0.00  0.00    +0.000 A 
ATOM     31  C   UNL     1      -8.519  -3.555 128.806  0.00  0.00    +0.000 A 
ATOM     32  C   UNL     1      -8.044  -2.393 129.412  0.00  0.00    +0.000 A 
ENDBRANCH  21  24
ENDBRANCH  17  18
ENDBRANCH   1  17
TORSDOF 7
ENDMDL
MODEL 3
REMARK VINA RESULT:      -8.4      6.125      7.840
REMARK  Name = Brexpiprazole
REMARK  7 active torsions:
REMARK  status: ('A' for Active; 'I' for Inactive)
REMARK    1  A    between atoms: C_6  and  O_7
REMARK    2  A    between atoms: O_7  and  C_8
REMARK    3  A    between atoms: C_8  and  C_9
REMARK    4  A    between atoms: C_9  and  C_10
REMARK    5  A    between atoms: C_10  and  C_11
REMARK    6  A    between atoms: C_11  and  N_12
REMARK    7  A    between atoms: N_15  and  C_18
REMARK                            x       y       z     vdW  Elec       q    Type
REMARK                         _______ _______ _______ _____ _____    ______ ____
ROOT
ATOM      1  C   UNL     1      -8.992   2.812 133.224  0.00  0.00    +0.000 C 
ENDROOT
BRANCH   1   2
ATOM      2  C   UNL     1      -9.068   4.290 133.623  0.00  0.00    +0.000 C 
BRANCH   2   3
ATOM      3  C   UNL     1      -8.629   5.176 132.463  0.00  0.00    +0.000 C 
BRANCH   3   4
ATOM      4  O   UNL     1      -9.366   6.402 132.484  0.00  0.00    +0.000 OA
BRANCH   4  10
ATOM      5  O   UNL     1     -10.859   7.917 125.666  0.00  0.00    +0.000 OA
ATOM      6  C   UNL     1     -11.243   7.621 126.797  0.00  0.00    +0.000 A 
ATOM      7  N   UNL     1     -10.377   7.461 127.842  0.00  0.00    +0.000 N 
ATOM      8  C   UNL     1     -10.786   7.116 129.137  0.00  0.00    +0.000 A 
ATOM      9  C   UNL     1      -9.827   6.949 130.134  0.00  0.00    +0.000 A 
ATOM     10  C   UNL     1     -10.220   6.599 131.427  0.00  0.00    +0.000 A 
ATOM     11  C   UNL     1     -11.582   6.423 131.704  0.00  0.00    +0.000 A 
ATOM     12  C   UNL     1     -12.544   6.593 130.699  0.00  0.00    +0.000 A 
ATOM     13  C   UNL     1     -12.148   6.941 129.407  0.00  0.00    +0.000 A 
ATOM     14  C   UNL     1     -13.111   7.117 128.319  0.00  0.00    +0.000 A 
ATOM     15  C   UNL     1     -12.683   7.423 127.086  0.00  0.00    +0.000 A 
ATOM     16  H   UNL     1      -9.398   7.601 127.632  0.00  0.00    +0.000 HD
ENDBRANCH   4  10
ENDBRANCH   3   4
ENDBRANCH   2   3
ENDBRANCH   1   2
BRANCH   1  17
ATOM     17  C   UNL     1      -8.510   2.659 131.782  0.00  0.00    +0.000 C 
BRANCH  17  18
ATOM     18  N   UNL     1      -7.815   1.427 131.449  0.00  0.00    +0.000 NA
ATOM     19  C   UNL     1      -8.672   0.238 131.598  0.00  0.00    +0.000 C 
ATOM     20  C   UNL     1      -8.125  -0.889 130.716  0.00  0.00    +0.000 C 
ATOM     21  N   UNL     1      -6.764  -1.194 131.161  0.00  0.00    +0.000 N 
ATOM     22  C   UNL     1      -5.845  -0.047 131.156  0.00  0.00    +0.000 C 
ATOM     23  C   UNL     1      -6.467   1.133 131.979  0.00  0.00    +0.000 C 
BRANCH  21  24
ATOM     24  C   UNL     1      -6.378  -2.493 131.416  0.00  0.00    +0.000 A 
ATOM     25  C   UNL     1      -6.446  -3.070 132.719  0.00  0.00    +0.000 A 
ATOM     26  C   UNL     1      -6.963  -2.522 133.945  0.00  0.00    +0.000 A 
ATOM     27  C   UNL     1      -6.888  -3.387 135.008  0.00  0.00    +0.000 A 
ATOM     28  S   UNL     1      -6.197  -4.875 134.562  0.00  0.00    +0.000 S 
ATOM     29  C   UNL     1      -5.991  -4.378 132.922  0.00  0.00    +0.000 A 
ATOM     30  C   UNL     1      -5.443  -5.143 131.878  0.00  0.00    +0.000 A 
ATOM     31  C   UNL     1      -5.373  -4.578 130.608  0.00  0.00    +0.000 A 
ATOM     32  C   UNL     1      -5.845  -3.287 130.381  0.00  0.00    +0.000 A 
ENDBRANCH  21  24
ENDBRANCH  17  18
ENDBRANCH   1  17
TORSDOF 7
ENDMDL
MODEL 4
REMARK VINA RESULT:      -8.3      6.256      9.244
REMARK  Name = Brexpiprazole
REMARK  7 active torsions:
REMARK  status: ('A' for Active; 'I' for Inactive)
REMARK    1  A    between atoms: C_6  and  O_7
REMARK    2  A    between atoms: O_7  and  C_8
REMARK    3  A    between atoms: C_8  and  C_9
REMARK    4  A    between atoms: C_9  and  C_10
REMARK    5  A    between atoms: C_10  and  C_11
REMARK    6  A    between atoms: C_11  and  N_12
REMARK    7  A    between atoms: N_15  and  C_18
REMARK                            x       y       z     vdW  Elec       q    Type
REMARK                         _______ _______ _______ _____ _____    ______ ____
ROOT
ATOM      1  C   UNL     1      -7.063   4.335 131.354  0.00  0.00    +0.000 C 
ENDROOT
BRANCH   1   2
ATOM      2  C   UNL     1      -7.450   4.713 132.789  0.00  0.00    +0.000 C 
BRANCH   2   3
ATOM      3  C   UNL     1      -8.920   5.108 132.856  0.00  0.00    +0.000 C 
BRANCH   3   4
ATOM      4  O   UNL     1      -9.088   6.439 132.360  0.00  0.00    +0.000 OA
BRANCH   4  10
ATOM      5  O   UNL     1     -11.001   7.746 125.605  0.00  0.00    +0.000 OA
ATOM      6  C   UNL     1     -11.313   7.465 126.762  0.00  0.00    +0.000 A 
ATOM      7  N   UNL     1     -10.387   7.357 127.759  0.00  0.00    +0.000 N 
ATOM      8  C   UNL     1     -10.713   7.030 129.082  0.00  0.00    +0.000 A 
ATOM      9  C   UNL     1      -9.695   6.916 130.028  0.00  0.00    +0.000 A 
ATOM     10  C   UNL     1     -10.005   6.584 131.349  0.00  0.00    +0.000 A 
ATOM     11  C   UNL     1     -11.343   6.372 131.704  0.00  0.00    +0.000 A 
ATOM     12  C   UNL     1     -12.364   6.488 130.751  0.00  0.00    +0.000 A 
ATOM     13  C   UNL     1     -12.051   6.818 129.432  0.00  0.00    +0.000 A 
ATOM     14  C   UNL     1     -13.078   6.938 128.395  0.00  0.00    +0.000 A 
ATOM     15  C   UNL     1     -12.728   7.229 127.134  0.00  0.00    +0.000 A 
ATOM     16  H   UNL     1      -9.426   7.523 127.493  0.00  0.00    +0.000 HD
ENDBRANCH   4  10
ENDBRANCH   3   4
ENDBRANCH   2   3
ENDBRANCH   1   2
BRANCH   1  17
ATOM     17  C   UNL     1      -8.094   3.389 130.741  0.00  0.00    +0.000 C 
BRANCH  17  18
ATOM     18  N   UNL     1      -7.864   2.963 129.372  0.00  0.00    +0.000 NA
ATOM     19  C   UNL     1      -8.004   4.068 128.407  0.00  0.00    +0.000 C 
ATOM     20  C   UNL     1      -7.213   3.731 127.139  0.00  0.00    +0.000 C 
ATOM     21  N   UNL     1      -7.765   2.499 126.573  0.00  0.00    +0.000 N 
ATOM     22  C   UNL     1      -7.775   1.351 127.492  0.00  0.00    +0.000 C 
ATOM     23  C   UNL     1      -8.500   1.746 128.823  0.00  0.00    +0.000 C 
BRANCH  21  24
ATOM     24  C   UNL     1      -8.103   2.423 125.238  0.00  0.00    +0.000 A 
ATOM     25  C   UNL     1      -7.295   2.994 124.210  0.00  0.00    +0.000 A 
ATOM     26  C   UNL     1      -6.015   3.647 124.298  0.00  0.00    +0.000 A 
ATOM     27  C   UNL     1      -5.518   4.048 123.083  0.00  0.00    +0.000 A 
ATOM     28  S   UNL     1      -6.573   3.653 121.810  0.00  0.00    +0.000 S 
ATOM     29  C   UNL     1      -7.718   2.927 122.878  0.00  0.00    +0.000 A 
ATOM     30  C   UNL     1      -8.937   2.329 122.517  0.00  0.00    +0.000 A 
ATOM     31  C   UNL     1      -9.728   1.776 123.521  0.00  0.00    +0.000 A 
ATOM     32  C   UNL     1      -9.310   1.810 124.849  0.00  0.00    +0.000 A 
ENDBRANCH  21  24
ENDBRANCH  17  18
ENDBRANCH   1  17
TORSDOF 7
ENDMDL
MODEL 5
REMARK VINA RESULT:      -8.2      7.193      9.574
REMARK  Name = Brexpiprazole
REMARK  7 active torsions:
REMARK  status: ('A' for Active; 'I' for Inactive)
REMARK    1  A    between atoms: C_6  and  O_7
REMARK    2  A    between atoms: O_7  and  C_8
REMARK    3  A    between atoms: C_8  and  C_9
REMARK    4  A    between atoms: C_9  and  C_10
REMARK    5  A    between atoms: C_10  and  C_11
REMARK    6  A    between atoms: C_11  and  N_12
REMARK    7  A    between atoms: N_15  and  C_18
REMARK                            x       y       z     vdW  Elec       q    Type
REMARK                         _______ _______ _______ _____ _____    ______ ____
ROOT
ATOM      1  C   UNL     1      -7.580   3.733 134.188  0.00  0.00    +0.000 C 
ENDROOT
BRANCH   1   2
ATOM      2  C   UNL     1      -9.024   4.178 133.926  0.00  0.00    +0.000 C 
BRANCH   2   3
ATOM      3  C   UNL     1      -9.137   4.830 132.552  0.00  0.00    +0.000 C 
BRANCH   3   4
ATOM      4  O   UNL     1      -9.760   6.111 132.673  0.00  0.00    +0.000 OA
BRANCH   4  10
ATOM      5  O   UNL     1     -10.972   7.580 125.790  0.00  0.00    +0.000 OA
ATOM      6  C   UNL     1     -11.387   7.481 126.944  0.00  0.00    +0.000 A 
ATOM      7  N   UNL     1     -10.572   7.136 127.985  0.00  0.00    +0.000 N 
ATOM      8  C   UNL     1     -11.020   7.008 129.306  0.00  0.00    +0.000 A 
ATOM      9  C   UNL     1     -10.119   6.625 130.299  0.00  0.00    +0.000 A 
ATOM     10  C   UNL     1     -10.553   6.487 131.618  0.00  0.00    +0.000 A 
ATOM     11  C   UNL     1     -11.896   6.740 131.926  0.00  0.00    +0.000 A 
ATOM     12  C   UNL     1     -12.799   7.126 130.926  0.00  0.00    +0.000 A 
ATOM     13  C   UNL     1     -12.363   7.261 129.607  0.00  0.00    +0.000 A 
ATOM     14  C   UNL     1     -13.268   7.647 128.524  0.00  0.00    +0.000 A 
ATOM     15  C   UNL     1     -12.811   7.737 127.267  0.00  0.00    +0.000 A 
ATOM     16  H   UNL     1      -9.603   6.966 127.752  0.00  0.00    +0.000 HD
ENDBRANCH   4  10
ENDBRANCH   3   4
ENDBRANCH   2   3
ENDBRANCH   1   2
BRANCH   1  17
ATOM     17  C   UNL     1      -7.325   2.339 133.619  0.00  0.00    +0.000 C 
BRANCH  17  18
ATOM     18  N   UNL     1      -6.468   2.253 132.449  0.00  0.00    +0.000 NA
ATOM     19  C   UNL     1      -5.245   3.064 132.585  0.00  0.00    +0.000 C 
ATOM     20  C   UNL     1      -4.164   2.503 131.655  0.00  0.00    +0.000 C 
ATOM     21  N   UNL     1      -4.664   2.578 130.282  0.00  0.00    +0.000 N 
ATOM     22  C   UNL     1      -5.943   1.890 130.055  0.00  0.00    +0.000 C 
ATOM     23  C   UNL     1      -7.009   2.404 131.081  0.00  0.00    +0.000 C 
BRANCH  21  24
ATOM     24  C   UNL     1      -3.897   3.132 129.279  0.00  0.00    +0.000 A 
ATOM     25  C   UNL     1      -3.492   4.500 129.293  0.00  0.00    +0.000 A 
ATOM     26  C   UNL     1      -3.691   5.512 130.297  0.00  0.00    +0.000 A 
ATOM     27  C   UNL     1      -3.130   6.723 129.977  0.00  0.00    +0.000 A 
ATOM     28  S   UNL     1      -2.352   6.677 128.465  0.00  0.00    +0.000 S 
ATOM     29  C   UNL     1      -2.756   5.016 128.220  0.00  0.00    +0.000 A 
ATOM     30  C   UNL     1      -2.416   4.228 127.107  0.00  0.00    +0.000 A 
ATOM     31  C   UNL     1      -2.816   2.895 127.091  0.00  0.00    +0.000 A 
ATOM     32  C   UNL     1      -3.526   2.357 128.162  0.00  0.00    +0.000 A 
ENDBRANCH  21  24
ENDBRANCH  17  18
ENDBRANCH   1  17
TORSDOF 7
ENDMDL
MODEL 6
REMARK VINA RESULT:      -8.1      6.417      9.223
REMARK  Name = Brexpiprazole
REMARK  7 active torsions:
REMARK  status: ('A' for Active; 'I' for Inactive)
REMARK    1  A    between atoms: C_6  and  O_7
REMARK    2  A    between atoms: O_7  and  C_8
REMARK    3  A    between atoms: C_8  and  C_9
REMARK    4  A    between atoms: C_9  and  C_10
REMARK    5  A    between atoms: C_10  and  C_11
REMARK    6  A    between atoms: C_11  and  N_12
REMARK    7  A    between atoms: N_15  and  C_18
REMARK                            x       y       z     vdW  Elec       q    Type
REMARK                         _______ _______ _______ _____ _____    ______ ____
ROOT
ATOM      1  C   UNL     1      -6.702   4.264 132.456  0.00  0.00    +0.000 C 
ENDROOT
BRANCH   1   2
ATOM      2  C   UNL     1      -7.413   5.431 133.152  0.00  0.00    +0.000 C 
BRANCH   2   3
ATOM      3  C   UNL     1      -8.129   6.303 132.128  0.00  0.00    +0.000 C 
BRANCH   3   4
ATOM      4  O   UNL     1      -9.520   6.389 132.450  0.00  0.00    +0.000 OA
BRANCH   4  10
ATOM      5  O   UNL     1     -10.943   7.630 125.563  0.00  0.00    +0.000 OA
ATOM      6  C   UNL     1     -11.340   7.433 126.711  0.00  0.00    +0.000 A 
ATOM      7  N   UNL     1     -10.481   7.261 127.759  0.00  0.00    +0.000 N 
ATOM      8  C   UNL     1     -10.906   7.027 129.074  0.00  0.00    +0.000 A 
ATOM      9  C   UNL     1      -9.955   6.837 130.075  0.00  0.00    +0.000 A 
ATOM     10  C   UNL     1     -10.364   6.596 131.388  0.00  0.00    +0.000 A 
ATOM     11  C   UNL     1     -11.733   6.553 131.680  0.00  0.00    +0.000 A 
ATOM     12  C   UNL     1     -12.687   6.746 130.671  0.00  0.00    +0.000 A 
ATOM     13  C   UNL     1     -12.275   6.984 129.360  0.00  0.00    +0.000 A 
ATOM     14  C   UNL     1     -13.230   7.178 128.268  0.00  0.00    +0.000 A 
ATOM     15  C   UNL     1     -12.789   7.375 127.017  0.00  0.00    +0.000 A 
ATOM     16  H   UNL     1      -9.496   7.305 127.537  0.00  0.00    +0.000 HD
ENDBRANCH   4  10
ENDBRANCH   3   4
ENDBRANCH   2   3
ENDBRANCH   1   2
BRANCH   1  17
ATOM     17  C   UNL     1      -7.583   3.658 131.366  0.00  0.00    +0.000 C 
BRANCH  17  18
ATOM     18  N   UNL     1      -7.204   3.927 129.989  0.00  0.00    +0.000 NA
ATOM     19  C   UNL     1      -8.308   3.684 129.043  0.00  0.00    +0.000 C 
ATOM     20  C   UNL     1      -8.067   4.503 127.771  0.00  0.00    +0.000 C 
ATOM     21  N   UNL     1      -6.799   4.067 127.184  0.00  0.00    +0.000 N 
ATOM     22  C   UNL     1      -5.640   4.164 128.083  0.00  0.00    +0.000 C 
ATOM     23  C   UNL     1      -5.943   3.405 129.420  0.00  0.00    +0.000 C 
BRANCH  21  24
ATOM     24  C   UNL     1      -6.715   3.737 125.847  0.00  0.00    +0.000 A 
ATOM     25  C   UNL     1      -7.386   2.607 125.294  0.00  0.00    +0.000 A 
ATOM     26  C   UNL     1      -8.294   1.677 125.914  0.00  0.00    +0.000 A 
ATOM     27  C   UNL     1      -8.774   0.720 125.056  0.00  0.00    +0.000 A 
ATOM     28  S   UNL     1      -8.147   0.911 123.486  0.00  0.00    +0.000 S 
ATOM     29  C   UNL     1      -7.220   2.296 123.940  0.00  0.00    +0.000 A 
ATOM     30  C   UNL     1      -6.387   3.056 123.101  0.00  0.00    +0.000 A 
ATOM     31  C   UNL     1      -5.728   4.157 123.643  0.00  0.00    +0.000 A 
ATOM     32  C   UNL     1      -5.902   4.497 124.982  0.00  0.00    +0.000 A 
ENDBRANCH  21  24
ENDBRANCH  17  18
ENDBRANCH   1  17
TORSDOF 7
ENDMDL
MODEL 7
REMARK VINA RESULT:      -8.1      3.683      7.962
REMARK  Name = Brexpiprazole
REMARK  7 active torsions:
REMARK  status: ('A' for Active; 'I' for Inactive)
REMARK    1  A    between atoms: C_6  and  O_7
REMARK    2  A    between atoms: O_7  and  C_8
REMARK    3  A    between atoms: C_8  and  C_9
REMARK    4  A    between atoms: C_9  and  C_10
REMARK    5  A    between atoms: C_10  and  C_11
REMARK    6  A    between atoms: C_11  and  N_12
REMARK    7  A    between atoms: N_15  and  C_18
REMARK                            x       y       z     vdW  Elec       q    Type
REMARK                         _______ _______ _______ _____ _____    ______ ____
ROOT
ATOM      1  C   UNL     1      -7.588  -0.252 132.016  0.00  0.00    +0.000 C 
ENDROOT
BRANCH   1   2
ATOM      2  C   UNL     1      -6.935  -1.608 131.722  0.00  0.00    +0.000 C 
BRANCH   2   3
ATOM      3  C   UNL     1      -7.669  -2.315 130.588  0.00  0.00    +0.000 C 
BRANCH   3   4
ATOM      4  O   UNL     1      -6.744  -2.661 129.553  0.00  0.00    +0.000 OA
BRANCH   4  10
ATOM      5  O   UNL     1      -6.663  -1.574 122.495  0.00  0.00    +0.000 OA
ATOM      6  C   UNL     1      -7.224  -2.022 123.495  0.00  0.00    +0.000 A 
ATOM      7  N   UNL     1      -6.694  -1.893 124.747  0.00  0.00    +0.000 N 
ATOM      8  C   UNL     1      -7.307  -2.400 125.900  0.00  0.00    +0.000 A 
ATOM      9  C   UNL     1      -6.677  -2.244 127.134  0.00  0.00    +0.000 A 
ATOM     10  C   UNL     1      -7.273  -2.750 128.290  0.00  0.00    +0.000 A 
ATOM     11  C   UNL     1      -8.505  -3.410 128.191  0.00  0.00    +0.000 A 
ATOM     12  C   UNL     1      -9.137  -3.565 126.949  0.00  0.00    +0.000 A 
ATOM     13  C   UNL     1      -8.537  -3.059 125.795  0.00  0.00    +0.000 A 
ATOM     14  C   UNL     1      -9.148  -3.207 124.473  0.00  0.00    +0.000 A 
ATOM     15  C   UNL     1      -8.522  -2.730 123.388  0.00  0.00    +0.000 A 
ATOM     16  H   UNL     1      -5.810  -1.406 124.807  0.00  0.00    +0.000 HD
ENDBRANCH   4  10
ENDBRANCH   3   4
ENDBRANCH   2   3
ENDBRANCH   1   2
BRANCH   1  17
ATOM     17  C   UNL     1      -6.700   0.897 131.543  0.00  0.00    +0.000 C 
BRANCH  17  18
ATOM     18  N   UNL     1      -6.833   1.302 130.154  0.00  0.00    +0.000 NA
ATOM     19  C   UNL     1      -8.231   1.276 129.691  0.00  0.00    +0.000 C 
ATOM     20  C   UNL     1      -8.382   2.225 128.497  0.00  0.00    +0.000 C 
ATOM     21  N   UNL     1      -7.493   1.759 127.432  0.00  0.00    +0.000 N 
ATOM     22  C   UNL     1      -6.079   1.642 127.818  0.00  0.00    +0.000 C 
ATOM     23  C   UNL     1      -5.954   0.751 129.101  0.00  0.00    +0.000 C 
BRANCH  21  24
ATOM     24  C   UNL     1      -7.958   1.594 126.144  0.00  0.00    +0.000 A 
ATOM     25  C   UNL     1      -7.409   2.303 125.035  0.00  0.00    +0.000 A 
ATOM     26  C   UNL     1      -6.291   3.209 124.980  0.00  0.00    +0.000 A 
ATOM     27  C   UNL     1      -6.030   3.685 123.719  0.00  0.00    +0.000 A 
ATOM     28  S   UNL     1      -7.119   3.060 122.572  0.00  0.00    +0.000 S 
ATOM     29  C   UNL     1      -7.959   2.129 123.760  0.00  0.00    +0.000 A 
ATOM     30  C   UNL     1      -9.061   1.286 123.536  0.00  0.00    +0.000 A 
ATOM     31  C   UNL     1      -9.599   0.597 124.620  0.00  0.00    +0.000 A 
ATOM     32  C   UNL     1      -9.048   0.738 125.892  0.00  0.00    +0.000 A 
ENDBRANCH  21  24
ENDBRANCH  17  18
ENDBRANCH   1  17
TORSDOF 7
ENDMDL
MODEL 8
REMARK VINA RESULT:      -7.9      5.935      9.446
REMARK  Name = Brexpiprazole
REMARK  7 active torsions:
REMARK  status: ('A' for Active; 'I' for Inactive)
REMARK    1  A    between atoms: C_6  and  O_7
REMARK    2  A    between atoms: O_7  and  C_8
REMARK    3  A    between atoms: C_8  and  C_9
REMARK    4  A    between atoms: C_9  and  C_10
REMARK    5  A    between atoms: C_10  and  C_11
REMARK    6  A    between atoms: C_11  and  N_12
REMARK    7  A    between atoms: N_15  and  C_18
REMARK                            x       y       z     vdW  Elec       q    Type
REMARK                         _______ _______ _______ _____ _____    ______ ____
ROOT
ATOM      1  C   UNL     1      -8.240   0.200 131.252  0.00  0.00    +0.000 C 
ENDROOT
BRANCH   1   2
ATOM      2  C   UNL     1      -7.349  -0.964 131.703  0.00  0.00    +0.000 C 
BRANCH   2   3
ATOM      3  C   UNL     1      -7.697  -2.230 130.928  0.00  0.00    +0.000 C 
BRANCH   3   4
ATOM      4  O   UNL     1      -6.718  -2.461 129.912  0.00  0.00    +0.000 OA
BRANCH   4  10
ATOM      5  O   UNL     1      -6.603  -1.715 122.811  0.00  0.00    +0.000 OA
ATOM      6  C   UNL     1      -7.138  -2.166 123.823  0.00  0.00    +0.000 A 
ATOM      7  N   UNL     1      -6.647  -1.926 125.074  0.00  0.00    +0.000 N 
ATOM      8  C   UNL     1      -7.232  -2.433 126.243  0.00  0.00    +0.000 A 
ATOM      9  C   UNL     1      -6.644  -2.158 127.476  0.00  0.00    +0.000 A 
ATOM     10  C   UNL     1      -7.211  -2.662 128.647  0.00  0.00    +0.000 A 
ATOM     11  C   UNL     1      -8.372  -3.441 128.563  0.00  0.00    +0.000 A 
ATOM     12  C   UNL     1      -8.962  -3.716 127.322  0.00  0.00    +0.000 A 
ATOM     13  C   UNL     1      -8.391  -3.212 126.153  0.00  0.00    +0.000 A 
ATOM     14  C   UNL     1      -8.959  -3.481 124.831  0.00  0.00    +0.000 A 
ATOM     15  C   UNL     1      -8.360  -3.000 123.732  0.00  0.00    +0.000 A 
ATOM     16  H   UNL     1      -5.815  -1.354 125.123  0.00  0.00    +0.000 HD
ENDBRANCH   4  10
ENDBRANCH   3   4
ENDBRANCH   2   3
ENDBRANCH   1   2
BRANCH   1  17
ATOM     17  C   UNL     1      -7.970   1.451 132.086  0.00  0.00    +0.000 C 
BRANCH  17  18
ATOM     18  N   UNL     1      -8.478   2.709 131.567  0.00  0.00    +0.000 NA
ATOM     19  C   UNL     1      -9.132   3.524 132.606  0.00  0.00    +0.000 C 
ATOM     20  C   UNL     1      -9.111   4.995 132.177  0.00  0.00    +0.000 C 
ATOM     21  N   UNL     1      -9.843   5.111 130.915  0.00  0.00    +0.000 N 
ATOM     22  C   UNL     1      -9.340   4.253 129.831  0.00  0.00    +0.000 C 
ATOM     23  C   UNL     1      -9.273   2.767 130.322  0.00  0.00    +0.000 C 
BRANCH  21  24
ATOM     24  C   UNL     1     -10.827   6.064 130.753  0.00  0.00    +0.000 A 
ATOM     25  C   UNL     1     -10.962   6.829 129.556  0.00  0.00    +0.000 A 
ATOM     26  C   UNL     1     -10.233   6.742 128.318  0.00  0.00    +0.000 A 
ATOM     27  C   UNL     1     -10.661   7.630 127.364  0.00  0.00    +0.000 A 
ATOM     28  S   UNL     1     -11.946   8.590 127.930  0.00  0.00    +0.000 S 
ATOM     29  C   UNL     1     -11.949   7.817 129.473  0.00  0.00    +0.000 A 
ATOM     30  C   UNL     1     -12.809   8.099 130.548  0.00  0.00    +0.000 A 
ATOM     31  C   UNL     1     -12.674   7.355 131.718  0.00  0.00    +0.000 A 
ATOM     32  C   UNL     1     -11.714   6.350 131.809  0.00  0.00    +0.000 A 
ENDBRANCH  21  24
ENDBRANCH  17  18
ENDBRANCH   1  17
TORSDOF 7
ENDMDL
MODEL 9
REMARK VINA RESULT:      -7.9      5.861      8.189
REMARK  Name = Brexpiprazole
REMARK  7 active torsions:
REMARK  status: ('A' for Active; 'I' for Inactive)
REMARK    1  A    between atoms: C_6  and  O_7
REMARK    2  A    between atoms: O_7  and  C_8
REMARK    3  A    between atoms: C_8  and  C_9
REMARK    4  A    between atoms: C_9  and  C_10
REMARK    5  A    between atoms: C_10  and  C_11
REMARK    6  A    between atoms: C_11  and  N_12
REMARK    7  A    between atoms: N_15  and  C_18
REMARK                            x       y       z     vdW  Elec       q    Type
REMARK                         _______ _______ _______ _____ _____    ______ ____
ROOT
ATOM      1  C   UNL     1      -7.044   3.205 131.939  0.00  0.00    +0.000 C 
ENDROOT
BRANCH   1   2
ATOM      2  C   UNL     1      -7.153   4.544 132.679  0.00  0.00    +0.000 C 
BRANCH   2   3
ATOM      3  C   UNL     1      -7.728   5.613 131.757  0.00  0.00    +0.000 C 
BRANCH   3   4
ATOM      4  O   UNL     1      -8.955   6.111 132.297  0.00  0.00    +0.000 OA
BRANCH   4  10
ATOM      5  O   UNL     1     -11.298   7.556 125.707  0.00  0.00    +0.000 OA
ATOM      6  C   UNL     1     -11.530   7.389 126.904  0.00  0.00    +0.000 A 
ATOM      7  N   UNL     1     -10.541   7.121 127.807  0.00  0.00    +0.000 N 
ATOM      8  C   UNL     1     -10.777   6.919 129.173  0.00  0.00    +0.000 A 
ATOM      9  C   UNL     1      -9.707   6.623 130.015  0.00  0.00    +0.000 A 
ATOM     10  C   UNL     1      -9.929   6.413 131.378  0.00  0.00    +0.000 A 
ATOM     11  C   UNL     1     -11.233   6.505 131.879  0.00  0.00    +0.000 A 
ATOM     12  C   UNL     1     -12.308   6.803 131.030  0.00  0.00    +0.000 A 
ATOM     13  C   UNL     1     -12.083   7.011 129.669  0.00  0.00    +0.000 A 
ATOM     14  C   UNL     1     -13.171   7.311 128.738  0.00  0.00    +0.000 A 
ATOM     15  C   UNL     1     -12.912   7.475 127.433  0.00  0.00    +0.000 A 
ATOM     16  H   UNL     1      -9.602   7.068 127.434  0.00  0.00    +0.000 HD
ENDBRANCH   4  10
ENDBRANCH   3   4
ENDBRANCH   2   3
ENDBRANCH   1   2
BRANCH   1  17
ATOM     17  C   UNL     1      -8.387   2.806 131.330  0.00  0.00    +0.000 C 
BRANCH  17  18
ATOM     18  N   UNL     1      -8.347   1.985 130.132  0.00  0.00    +0.000 NA
ATOM     19  C   UNL     1      -7.361   0.893 130.229  0.00  0.00    +0.000 C 
ATOM     20  C   UNL     1      -7.757  -0.228 129.262  0.00  0.00    +0.000 C 
ATOM     21  N   UNL     1      -7.763   0.323 127.906  0.00  0.00    +0.000 N 
ATOM     22  C   UNL     1      -8.635   1.491 127.721  0.00  0.00    +0.000 C 
ATOM     23  C   UNL     1      -8.283   2.588 128.783  0.00  0.00    +0.000 C 
BRANCH  21  24
ATOM     24  C   UNL     1      -7.103  -0.319 126.880  0.00  0.00    +0.000 A 
ATOM     25  C   UNL     1      -7.665  -1.431 126.185  0.00  0.00    +0.000 A 
ATOM     26  C   UNL     1      -8.964  -2.039 126.314  0.00  0.00    +0.000 A 
ATOM     27  C   UNL     1      -9.169  -3.086 125.450  0.00  0.00    +0.000 A 
ATOM     28  S   UNL     1      -7.811  -3.365 124.465  0.00  0.00    +0.000 S 
ATOM     29  C   UNL     1      -6.923  -2.072 125.186  0.00  0.00    +0.000 A 
ATOM     30  C   UNL     1      -5.619  -1.665 124.855  0.00  0.00    +0.000 A 
ATOM     31  C   UNL     1      -5.069  -0.583 125.537  0.00  0.00    +0.000 A 
ATOM     32  C   UNL     1      -5.802   0.083 126.516  0.00  0.00    +0.000 A 
ENDBRANCH  21  24
ENDBRANCH  17  18
ENDBRANCH   1  17
TORSDOF 7
ENDMDL
