MODEL 1
REMARK VINA RESULT:      -8.6      0.000      0.000
REMARK  Name = Brigatinib
REMARK  10 active torsions:
REMARK  status: ('A' for Active; 'I' for Inactive)
REMARK    1  A    between atoms: C_1  and  O_2
REMARK    2  A    between atoms: O_2  and  C_3
REMARK    3  A    between atoms: C_5  and  N_28
REMARK    4  A    between atoms: C_8  and  N_9
REMARK    5  A    between atoms: N_16  and  C_17
REMARK    6  A    between atoms: C_22  and  P_23
REMARK    7  A    between atoms: P_23  and  C_24
REMARK    8  A    between atoms: P_23  and  C_25
REMARK    9  A    between atoms: C_31  and  N_34
REMARK   10  A    between atoms: N_37  and  C_38
REMARK                            x       y       z     vdW  Elec       q    Type
REMARK                         _______ _______ _______ _____ _____    ______ ____
ROOT
ATOM      1  C   UNL     1      -2.936   4.079 127.418  0.00  0.00    +0.000 A 
ATOM      2  C   UNL     1      -2.512   4.932 128.354  0.00  0.00    +0.000 A 
ATOM      3  C   UNL     1      -3.271   6.035 128.703  0.00  0.00    +0.000 A 
ATOM      4  C   UNL     1      -4.277   6.469 127.838  0.00  0.00    +0.000 A 
ATOM      5  C   UNL     1      -4.661   5.642 126.797  0.00  0.00    +0.000 A 
ATOM      6  C   UNL     1      -4.046   4.383 126.586  0.00  0.00    +0.000 A 
ENDROOT
BRANCH   6   7
ATOM      7  N   UNL     1      -4.662   3.489 125.677  0.00  0.00    +0.000 N 
ATOM      8  C   UNL     1      -5.567   2.512 126.098  0.00  0.00    +0.000 A 
ATOM      9  N   UNL     1      -6.779   2.993 126.438  0.00  0.00    +0.000 NA
ATOM     10  C   UNL     1      -7.531   2.264 127.288  0.00  0.00    +0.000 A 
ATOM     11  C   UNL     1      -7.155   1.040 127.810  0.00  0.00    +0.000 A 
ATOM     12 CL   UNL     1      -8.284   0.260 128.847  0.00  0.00    +0.000 Cl
ATOM     13  C   UNL     1      -5.934   0.502 127.329  0.00  0.00    +0.000 A 
ATOM     14  N   UNL     1      -5.702  -0.943 127.405  0.00  0.00    +0.000 N 
ATOM     15  N   UNL     1      -5.126   1.246 126.447  0.00  0.00    +0.000 NA
ATOM     16  H   UNL     1      -4.042   3.173 124.948  0.00  0.00    +0.000 HD
ATOM     17  H   UNL     1      -4.989  -1.166 126.695  0.00  0.00    +0.000 HD
BRANCH  14  18
ATOM     18  C   UNL     1      -6.726  -1.988 127.445  0.00  0.00    +0.000 A 
ATOM     19  C   UNL     1      -6.798  -2.616 128.690  0.00  0.00    +0.000 A 
ATOM     20  C   UNL     1      -7.819  -3.519 128.962  0.00  0.00    +0.000 A 
ATOM     21  C   UNL     1      -8.776  -3.824 127.991  0.00  0.00    +0.000 A 
ATOM     22  C   UNL     1      -8.696  -3.284 126.706  0.00  0.00    +0.000 A 
ATOM     23  C   UNL     1      -7.658  -2.403 126.385  0.00  0.00    +0.000 A 
BRANCH  23  24
ATOM     24  P   UNL     1      -7.596  -1.688 124.701  0.00  0.00    +0.000 P 
ATOM     25  C   UNL     1      -6.119  -2.287 123.866  0.00  0.00    +0.000 C 
ATOM     26  C   UNL     1      -8.663  -3.197 124.058  0.00  0.00    +0.000 C 
ATOM     27  O   UNL     1      -7.544  -1.084 123.276  0.00  0.00    +0.000 OA
ENDBRANCH  23  24
ENDBRANCH  14  18
ENDBRANCH   6   7
BRANCH   3  28
ATOM     28  N   UNL     1      -2.954   6.525 129.900  0.00  0.00    +0.000 N 
ATOM     29  C   UNL     1      -1.550   6.410 130.138  0.00  0.00    +0.000 C 
ATOM     30  C   UNL     1      -1.358   5.993 131.581  0.00  0.00    +0.000 C 
ATOM     31  C   UNL     1      -1.955   7.025 132.545  0.00  0.00    +0.000 C 
ATOM     32  C   UNL     1      -3.448   7.257 132.125  0.00  0.00    +0.000 C 
ATOM     33  C   UNL     1      -3.682   7.543 130.631  0.00  0.00    +0.000 C 
BRANCH  31  34
ATOM     34  N   UNL     1      -1.162   8.262 132.784  0.00  0.00    +0.000 NA
ATOM     35  C   UNL     1       0.021   8.151 133.645  0.00  0.00    +0.000 C 
ATOM     36  C   UNL     1      -0.287   8.199 135.154  0.00  0.00    +0.000 C 
ATOM     37  N   UNL     1      -0.975   9.387 135.647  0.00  0.00    +0.000 NA
ATOM     38  C   UNL     1      -1.347   9.070 137.044  0.00  0.00    +0.000 C 
ATOM     39  C   UNL     1      -2.200   9.544 134.811  0.00  0.00    +0.000 C 
ATOM     40  C   UNL     1      -1.943   9.431 133.269  0.00  0.00    +0.000 C 
ENDBRANCH  31  34
ENDBRANCH   3  28
BRANCH   1  42
ATOM     41  C   UNL     1      -1.264   2.768 126.599  0.00  0.00    +0.000 C 
ATOM     42  O   UNL     1      -2.233   2.918 127.592  0.00  0.00    +0.000 OA
ENDBRANCH   1  42
TORSDOF 6
ENDMDL
MODEL 2
REMARK VINA RESULT:      -8.3      7.223     13.079
REMARK  Name = Brigatinib
REMARK  10 active torsions:
REMARK  status: ('A' for Active; 'I' for Inactive)
REMARK    1  A    between atoms: C_1  and  O_2
REMARK    2  A    between atoms: O_2  and  C_3
REMARK    3  A    between atoms: C_5  and  N_28
REMARK    4  A    between atoms: C_8  and  N_9
REMARK    5  A    between atoms: N_16  and  C_17
REMARK    6  A    between atoms: C_22  and  P_23
REMARK    7  A    between atoms: P_23  and  C_24
REMARK    8  A    between atoms: P_23  and  C_25
REMARK    9  A    between atoms: C_31  and  N_34
REMARK   10  A    between atoms: N_37  and  C_38
REMARK                            x       y       z     vdW  Elec       q    Type
REMARK                         _______ _______ _______ _____ _____    ______ ____
ROOT
ATOM      1  C   UNL     1      -3.887   5.759 133.472  0.00  0.00    +0.000 A 
ATOM      2  C   UNL     1      -5.075   5.513 132.912  0.00  0.00    +0.000 A 
ATOM      3  C   UNL     1      -6.230   5.512 133.672  0.00  0.00    +0.000 A 
ATOM      4  C   UNL     1      -6.130   5.392 135.059  0.00  0.00    +0.000 A 
ATOM      5  C   UNL     1      -4.889   5.542 135.653  0.00  0.00    +0.000 A 
ATOM      6  C   UNL     1      -3.726   5.796 134.883  0.00  0.00    +0.000 A 
ENDROOT
BRANCH   6   7
ATOM      7  N   UNL     1      -2.553   6.195 135.568  0.00  0.00    +0.000 N 
ATOM      8  C   UNL     1      -2.062   7.501 135.493  0.00  0.00    +0.000 A 
ATOM      9  N   UNL     1      -2.775   8.399 136.201  0.00  0.00    +0.000 NA
ATOM     10  C   UNL     1      -2.706   9.693 135.828  0.00  0.00    +0.000 A 
ATOM     11  C   UNL     1      -1.929  10.166 134.786  0.00  0.00    +0.000 A 
ATOM     12 CL   UNL     1      -1.959  11.862 134.504  0.00  0.00    +0.000 Cl
ATOM     13  C   UNL     1      -1.091   9.215 134.149  0.00  0.00    +0.000 A 
ATOM     14  N   UNL     1       0.097   9.672 133.423  0.00  0.00    +0.000 N 
ATOM     15  N   UNL     1      -1.149   7.856 134.514  0.00  0.00    +0.000 NA
ATOM     16  H   UNL     1      -1.830   5.494 135.560  0.00  0.00    +0.000 HD
ATOM     17  H   UNL     1       0.743   8.870 133.377  0.00  0.00    +0.000 HD
BRANCH  14  18
ATOM     18  C   UNL     1       0.839  10.911 133.660  0.00  0.00    +0.000 A 
ATOM     19  C   UNL     1       0.838  11.754 132.546  0.00  0.00    +0.000 A 
ATOM     20  C   UNL     1       1.354  13.041 132.642  0.00  0.00    +0.000 A 
ATOM     21  C   UNL     1       1.894  13.504 133.843  0.00  0.00    +0.000 A 
ATOM     22  C   UNL     1       1.992  12.669 134.958  0.00  0.00    +0.000 A 
ATOM     23  C   UNL     1       1.519  11.355 134.887  0.00  0.00    +0.000 A 
BRANCH  23  24
ATOM     24  P   UNL     1       1.634  10.293 136.373  0.00  0.00    +0.000 P 
ATOM     25  C   UNL     1       3.072  10.787 137.335  0.00  0.00    +0.000 C 
ATOM     26  C   UNL     1       0.473  11.553 137.320  0.00  0.00    +0.000 C 
ATOM     27  O   UNL     1       1.729   9.396 137.631  0.00  0.00    +0.000 OA
ENDBRANCH  23  24
ENDBRANCH  14  18
ENDBRANCH   6   7
BRANCH   3  28
ATOM     28  N   UNL     1      -7.331   5.686 132.943  0.00  0.00    +0.000 N 
ATOM     29  C   UNL     1      -6.997   5.946 131.579  0.00  0.00    +0.000 C 
ATOM     30  C   UNL     1      -7.931   7.025 131.072  0.00  0.00    +0.000 C 
ATOM     31  C   UNL     1      -9.397   6.584 131.163  0.00  0.00    +0.000 C 
ATOM     32  C   UNL     1      -9.664   6.130 132.641  0.00  0.00    +0.000 C 
ATOM     33  C   UNL     1      -8.643   5.138 133.225  0.00  0.00    +0.000 C 
BRANCH  31  34
ATOM     34  N   UNL     1      -9.887   5.650 130.112  0.00  0.00    +0.000 NA
ATOM     35  C   UNL     1      -9.671   6.035 128.713  0.00  0.00    +0.000 C 
ATOM     36  C   UNL     1     -10.718   7.019 128.158  0.00  0.00    +0.000 C 
ATOM     37  N   UNL     1     -12.111   6.590 128.198  0.00  0.00    +0.000 NA
ATOM     38  C   UNL     1     -12.900   7.788 127.836  0.00  0.00    +0.000 C 
ATOM     39  C   UNL     1     -12.392   6.195 129.609  0.00  0.00    +0.000 C 
ATOM     40  C   UNL     1     -11.313   5.248 130.237  0.00  0.00    +0.000 C 
ENDBRANCH  31  34
ENDBRANCH   3  28
BRANCH   1  42
ATOM     41  C   UNL     1      -3.463   7.284 131.835  0.00  0.00    +0.000 C 
ATOM     42  O   UNL     1      -3.036   6.112 132.460  0.00  0.00    +0.000 OA
ENDBRANCH   1  42
TORSDOF 6
ENDMDL
MODEL 3
REMARK VINA RESULT:      -8.2      3.467      5.316
REMARK  Name = Brigatinib
REMARK  10 active torsions:
REMARK  status: ('A' for Active; 'I' for Inactive)
REMARK    1  A    between atoms: C_1  and  O_2
REMARK    2  A    between atoms: O_2  and  C_3
REMARK    3  A    between atoms: C_5  and  N_28
REMARK    4  A    between atoms: C_8  and  N_9
REMARK    5  A    between atoms: N_16  and  C_17
REMARK    6  A    between atoms: C_22  and  P_23
REMARK    7  A    between atoms: P_23  and  C_24
REMARK    8  A    between atoms: P_23  and  C_25
REMARK    9  A    between atoms: C_31  and  N_34
REMARK   10  A    between atoms: N_37  and  C_38
REMARK                            x       y       z     vdW  Elec       q    Type
REMARK                         _______ _______ _______ _____ _____    ______ ____
ROOT
ATOM      1  C   UNL     1      -7.024  -0.190 132.282  0.00  0.00    +0.000 A 
ATOM      2  C   UNL     1      -6.441   0.840 132.902  0.00  0.00    +0.000 A 
ATOM      3  C   UNL     1      -5.077   0.850 133.129  0.00  0.00    +0.000 A 
ATOM      4  C   UNL     1      -4.368  -0.350 133.061  0.00  0.00    +0.000 A 
ATOM      5  C   UNL     1      -4.990  -1.460 132.514  0.00  0.00    +0.000 A 
ATOM      6  C   UNL     1      -6.325  -1.404 132.044  0.00  0.00    +0.000 A 
ENDROOT
BRANCH   6   7
ATOM      7  N   UNL     1      -6.800  -2.488 131.267  0.00  0.00    +0.000 N 
ATOM      8  C   UNL     1      -6.748  -2.476 129.871  0.00  0.00    +0.000 A 
ATOM      9  N   UNL     1      -5.513  -2.660 129.365  0.00  0.00    +0.000 NA
ATOM     10  C   UNL     1      -5.266  -2.195 128.123  0.00  0.00    +0.000 A 
ATOM     11  C   UNL     1      -6.203  -1.568 127.322  0.00  0.00    +0.000 A 
ATOM     12 CL   UNL     1      -5.684  -1.087 125.755  0.00  0.00    +0.000 Cl
ATOM     13  C   UNL     1      -7.524  -1.510 127.834  0.00  0.00    +0.000 A 
ATOM     14  N   UNL     1      -8.649  -1.350 126.909  0.00  0.00    +0.000 N 
ATOM     15  N   UNL     1      -7.808  -1.982 129.130  0.00  0.00    +0.000 NA
ATOM     16  H   UNL     1      -7.643  -2.900 131.633  0.00  0.00    +0.000 HD
ATOM     17  H   UNL     1      -9.485  -1.706 127.395  0.00  0.00    +0.000 HD
BRANCH  14  18
ATOM     18  C   UNL     1      -8.677  -1.735 125.498  0.00  0.00    +0.000 A 
ATOM     19  C   UNL     1      -8.636  -3.121 125.323  0.00  0.00    +0.000 A 
ATOM     20  C   UNL     1      -8.817  -3.673 124.060  0.00  0.00    +0.000 A 
ATOM     21  C   UNL     1      -9.027  -2.854 122.948  0.00  0.00    +0.000 A 
ATOM     22  C   UNL     1      -8.992  -1.463 123.062  0.00  0.00    +0.000 A 
ATOM     23  C   UNL     1      -8.772  -0.872 124.310  0.00  0.00    +0.000 A 
BRANCH  23  24
ATOM     24  P   UNL     1      -8.763   0.954 124.433  0.00  0.00    +0.000 P 
ATOM     25  C   UNL     1      -7.336   1.593 123.542  0.00  0.00    +0.000 C 
ATOM     26  C   UNL     1      -9.891   1.033 122.835  0.00  0.00    +0.000 C 
ATOM     27  O   UNL     1      -8.756   2.499 124.536  0.00  0.00    +0.000 OA
ENDBRANCH  23  24
ENDBRANCH  14  18
ENDBRANCH   6   7
BRANCH   3  28
ATOM     28  N   UNL     1      -4.596   2.073 133.344  0.00  0.00    +0.000 N 
ATOM     29  C   UNL     1      -3.663   2.435 132.325  0.00  0.00    +0.000 C 
ATOM     30  C   UNL     1      -2.511   3.160 132.989  0.00  0.00    +0.000 C 
ATOM     31  C   UNL     1      -2.990   4.424 133.714  0.00  0.00    +0.000 C 
ATOM     32  C   UNL     1      -4.144   4.002 134.688  0.00  0.00    +0.000 C 
ATOM     33  C   UNL     1      -5.258   3.142 134.064  0.00  0.00    +0.000 C 
BRANCH  31  34
ATOM     34  N   UNL     1      -3.272   5.619 132.871  0.00  0.00    +0.000 NA
ATOM     35  C   UNL     1      -2.353   5.895 131.761  0.00  0.00    +0.000 C 
ATOM     36  C   UNL     1      -1.068   6.638 132.173  0.00  0.00    +0.000 C 
ATOM     37  N   UNL     1      -1.236   7.931 132.826  0.00  0.00    +0.000 NA
ATOM     38  C   UNL     1       0.111   8.299 133.315  0.00  0.00    +0.000 C 
ATOM     39  C   UNL     1      -2.157   7.707 133.977  0.00  0.00    +0.000 C 
ATOM     40  C   UNL     1      -3.448   6.893 133.617  0.00  0.00    +0.000 C 
ENDBRANCH  31  34
ENDBRANCH   3  28
BRANCH   1  42
ATOM     41  C   UNL     1      -8.074   1.210 130.825  0.00  0.00    +0.000 C 
ATOM     42  O   UNL     1      -8.237   0.254 131.828  0.00  0.00    +0.000 OA
ENDBRANCH   1  42
TORSDOF 6
ENDMDL
MODEL 4
REMARK VINA RESULT:      -8.1      2.375      3.300
REMARK  Name = Brigatinib
REMARK  10 active torsions:
REMARK  status: ('A' for Active; 'I' for Inactive)
REMARK    1  A    between atoms: C_1  and  O_2
REMARK    2  A    between atoms: O_2  and  C_3
REMARK    3  A    between atoms: C_5  and  N_28
REMARK    4  A    between atoms: C_8  and  N_9
REMARK    5  A    between atoms: N_16  and  C_17
REMARK    6  A    between atoms: C_22  and  P_23
REMARK    7  A    between atoms: P_23  and  C_24
REMARK    8  A    between atoms: P_23  and  C_25
REMARK    9  A    between atoms: C_31  and  N_34
REMARK   10  A    between atoms: N_37  and  C_38
REMARK                            x       y       z     vdW  Elec       q    Type
REMARK                         _______ _______ _______ _____ _____    ______ ____
ROOT
ATOM      1  C   UNL     1      -5.926   4.916 130.331  0.00  0.00    +0.000 A 
ATOM      2  C   UNL     1      -4.958   5.163 131.219  0.00  0.00    +0.000 A 
ATOM      3  C   UNL     1      -3.626   5.099 130.851  0.00  0.00    +0.000 A 
ATOM      4  C   UNL     1      -3.276   4.422 129.681  0.00  0.00    +0.000 A 
ATOM      5  C   UNL     1      -4.277   4.066 128.794  0.00  0.00    +0.000 A 
ATOM      6  C   UNL     1      -5.638   4.357 129.057  0.00  0.00    +0.000 A 
ENDROOT
BRANCH   6   7
ATOM      7  N   UNL     1      -6.565   4.203 127.998  0.00  0.00    +0.000 N 
ATOM      8  C   UNL     1      -7.039   2.948 127.607  0.00  0.00    +0.000 A 
ATOM      9  N   UNL     1      -7.929   2.404 128.460  0.00  0.00    +0.000 NA
ATOM     10  C   UNL     1      -8.069   1.063 128.454  0.00  0.00    +0.000 A 
ATOM     11  C   UNL     1      -7.381   0.209 127.611  0.00  0.00    +0.000 A 
ATOM     12 CL   UNL     1      -7.741  -1.467 127.746  0.00  0.00    +0.000 Cl
ATOM     13  C   UNL     1      -6.553   0.824 126.638  0.00  0.00    +0.000 A 
ATOM     14  N   UNL     1      -6.203   0.088 125.420  0.00  0.00    +0.000 N 
ATOM     15  N   UNL     1      -6.383   2.222 126.626  0.00  0.00    +0.000 NA
ATOM     16  H   UNL     1      -6.393   4.825 127.225  0.00  0.00    +0.000 HD
ATOM     17  H   UNL     1      -5.949   0.792 124.711  0.00  0.00    +0.000 HD
BRANCH  14  18
ATOM     18  C   UNL     1      -6.971  -0.997 124.807  0.00  0.00    +0.000 A 
ATOM     19  C   UNL     1      -6.288  -2.214 124.834  0.00  0.00    +0.000 A 
ATOM     20  C   UNL     1      -6.927  -3.385 124.445  0.00  0.00    +0.000 A 
ATOM     21  C   UNL     1      -8.253  -3.361 124.007  0.00  0.00    +0.000 A 
ATOM     22  C   UNL     1      -8.948  -2.156 123.883  0.00  0.00    +0.000 A 
ATOM     23  C   UNL     1      -8.323  -0.953 124.228  0.00  0.00    +0.000 A 
BRANCH  23  24
ATOM     24  P   UNL     1      -9.269   0.607 124.085  0.00  0.00    +0.000 P 
ATOM     25  C   UNL     1      -8.276   1.814 123.194  0.00  0.00    +0.000 C 
ATOM     26  C   UNL     1     -10.068  -0.069 122.431  0.00  0.00    +0.000 C 
ATOM     27  O   UNL     1     -10.071   1.926 123.963  0.00  0.00    +0.000 OA
ENDBRANCH  23  24
ENDBRANCH  14  18
ENDBRANCH   6   7
BRANCH   3  28
ATOM     28  N   UNL     1      -2.827   5.770 131.678  0.00  0.00    +0.000 N 
ATOM     29  C   UNL     1      -3.514   6.882 132.253  0.00  0.00    +0.000 C 
ATOM     30  C   UNL     1      -2.551   8.050 132.291  0.00  0.00    +0.000 C 
ATOM     31  C   UNL     1      -1.311   7.727 133.134  0.00  0.00    +0.000 C 
ATOM     32  C   UNL     1      -0.699   6.393 132.580  0.00  0.00    +0.000 C 
ATOM     33  C   UNL     1      -1.691   5.231 132.400  0.00  0.00    +0.000 C 
BRANCH  31  34
ATOM     34  N   UNL     1      -1.465   7.790 134.613  0.00  0.00    +0.000 NA
ATOM     35  C   UNL     1      -2.071   9.001 135.178  0.00  0.00    +0.000 C 
ATOM     36  C   UNL     1      -1.092  10.178 135.349  0.00  0.00    +0.000 C 
ATOM     37  N   UNL     1       0.080   9.943 136.185  0.00  0.00    +0.000 NA
ATOM     38  C   UNL     1       0.946  11.127 135.986  0.00  0.00    +0.000 C 
ATOM     39  C   UNL     1       0.746   8.722 135.647  0.00  0.00    +0.000 C 
ATOM     40  C   UNL     1      -0.227   7.521 135.391  0.00  0.00    +0.000 C 
ENDBRANCH  31  34
ENDBRANCH   3  28
BRANCH   1  42
ATOM     41  C   UNL     1      -6.932   6.829 131.045  0.00  0.00    +0.000 C 
ATOM     42  O   UNL     1      -7.076   5.457 130.837  0.00  0.00    +0.000 OA
ENDBRANCH   1  42
TORSDOF 6
ENDMDL
MODEL 5
REMARK VINA RESULT:      -7.9      2.579      3.420
REMARK  Name = Brigatinib
REMARK  10 active torsions:
REMARK  status: ('A' for Active; 'I' for Inactive)
REMARK    1  A    between atoms: C_1  and  O_2
REMARK    2  A    between atoms: O_2  and  C_3
REMARK    3  A    between atoms: C_5  and  N_28
REMARK    4  A    between atoms: C_8  and  N_9
REMARK    5  A    between atoms: N_16  and  C_17
REMARK    6  A    between atoms: C_22  and  P_23
REMARK    7  A    between atoms: P_23  and  C_24
REMARK    8  A    between atoms: P_23  and  C_25
REMARK    9  A    between atoms: C_31  and  N_34
REMARK   10  A    between atoms: N_37  and  C_38
REMARK                            x       y       z     vdW  Elec       q    Type
REMARK                         _______ _______ _______ _____ _____    ______ ____
ROOT
ATOM      1  C   UNL     1      -4.898   6.383 130.570  0.00  0.00    +0.000 A 
ATOM      2  C   UNL     1      -4.218   7.057 131.502  0.00  0.00    +0.000 A 
ATOM      3  C   UNL     1      -2.861   6.852 131.675  0.00  0.00    +0.000 A 
ATOM      4  C   UNL     1      -2.277   5.695 131.155  0.00  0.00    +0.000 A 
ATOM      5  C   UNL     1      -3.004   4.925 130.264  0.00  0.00    +0.000 A 
ATOM      6  C   UNL     1      -4.324   5.277 129.888  0.00  0.00    +0.000 A 
ENDROOT
BRANCH   6   7
ATOM      7  N   UNL     1      -4.902   4.599 128.787  0.00  0.00    +0.000 N 
ATOM      8  C   UNL     1      -5.655   3.434 128.948  0.00  0.00    +0.000 A 
ATOM      9  N   UNL     1      -6.884   3.638 129.462  0.00  0.00    +0.000 NA
ATOM     10  C   UNL     1      -7.480   2.608 130.096  0.00  0.00    +0.000 A 
ATOM     11  C   UNL     1      -6.928   1.347 130.230  0.00  0.00    +0.000 A 
ATOM     12 CL   UNL     1      -7.879   0.169 131.045  0.00  0.00    +0.000 Cl
ATOM     13  C   UNL     1      -5.695   1.131 129.565  0.00  0.00    +0.000 A 
ATOM     14  N   UNL     1      -5.295  -0.235 129.214  0.00  0.00    +0.000 N 
ATOM     15  N   UNL     1      -5.047   2.190 128.901  0.00  0.00    +0.000 NA
ATOM     16  H   UNL     1      -4.308   4.584 127.974  0.00  0.00    +0.000 HD
ATOM     17  H   UNL     1      -4.617  -0.156 128.441  0.00  0.00    +0.000 HD
BRANCH  14  18
ATOM     18  C   UNL     1      -6.187  -1.374 128.995  0.00  0.00    +0.000 A 
ATOM     19  C   UNL     1      -5.977  -2.401 129.918  0.00  0.00    +0.000 A 
ATOM     20  C   UNL     1      -6.841  -3.489 129.964  0.00  0.00    +0.000 A 
ATOM     21  C   UNL     1      -7.917  -3.581 129.080  0.00  0.00    +0.000 A 
ATOM     22  C   UNL     1      -8.116  -2.622 128.085  0.00  0.00    +0.000 A 
ATOM     23  C   UNL     1      -7.244  -1.533 127.984  0.00  0.00    +0.000 A 
BRANCH  23  24
ATOM     24  P   UNL     1      -7.548  -0.276 126.690  0.00  0.00    +0.000 P 
ATOM     25  C   UNL     1      -6.193  -0.314 125.506  0.00  0.00    +0.000 C 
ATOM     26  C   UNL     1      -8.566  -1.609 125.681  0.00  0.00    +0.000 C 
ATOM     27  O   UNL     1      -7.806   0.788 125.594  0.00  0.00    +0.000 OA
ENDBRANCH  23  24
ENDBRANCH  14  18
ENDBRANCH   6   7
BRANCH   3  28
ATOM     28  N   UNL     1      -2.259   7.861 132.302  0.00  0.00    +0.000 N 
ATOM     29  C   UNL     1      -0.905   7.528 132.611  0.00  0.00    +0.000 C 
ATOM     30  C   UNL     1      -0.604   8.057 133.997  0.00  0.00    +0.000 C 
ATOM     31  C   UNL     1      -0.783   9.578 134.067  0.00  0.00    +0.000 C 
ATOM     32  C   UNL     1      -2.223   9.909 133.541  0.00  0.00    +0.000 C 
ATOM     33  C   UNL     1      -2.603   9.265 132.195  0.00  0.00    +0.000 C 
BRANCH  31  34
ATOM     34  N   UNL     1       0.310  10.413 133.499  0.00  0.00    +0.000 NA
ATOM     35  C   UNL     1       1.395  10.812 134.402  0.00  0.00    +0.000 C 
ATOM     36  C   UNL     1       1.074  12.039 135.275  0.00  0.00    +0.000 C 
ATOM     37  N   UNL     1       0.723  13.270 134.577  0.00  0.00    +0.000 NA
ATOM     38  C   UNL     1       0.243  14.193 135.629  0.00  0.00    +0.000 C 
ATOM     39  C   UNL     1      -0.391  12.926 133.647  0.00  0.00    +0.000 C 
ATOM     40  C   UNL     1      -0.135  11.641 132.787  0.00  0.00    +0.000 C 
ENDBRANCH  31  34
ENDBRANCH   3  28
BRANCH   1  42
ATOM     41  C   UNL     1      -7.023   6.754 131.300  0.00  0.00    +0.000 C 
ATOM     42  O   UNL     1      -6.057   7.076 130.346  0.00  0.00    +0.000 OA
ENDBRANCH   1  42
TORSDOF 6
ENDMDL
MODEL 6
REMARK VINA RESULT:      -7.8      3.204      4.557
REMARK  Name = Brigatinib
REMARK  10 active torsions:
REMARK  status: ('A' for Active; 'I' for Inactive)
REMARK    1  A    between atoms: C_1  and  O_2
REMARK    2  A    between atoms: O_2  and  C_3
REMARK    3  A    between atoms: C_5  and  N_28
REMARK    4  A    between atoms: C_8  and  N_9
REMARK    5  A    between atoms: N_16  and  C_17
REMARK    6  A    between atoms: C_22  and  P_23
REMARK    7  A    between atoms: P_23  and  C_24
REMARK    8  A    between atoms: P_23  and  C_25
REMARK    9  A    between atoms: C_31  and  N_34
REMARK   10  A    between atoms: N_37  and  C_38
REMARK                            x       y       z     vdW  Elec       q    Type
REMARK                         _______ _______ _______ _____ _____    ______ ____
ROOT
ATOM      1  C   UNL     1      -6.727   1.261 131.888  0.00  0.00    +0.000 A 
ATOM      2  C   UNL     1      -6.179   2.403 132.313  0.00  0.00    +0.000 A 
ATOM      3  C   UNL     1      -4.822   2.483 132.573  0.00  0.00    +0.000 A 
ATOM      4  C   UNL     1      -4.096   1.306 132.759  0.00  0.00    +0.000 A 
ATOM      5  C   UNL     1      -4.685   0.100 132.421  0.00  0.00    +0.000 A 
ATOM      6  C   UNL     1      -6.005   0.038 131.911  0.00  0.00    +0.000 A 
ENDROOT
BRANCH   6   7
ATOM      7  N   UNL     1      -6.440  -1.185 131.346  0.00  0.00    +0.000 N 
ATOM      8  C   UNL     1      -6.452  -1.400 129.966  0.00  0.00    +0.000 A 
ATOM      9  N   UNL     1      -5.232  -1.590 129.427  0.00  0.00    +0.000 NA
ATOM     10  C   UNL     1      -5.074  -1.321 128.115  0.00  0.00    +0.000 A 
ATOM     11  C   UNL     1      -6.087  -0.891 127.278  0.00  0.00    +0.000 A 
ATOM     12 CL   UNL     1      -5.675  -0.643 125.627  0.00  0.00    +0.000 Cl
ATOM     13  C   UNL     1      -7.385  -0.828 127.847  0.00  0.00    +0.000 A 
ATOM     14  N   UNL     1      -8.560  -0.889 126.972  0.00  0.00    +0.000 N 
ATOM     15  N   UNL     1      -7.577  -1.097 129.216  0.00  0.00    +0.000 NA
ATOM     16  H   UNL     1      -7.236  -1.581 131.821  0.00  0.00    +0.000 HD
ATOM     17  H   UNL     1      -9.346  -1.210 127.556  0.00  0.00    +0.000 HD
BRANCH  14  18
ATOM     18  C   UNL     1      -8.626  -1.502 125.645  0.00  0.00    +0.000 A 
ATOM     19  C   UNL     1      -8.450  -2.887 125.688  0.00  0.00    +0.000 A 
ATOM     20  C   UNL     1      -8.643  -3.653 124.545  0.00  0.00    +0.000 A 
ATOM     21  C   UNL     1      -8.998  -3.051 123.336  0.00  0.00    +0.000 A 
ATOM     22  C   UNL     1      -9.102  -1.663 123.226  0.00  0.00    +0.000 A 
ATOM     23  C   UNL     1      -8.876  -0.858 124.346  0.00  0.00    +0.000 A 
BRANCH  23  24
ATOM     24  P   UNL     1      -9.050   0.956 124.179  0.00  0.00    +0.000 P 
ATOM     25  C   UNL     1      -7.647   1.596 123.250  0.00  0.00    +0.000 C 
ATOM     26  C   UNL     1     -10.096   0.672 122.549  0.00  0.00    +0.000 C 
ATOM     27  O   UNL     1      -9.198   2.491 124.036  0.00  0.00    +0.000 OA
ENDBRANCH  23  24
ENDBRANCH  14  18
ENDBRANCH   6   7
BRANCH   3  28
ATOM     28  N   UNL     1      -4.365   3.733 132.560  0.00  0.00    +0.000 N 
ATOM     29  C   UNL     1      -4.127   4.198 133.890  0.00  0.00    +0.000 C 
ATOM     30  C   UNL     1      -4.594   5.637 133.967  0.00  0.00    +0.000 C 
ATOM     31  C   UNL     1      -3.836   6.525 132.974  0.00  0.00    +0.000 C 
ATOM     32  C   UNL     1      -3.971   5.870 131.555  0.00  0.00    +0.000 C 
ATOM     33  C   UNL     1      -3.636   4.370 131.481  0.00  0.00    +0.000 C 
BRANCH  31  34
ATOM     34  N   UNL     1      -2.458   6.940 133.355  0.00  0.00    +0.000 NA
ATOM     35  C   UNL     1      -2.227   7.313 134.754  0.00  0.00    +0.000 C 
ATOM     36  C   UNL     1      -2.629   8.760 135.099  0.00  0.00    +0.000 C 
ATOM     37  N   UNL     1      -1.981   9.821 134.336  0.00  0.00    +0.000 NA
ATOM     38  C   UNL     1      -2.709  11.059 134.695  0.00  0.00    +0.000 C 
ATOM     39  C   UNL     1      -2.195   9.498 132.896  0.00  0.00    +0.000 C 
ATOM     40  C   UNL     1      -1.864   8.014 132.515  0.00  0.00    +0.000 C 
ENDBRANCH  31  34
ENDBRANCH   3  28
BRANCH   1  42
ATOM     41  C   UNL     1      -7.753   2.417 130.216  0.00  0.00    +0.000 C 
ATOM     42  O   UNL     1      -7.931   1.585 131.322  0.00  0.00    +0.000 OA
ENDBRANCH   1  42
TORSDOF 6
ENDMDL
MODEL 7
REMARK VINA RESULT:      -7.8      2.390      3.750
REMARK  Name = Brigatinib
REMARK  10 active torsions:
REMARK  status: ('A' for Active; 'I' for Inactive)
REMARK    1  A    between atoms: C_1  and  O_2
REMARK    2  A    between atoms: O_2  and  C_3
REMARK    3  A    between atoms: C_5  and  N_28
REMARK    4  A    between atoms: C_8  and  N_9
REMARK    5  A    between atoms: N_16  and  C_17
REMARK    6  A    between atoms: C_22  and  P_23
REMARK    7  A    between atoms: P_23  and  C_24
REMARK    8  A    between atoms: P_23  and  C_25
REMARK    9  A    between atoms: C_31  and  N_34
REMARK   10  A    between atoms: N_37  and  C_38
REMARK                            x       y       z     vdW  Elec       q    Type
REMARK                         _______ _______ _______ _____ _____    ______ ____
ROOT
ATOM      1  C   UNL     1      -4.411   6.829 130.239  0.00  0.00    +0.000 A 
ATOM      2  C   UNL     1      -3.680   7.112 131.321  0.00  0.00    +0.000 A 
ATOM      3  C   UNL     1      -2.314   6.895 131.330  0.00  0.00    +0.000 A 
ATOM      4  C   UNL     1      -1.755   6.046 130.374  0.00  0.00    +0.000 A 
ATOM      5  C   UNL     1      -2.529   5.657 129.295  0.00  0.00    +0.000 A 
ATOM      6  C   UNL     1      -3.872   6.088 129.154  0.00  0.00    +0.000 A 
ENDROOT
BRANCH   6   7
ATOM      7  N   UNL     1      -4.509   5.870 127.909  0.00  0.00    +0.000 N 
ATOM      8  C   UNL     1      -5.239   4.709 127.644  0.00  0.00    +0.000 A 
ATOM      9  N   UNL     1      -6.436   4.657 128.261  0.00  0.00    +0.000 NA
ATOM     10  C   UNL     1      -6.982   3.443 128.477  0.00  0.00    +0.000 A 
ATOM     11  C   UNL     1      -6.410   2.248 128.081  0.00  0.00    +0.000 A 
ATOM     12 CL   UNL     1      -7.296   0.815 128.425  0.00  0.00    +0.000 Cl
ATOM     13  C   UNL     1      -5.218   2.346 127.320  0.00  0.00    +0.000 A 
ATOM     14  N   UNL     1      -4.826   1.237 126.446  0.00  0.00    +0.000 N 
ATOM     15  N   UNL     1      -4.623   3.601 127.085  0.00  0.00    +0.000 NA
ATOM     16  H   UNL     1      -3.967   6.190 127.122  0.00  0.00    +0.000 HD
ATOM     17  H   UNL     1      -4.198   1.631 125.730  0.00  0.00    +0.000 HD
BRANCH  14  18
ATOM     18  C   UNL     1      -5.719   0.242 125.850  0.00  0.00    +0.000 A 
ATOM     19  C   UNL     1      -5.335  -1.067 126.152  0.00  0.00    +0.000 A 
ATOM     20  C   UNL     1      -6.156  -2.135 125.807  0.00  0.00    +0.000 A 
ATOM     21  C   UNL     1      -7.364  -1.918 125.140  0.00  0.00    +0.000 A 
ATOM     22  C   UNL     1      -7.747  -0.635 124.744  0.00  0.00    +0.000 A 
ATOM     23  C   UNL     1      -6.927   0.459 125.039  0.00  0.00    +0.000 A 
BRANCH  23  24
ATOM     24  P   UNL     1      -7.471   2.132 124.534  0.00  0.00    +0.000 P 
ATOM     25  C   UNL     1      -6.412   2.713 123.200  0.00  0.00    +0.000 C 
ATOM     26  C   UNL     1      -8.727   1.308 123.279  0.00  0.00    +0.000 C 
ATOM     27  O   UNL     1      -7.932   3.547 124.106  0.00  0.00    +0.000 OA
ENDBRANCH  23  24
ENDBRANCH  14  18
ENDBRANCH   6   7
BRANCH   3  28
ATOM     28  N   UNL     1      -1.683   7.603 132.266  0.00  0.00    +0.000 N 
ATOM     29  C   UNL     1      -2.566   8.557 132.859  0.00  0.00    +0.000 C 
ATOM     30  C   UNL     1      -1.791   9.842 133.058  0.00  0.00    +0.000 C 
ATOM     31  C   UNL     1      -0.580   9.629 133.974  0.00  0.00    +0.000 C 
ATOM     32  C   UNL     1       0.260   8.445 133.381  0.00  0.00    +0.000 C 
ATOM     33  C   UNL     1      -0.535   7.173 133.038  0.00  0.00    +0.000 C 
BRANCH  31  34
ATOM     34  N   UNL     1      -0.847   9.551 135.436  0.00  0.00    +0.000 NA
ATOM     35  C   UNL     1      -1.791  10.518 136.004  0.00  0.00    +0.000 C 
ATOM     36  C   UNL     1      -1.178  11.897 136.312  0.00  0.00    +0.000 C 
ATOM     37  N   UNL     1      -0.046  11.923 137.232  0.00  0.00    +0.000 NA
ATOM     38  C   UNL     1       0.482  13.304 137.162  0.00  0.00    +0.000 C 
ATOM     39  C   UNL     1       0.958  10.960 136.695  0.00  0.00    +0.000 C 
ATOM     40  C   UNL     1       0.362   9.564 136.303  0.00  0.00    +0.000 C 
ENDBRANCH  31  34
ENDBRANCH   3  28
BRANCH   1  42
ATOM     41  C   UNL     1      -6.477   6.847 131.196  0.00  0.00    +0.000 C 
ATOM     42  O   UNL     1      -5.585   7.521 130.361  0.00  0.00    +0.000 OA
ENDBRANCH   1  42
TORSDOF 6
ENDMDL
MODEL 8
REMARK VINA RESULT:      -7.8      3.313      5.103
REMARK  Name = Brigatinib
REMARK  10 active torsions:
REMARK  status: ('A' for Active; 'I' for Inactive)
REMARK    1  A    between atoms: C_1  and  O_2
REMARK    2  A    between atoms: O_2  and  C_3
REMARK    3  A    between atoms: C_5  and  N_28
REMARK    4  A    between atoms: C_8  and  N_9
REMARK    5  A    between atoms: N_16  and  C_17
REMARK    6  A    between atoms: C_22  and  P_23
REMARK    7  A    between atoms: P_23  and  C_24
REMARK    8  A    between atoms: P_23  and  C_25
REMARK    9  A    between atoms: C_31  and  N_34
REMARK   10  A    between atoms: N_37  and  C_38
REMARK                            x       y       z     vdW  Elec       q    Type
REMARK                         _______ _______ _______ _____ _____    ______ ____
ROOT
ATOM      1  C   UNL     1      -6.299   0.880 131.780  0.00  0.00    +0.000 A 
ATOM      2  C   UNL     1      -5.577   1.929 132.184  0.00  0.00    +0.000 A 
ATOM      3  C   UNL     1      -4.209   1.822 132.357  0.00  0.00    +0.000 A 
ATOM      4  C   UNL     1      -3.636   0.555 132.480  0.00  0.00    +0.000 A 
ATOM      5  C   UNL     1      -4.401  -0.554 132.164  0.00  0.00    +0.000 A 
ATOM      6  C   UNL     1      -5.747  -0.428 131.739  0.00  0.00    +0.000 A 
ENDROOT
BRANCH   6   7
ATOM      7  N   UNL     1      -6.377  -1.570 131.187  0.00  0.00    +0.000 N 
ATOM      8  C   UNL     1      -6.437  -1.787 129.808  0.00  0.00    +0.000 A 
ATOM      9  N   UNL     1      -5.269  -2.171 129.259  0.00  0.00    +0.000 NA
ATOM     10  C   UNL     1      -5.084  -1.937 127.944  0.00  0.00    +0.000 A 
ATOM     11  C   UNL     1      -6.025  -1.356 127.113  0.00  0.00    +0.000 A 
ATOM     12 CL   UNL     1      -5.596  -1.185 125.457  0.00  0.00    +0.000 Cl
ATOM     13  C   UNL     1      -7.290  -1.085 127.694  0.00  0.00    +0.000 A 
ATOM     14  N   UNL     1      -8.469  -0.964 126.832  0.00  0.00    +0.000 N 
ATOM     15  N   UNL     1      -7.508  -1.314 129.067  0.00  0.00    +0.000 NA
ATOM     16  H   UNL     1      -7.220  -1.832 131.672  0.00  0.00    +0.000 HD
ATOM     17  H   UNL     1      -9.290  -1.153 127.425  0.00  0.00    +0.000 HD
BRANCH  14  18
ATOM     18  C   UNL     1      -8.645  -1.565 125.509  0.00  0.00    +0.000 A 
ATOM     19  C   UNL     1      -8.574  -2.960 125.544  0.00  0.00    +0.000 A 
ATOM     20  C   UNL     1      -8.880  -3.706 124.412  0.00  0.00    +0.000 A 
ATOM     21  C   UNL     1      -9.246  -3.074 123.221  0.00  0.00    +0.000 A 
ATOM     22  C   UNL     1      -9.248  -1.681 123.116  0.00  0.00    +0.000 A 
ATOM     23  C   UNL     1      -8.907  -0.899 124.224  0.00  0.00    +0.000 A 
BRANCH  23  24
ATOM     24  P   UNL     1      -8.950   0.923 124.065  0.00  0.00    +0.000 P 
ATOM     25  C   UNL     1      -7.533   1.458 123.092  0.00  0.00    +0.000 C 
ATOM     26  C   UNL     1     -10.066   0.724 122.469  0.00  0.00    +0.000 C 
ATOM     27  O   UNL     1      -8.986   2.465 123.929  0.00  0.00    +0.000 OA
ENDBRANCH  23  24
ENDBRANCH  14  18
ENDBRANCH   6   7
BRANCH   3  28
ATOM     28  N   UNL     1      -3.589   3.001 132.332  0.00  0.00    +0.000 N 
ATOM     29  C   UNL     1      -4.080   3.806 131.258  0.00  0.00    +0.000 C 
ATOM     30  C   UNL     1      -2.896   4.515 130.634  0.00  0.00    +0.000 C 
ATOM     31  C   UNL     1      -2.177   5.407 131.653  0.00  0.00    +0.000 C 
ATOM     32  C   UNL     1      -1.824   4.517 132.895  0.00  0.00    +0.000 C 
ATOM     33  C   UNL     1      -2.983   3.677 133.461  0.00  0.00    +0.000 C 
BRANCH  31  34
ATOM     34  N   UNL     1      -2.810   6.717 131.967  0.00  0.00    +0.000 NA
ATOM     35  C   UNL     1      -3.851   6.734 133.000  0.00  0.00    +0.000 C 
ATOM     36  C   UNL     1      -5.247   6.315 132.500  0.00  0.00    +0.000 C 
ATOM     37  N   UNL     1      -5.817   7.096 131.409  0.00  0.00    +0.000 NA
ATOM     38  C   UNL     1      -7.019   6.349 130.980  0.00  0.00    +0.000 C 
ATOM     39  C   UNL     1      -4.800   7.104 130.318  0.00  0.00    +0.000 C 
ATOM     40  C   UNL     1      -3.349   7.458 130.795  0.00  0.00    +0.000 C 
ENDBRANCH  31  34
ENDBRANCH   3  28
BRANCH   1  42
ATOM     41  C   UNL     1      -7.267   2.168 130.171  0.00  0.00    +0.000 C 
ATOM     42  O   UNL     1      -7.481   1.374 131.298  0.00  0.00    +0.000 OA
ENDBRANCH   1  42
TORSDOF 6
ENDMDL
MODEL 9
REMARK VINA RESULT:      -7.6      3.456      5.336
REMARK  Name = Brigatinib
REMARK  10 active torsions:
REMARK  status: ('A' for Active; 'I' for Inactive)
REMARK    1  A    between atoms: C_1  and  O_2
REMARK    2  A    between atoms: O_2  and  C_3
REMARK    3  A    between atoms: C_5  and  N_28
REMARK    4  A    between atoms: C_8  and  N_9
REMARK    5  A    between atoms: N_16  and  C_17
REMARK    6  A    between atoms: C_22  and  P_23
REMARK    7  A    between atoms: P_23  and  C_24
REMARK    8  A    between atoms: P_23  and  C_25
REMARK    9  A    between atoms: C_31  and  N_34
REMARK   10  A    between atoms: N_37  and  C_38
REMARK                            x       y       z     vdW  Elec       q    Type
REMARK                         _______ _______ _______ _____ _____    ______ ____
ROOT
ATOM      1  C   UNL     1      -7.474   5.694 131.252  0.00  0.00    +0.000 A 
ATOM      2  C   UNL     1      -6.633   6.209 132.155  0.00  0.00    +0.000 A 
ATOM      3  C   UNL     1      -5.834   5.386 132.928  0.00  0.00    +0.000 A 
ATOM      4  C   UNL     1      -6.162   4.034 133.045  0.00  0.00    +0.000 A 
ATOM      5  C   UNL     1      -7.108   3.503 132.185  0.00  0.00    +0.000 A 
ATOM      6  C   UNL     1      -7.756   4.302 131.211  0.00  0.00    +0.000 A 
ENDROOT
BRANCH   6   7
ATOM      7  N   UNL     1      -8.505   3.645 130.206  0.00  0.00    +0.000 N 
ATOM      8  C   UNL     1      -7.940   3.274 128.984  0.00  0.00    +0.000 A 
ATOM      9  N   UNL     1      -7.115   2.211 129.058  0.00  0.00    +0.000 NA
ATOM     10  C   UNL     1      -6.174   2.076 128.102  0.00  0.00    +0.000 A 
ATOM     11  C   UNL     1      -6.016   2.939 127.033  0.00  0.00    +0.000 A 
ATOM     12 CL   UNL     1      -4.774   2.558 125.907  0.00  0.00    +0.000 Cl
ATOM     13  C   UNL     1      -6.982   3.970 126.914  0.00  0.00    +0.000 A 
ATOM     14  N   UNL     1      -7.217   4.592 125.607  0.00  0.00    +0.000 N 
ATOM     15  N   UNL     1      -7.972   4.138 127.902  0.00  0.00    +0.000 NA
ATOM     16  H   UNL     1      -9.448   3.990 130.123  0.00  0.00    +0.000 HD
ATOM     17  H   UNL     1      -8.161   5.003 125.640  0.00  0.00    +0.000 HD
BRANCH  14  18
ATOM     18  C   UNL     1      -6.969   3.985 124.298  0.00  0.00    +0.000 A 
ATOM     19  C   UNL     1      -5.915   4.598 123.618  0.00  0.00    +0.000 A 
ATOM     20  C   UNL     1      -5.434   4.053 122.433  0.00  0.00    +0.000 A 
ATOM     21  C   UNL     1      -6.006   2.897 121.898  0.00  0.00    +0.000 A 
ATOM     22  C   UNL     1      -7.116   2.298 122.499  0.00  0.00    +0.000 A 
ATOM     23  C   UNL     1      -7.652   2.843 123.670  0.00  0.00    +0.000 A 
BRANCH  23  24
ATOM     24  P   UNL     1      -9.087   2.019 124.451  0.00  0.00    +0.000 P 
ATOM     25  C   UNL     1      -9.962   1.061 123.203  0.00  0.00    +0.000 C 
ATOM     26  C   UNL     1      -7.929   0.508 124.907  0.00  0.00    +0.000 C 
ATOM     27  O   UNL     1     -10.301   1.321 125.112  0.00  0.00    +0.000 OA
ENDBRANCH  23  24
ENDBRANCH  14  18
ENDBRANCH   6   7
BRANCH   3  28
ATOM     28  N   UNL     1      -4.781   6.019 133.440  0.00  0.00    +0.000 N 
ATOM     29  C   UNL     1      -4.647   5.733 134.833  0.00  0.00    +0.000 C 
ATOM     30  C   UNL     1      -4.256   7.017 135.534  0.00  0.00    +0.000 C 
ATOM     31  C   UNL     1      -2.928   7.565 134.997  0.00  0.00    +0.000 C 
ATOM     32  C   UNL     1      -3.062   7.686 133.439  0.00  0.00    +0.000 C 
ATOM     33  C   UNL     1      -3.594   6.434 132.719  0.00  0.00    +0.000 C 
BRANCH  31  34
ATOM     34  N   UNL     1      -1.683   6.908 135.481  0.00  0.00    +0.000 NA
ATOM     35  C   UNL     1      -1.225   7.241 136.834  0.00  0.00    +0.000 C 
ATOM     36  C   UNL     1      -0.426   8.554 136.927  0.00  0.00    +0.000 C 
ATOM     37  N   UNL     1       0.778   8.652 136.110  0.00  0.00    +0.000 NA
ATOM     38  C   UNL     1       1.203  10.066 136.208  0.00  0.00    +0.000 C 
ATOM     39  C   UNL     1       0.368   8.333 134.712  0.00  0.00    +0.000 C 
ATOM     40  C   UNL     1      -0.507   7.040 134.580  0.00  0.00    +0.000 C 
ENDBRANCH  31  34
ENDBRANCH   3  28
BRANCH   1  42
ATOM     41  C   UNL     1      -9.120   7.090 130.527  0.00  0.00    +0.000 C 
ATOM     42  O   UNL     1      -7.787   6.702 130.382  0.00  0.00    +0.000 OA
ENDBRANCH   1  42
TORSDOF 6
ENDMDL
