MODEL 1
REMARK VINA RESULT:      -7.9      0.000      0.000
REMARK  Name = Brilliant green cation
REMARK  11 active torsions:
REMARK  status: ('A' for Active; 'I' for Inactive)
REMARK    1  A    between atoms: C_1  and  C_2
REMARK    2  A    between atoms: C_2  and  N_3
REMARK    3  A    between atoms: N_3  and  C_4
REMARK    4  A    between atoms: N_3  and  C_6
REMARK    5  A    between atoms: C_4  and  C_5
REMARK    6  A    between atoms: C_9  and  C_12
REMARK    7  A    between atoms: C_12  and  C_13
REMARK    8  A    between atoms: N_25  and  C_26
REMARK    9  A    between atoms: N_25  and  C_28
REMARK   10  A    between atoms: C_26  and  C_27
REMARK   11  A    between atoms: C_28  and  C_29
REMARK                            x       y       z     vdW  Elec       q    Type
REMARK                         _______ _______ _______ _____ _____    ______ ____
ROOT
ATOM      1  C   UNL     1      -8.124   4.927 132.990  0.00  0.00    +0.000 C 
ATOM      2  C   UNL     1      -8.180   3.565 132.960  0.00  0.00    +0.000 C 
ATOM      3  C   UNL     1      -9.121   2.885 132.121  0.00  0.00    +0.000 C 
ATOM      4  C   UNL     1      -8.852   1.715 131.598  0.00  0.00    +0.000 C 
ATOM      5  C   UNL     1      -7.680   0.902 132.022  0.00  0.00    +0.000 C 
ATOM      6  C   UNL     1      -7.132   1.386 133.356  0.00  0.00    +0.000 C 
ATOM      7  C   UNL     1      -7.405   2.631 133.790  0.00  0.00    +0.000 C 
ATOM      8  N   UNL     1      -7.239  -0.151 131.388  0.00  0.00    +0.000 N 
ENDROOT
BRANCH   1  12
ATOM      9  C   UNL     1     -10.610   7.295 130.214  0.00  0.00    +0.000 A 
ATOM     10  C   UNL     1     -11.139   6.620 131.320  0.00  0.00    +0.000 A 
ATOM     11  C   UNL     1     -10.327   5.939 132.244  0.00  0.00    +0.000 A 
ATOM     12  C   UNL     1      -8.945   5.848 132.080  0.00  0.00    +0.000 A 
ATOM     13  C   UNL     1      -8.435   6.643 131.043  0.00  0.00    +0.000 A 
ATOM     14  C   UNL     1      -9.232   7.259 130.079  0.00  0.00    +0.000 A 
BRANCH   9  15
ATOM     15  N   UNL     1     -11.417   8.058 129.350  0.00  0.00    +0.000 N 
BRANCH  15  17
ATOM     16  C   UNL     1     -11.047   7.766 126.832  0.00  0.00    +0.000 C 
ATOM     17  C   UNL     1     -10.770   8.524 128.108  0.00  0.00    +0.000 C 
ENDBRANCH  15  17
BRANCH  15  18
ATOM     18  C   UNL     1     -12.635   8.573 130.009  0.00  0.00    +0.000 C 
ATOM     19  C   UNL     1     -13.127   9.944 129.614  0.00  0.00    +0.000 C 
ENDBRANCH  15  18
ENDBRANCH   9  15
ENDBRANCH   1  12
BRANCH   1  20
ATOM     20  C   UNL     1      -7.288   5.487 134.094  0.00  0.00    +0.000 A 
ATOM     21  C   UNL     1      -5.935   5.799 133.903  0.00  0.00    +0.000 A 
ATOM     22  C   UNL     1      -5.153   6.189 134.987  0.00  0.00    +0.000 A 
ATOM     23  C   UNL     1      -5.742   6.391 136.234  0.00  0.00    +0.000 A 
ATOM     24  C   UNL     1      -7.095   6.118 136.426  0.00  0.00    +0.000 A 
ATOM     25  C   UNL     1      -7.856   5.630 135.370  0.00  0.00    +0.000 A 
ENDBRANCH   1  20
BRANCH   8  26
ATOM     26  C   UNL     1      -7.710  -0.670 130.020  0.00  0.00    +0.000 C 
ATOM     27  C   UNL     1      -7.890  -2.154 129.867  0.00  0.00    +0.000 C 
ENDBRANCH   8  26
BRANCH   8  28
ATOM     28  C   UNL     1      -6.132  -0.992 132.035  0.00  0.00    +0.000 C 
ATOM     29  C   UNL     1      -4.750  -0.749 131.456  0.00  0.00    +0.000 C 
ENDBRANCH   8  28
TORSDOF 7
ENDMDL
MODEL 2
REMARK VINA RESULT:      -7.6      5.711      9.356
REMARK  Name = Brilliant green cation
REMARK  11 active torsions:
REMARK  status: ('A' for Active; 'I' for Inactive)
REMARK    1  A    between atoms: C_1  and  C_2
REMARK    2  A    between atoms: C_2  and  N_3
REMARK    3  A    between atoms: N_3  and  C_4
REMARK    4  A    between atoms: N_3  and  C_6
REMARK    5  A    between atoms: C_4  and  C_5
REMARK    6  A    between atoms: C_9  and  C_12
REMARK    7  A    between atoms: C_12  and  C_13
REMARK    8  A    between atoms: N_25  and  C_26
REMARK    9  A    between atoms: N_25  and  C_28
REMARK   10  A    between atoms: C_26  and  C_27
REMARK   11  A    between atoms: C_28  and  C_29
REMARK                            x       y       z     vdW  Elec       q    Type
REMARK                         _______ _______ _______ _____ _____    ______ ____
ROOT
ATOM      1  C   UNL     1      -8.007   0.563 125.684  0.00  0.00    +0.000 C 
ATOM      2  C   UNL     1      -7.869   1.146 126.909  0.00  0.00    +0.000 C 
ATOM      3  C   UNL     1      -7.540   2.536 127.030  0.00  0.00    +0.000 C 
ATOM      4  C   UNL     1      -7.967   3.255 128.037  0.00  0.00    +0.000 C 
ATOM      5  C   UNL     1      -8.603   2.648 129.238  0.00  0.00    +0.000 C 
ATOM      6  C   UNL     1      -8.309   1.158 129.318  0.00  0.00    +0.000 C 
ATOM      7  C   UNL     1      -7.937   0.480 128.217  0.00  0.00    +0.000 C 
ATOM      8  N   UNL     1      -9.242   3.320 130.157  0.00  0.00    +0.000 N 
ENDROOT
BRANCH   1  12
ATOM      9  C   UNL     1      -7.737   3.022 122.027  0.00  0.00    +0.000 A 
ATOM     10  C   UNL     1      -6.611   2.510 122.683  0.00  0.00    +0.000 A 
ATOM     11  C   UNL     1      -6.714   1.659 123.797  0.00  0.00    +0.000 A 
ATOM     12  C   UNL     1      -7.948   1.320 124.352  0.00  0.00    +0.000 A 
ATOM     13  C   UNL     1      -9.052   1.738 123.595  0.00  0.00    +0.000 A 
ATOM     14  C   UNL     1      -8.966   2.641 122.536  0.00  0.00    +0.000 A 
BRANCH   9  15
ATOM     15  N   UNL     1      -7.630   3.791 120.853  0.00  0.00    +0.000 N 
BRANCH  15  17
ATOM     16  C   UNL     1      -8.945   4.184 118.690  0.00  0.00    +0.000 C 
ATOM     17  C   UNL     1      -8.904   4.148 120.199  0.00  0.00    +0.000 C 
ENDBRANCH  15  17
BRANCH  15  18
ATOM     18  C   UNL     1      -6.267   3.780 120.282  0.00  0.00    +0.000 C 
ATOM     19  C   UNL     1      -5.668   5.097 119.854  0.00  0.00    +0.000 C 
ENDBRANCH  15  18
ENDBRANCH   9  15
ENDBRANCH   1  12
BRANCH   1  20
ATOM     20  C   UNL     1      -8.087  -0.928 125.714  0.00  0.00    +0.000 A 
ATOM     21  C   UNL     1      -6.950  -1.727 125.527  0.00  0.00    +0.000 A 
ATOM     22  C   UNL     1      -7.083  -3.109 125.425  0.00  0.00    +0.000 A 
ATOM     23  C   UNL     1      -8.325  -3.707 125.635  0.00  0.00    +0.000 A 
ATOM     24  C   UNL     1      -9.455  -2.924 125.857  0.00  0.00    +0.000 A 
ATOM     25  C   UNL     1      -9.343  -1.538 125.857  0.00  0.00    +0.000 A 
ENDBRANCH   1  20
BRANCH   8  26
ATOM     26  C   UNL     1      -9.614   4.811 130.121  0.00  0.00    +0.000 C 
ATOM     27  C   UNL     1     -11.057   5.170 130.341  0.00  0.00    +0.000 C 
ENDBRANCH   8  26
BRANCH   8  28
ATOM     28  C   UNL     1      -9.693   2.587 131.426  0.00  0.00    +0.000 C 
ATOM     29  C   UNL     1      -8.967   3.025 132.686  0.00  0.00    +0.000 C 
ENDBRANCH   8  28
TORSDOF 7
ENDMDL
MODEL 3
REMARK VINA RESULT:      -7.6      6.514     11.260
REMARK  Name = Brilliant green cation
REMARK  11 active torsions:
REMARK  status: ('A' for Active; 'I' for Inactive)
REMARK    1  A    between atoms: C_1  and  C_2
REMARK    2  A    between atoms: C_2  and  N_3
REMARK    3  A    between atoms: N_3  and  C_4
REMARK    4  A    between atoms: N_3  and  C_6
REMARK    5  A    between atoms: C_4  and  C_5
REMARK    6  A    between atoms: C_9  and  C_12
REMARK    7  A    between atoms: C_12  and  C_13
REMARK    8  A    between atoms: N_25  and  C_26
REMARK    9  A    between atoms: N_25  and  C_28
REMARK   10  A    between atoms: C_26  and  C_27
REMARK   11  A    between atoms: C_28  and  C_29
REMARK                            x       y       z     vdW  Elec       q    Type
REMARK                         _______ _______ _______ _____ _____    ______ ____
ROOT
ATOM      1  C   UNL     1      -6.708   2.234 123.885  0.00  0.00    +0.000 C 
ATOM      2  C   UNL     1      -6.554   3.104 124.924  0.00  0.00    +0.000 C 
ATOM      3  C   UNL     1      -6.632   2.651 126.281  0.00  0.00    +0.000 C 
ATOM      4  C   UNL     1      -5.940   3.223 127.234  0.00  0.00    +0.000 C 
ATOM      5  C   UNL     1      -5.227   4.514 127.038  0.00  0.00    +0.000 C 
ATOM      6  C   UNL     1      -5.740   5.240 125.804  0.00  0.00    +0.000 C 
ATOM      7  C   UNL     1      -6.387   4.562 124.838  0.00  0.00    +0.000 C 
ATOM      8  N   UNL     1      -4.350   5.010 127.867  0.00  0.00    +0.000 N 
ENDROOT
BRANCH   1  12
ATOM      9  C   UNL     1      -6.819  -2.169 124.196  0.00  0.00    +0.000 A 
ATOM     10  C   UNL     1      -6.085  -1.364 125.075  0.00  0.00    +0.000 A 
ATOM     11  C   UNL     1      -6.125   0.040 125.018  0.00  0.00    +0.000 A 
ATOM     12  C   UNL     1      -6.856   0.716 124.041  0.00  0.00    +0.000 A 
ATOM     13  C   UNL     1      -7.680  -0.113 123.265  0.00  0.00    +0.000 A 
ATOM     14  C   UNL     1      -7.594  -1.504 123.261  0.00  0.00    +0.000 A 
BRANCH   9  15
ATOM     15  N   UNL     1      -6.853  -3.570 124.322  0.00  0.00    +0.000 N 
BRANCH  15  17
ATOM     16  C   UNL     1      -8.701  -3.619 126.095  0.00  0.00    +0.000 C 
ATOM     17  C   UNL     1      -8.127  -4.142 124.801  0.00  0.00    +0.000 C 
ENDBRANCH  15  17
BRANCH  15  18
ATOM     18  C   UNL     1      -5.507  -4.180 124.319  0.00  0.00    +0.000 C 
ATOM     19  C   UNL     1      -4.538  -3.751 123.244  0.00  0.00    +0.000 C 
ENDBRANCH  15  18
ENDBRANCH   9  15
ENDBRANCH   1  12
BRANCH   1  20
ATOM     20  C   UNL     1      -6.865   2.886 122.551  0.00  0.00    +0.000 A 
ATOM     21  C   UNL     1      -5.755   3.311 121.807  0.00  0.00    +0.000 A 
ATOM     22  C   UNL     1      -5.943   4.037 120.634  0.00  0.00    +0.000 A 
ATOM     23  C   UNL     1      -7.229   4.231 120.133  0.00  0.00    +0.000 A 
ATOM     24  C   UNL     1      -8.338   3.782 120.847  0.00  0.00    +0.000 A 
ATOM     25  C   UNL     1      -8.158   3.146 122.070  0.00  0.00    +0.000 A 
ENDBRANCH   1  20
BRANCH   8  26
ATOM     26  C   UNL     1      -3.753   4.319 129.104  0.00  0.00    +0.000 C 
ATOM     27  C   UNL     1      -4.435   4.549 130.423  0.00  0.00    +0.000 C 
ENDBRANCH   8  26
BRANCH   8  28
ATOM     28  C   UNL     1      -3.826   6.431 127.625  0.00  0.00    +0.000 C 
ATOM     29  C   UNL     1      -2.428   6.677 128.162  0.00  0.00    +0.000 C 
ENDBRANCH   8  28
TORSDOF 7
ENDMDL
MODEL 4
REMARK VINA RESULT:      -7.5      5.979      9.380
REMARK  Name = Brilliant green cation
REMARK  11 active torsions:
REMARK  status: ('A' for Active; 'I' for Inactive)
REMARK    1  A    between atoms: C_1  and  C_2
REMARK    2  A    between atoms: C_2  and  N_3
REMARK    3  A    between atoms: N_3  and  C_4
REMARK    4  A    between atoms: N_3  and  C_6
REMARK    5  A    between atoms: C_4  and  C_5
REMARK    6  A    between atoms: C_9  and  C_12
REMARK    7  A    between atoms: C_12  and  C_13
REMARK    8  A    between atoms: N_25  and  C_26
REMARK    9  A    between atoms: N_25  and  C_28
REMARK   10  A    between atoms: C_26  and  C_27
REMARK   11  A    between atoms: C_28  and  C_29
REMARK                            x       y       z     vdW  Elec       q    Type
REMARK                         _______ _______ _______ _____ _____    ______ ____
ROOT
ATOM      1  C   UNL     1      -6.360   2.473 124.581  0.00  0.00    +0.000 C 
ATOM      2  C   UNL     1      -6.461   1.119 124.711  0.00  0.00    +0.000 C 
ATOM      3  C   UNL     1      -5.841   0.436 125.807  0.00  0.00    +0.000 C 
ATOM      4  C   UNL     1      -6.359  -0.655 126.315  0.00  0.00    +0.000 C 
ATOM      5  C   UNL     1      -7.466  -1.396 125.652  0.00  0.00    +0.000 C 
ATOM      6  C   UNL     1      -7.602  -0.986 124.194  0.00  0.00    +0.000 C 
ATOM      7  C   UNL     1      -7.097   0.186 123.768  0.00  0.00    +0.000 C 
ATOM      8  N   UNL     1      -8.163  -2.345 126.215  0.00  0.00    +0.000 N 
ENDROOT
BRANCH   1  12
ATOM      9  C   UNL     1      -4.318   4.848 127.692  0.00  0.00    +0.000 A 
ATOM     10  C   UNL     1      -3.656   4.340 126.568  0.00  0.00    +0.000 A 
ATOM     11  C   UNL     1      -4.334   3.658 125.543  0.00  0.00    +0.000 A 
ATOM     12  C   UNL     1      -5.702   3.395 125.614  0.00  0.00    +0.000 A 
ATOM     13  C   UNL     1      -6.354   4.030 126.681  0.00  0.00    +0.000 A 
ATOM     14  C   UNL     1      -5.686   4.643 127.740  0.00  0.00    +0.000 A 
BRANCH   9  15
ATOM     15  N   UNL     1      -3.652   5.616 128.665  0.00  0.00    +0.000 N 
BRANCH  15  17
ATOM     16  C   UNL     1      -3.880   8.056 129.413  0.00  0.00    +0.000 C 
ATOM     17  C   UNL     1      -3.494   7.051 128.355  0.00  0.00    +0.000 C 
ENDBRANCH  15  17
BRANCH  15  18
ATOM     18  C   UNL     1      -2.902   4.790 129.634  0.00  0.00    +0.000 C 
ATOM     19  C   UNL     1      -3.542   4.515 130.973  0.00  0.00    +0.000 C 
ENDBRANCH  15  18
ENDBRANCH   9  15
ENDBRANCH   1  12
BRANCH   1  20
ATOM     20  C   UNL     1      -6.824   3.004 123.265  0.00  0.00    +0.000 A 
ATOM     21  C   UNL     1      -8.183   3.023 122.920  0.00  0.00    +0.000 A 
ATOM     22  C   UNL     1      -8.568   3.396 121.635  0.00  0.00    +0.000 A 
ATOM     23  C   UNL     1      -7.616   3.871 120.733  0.00  0.00    +0.000 A 
ATOM     24  C   UNL     1      -6.266   3.889 121.078  0.00  0.00    +0.000 A 
ATOM     25  C   UNL     1      -5.868   3.420 122.325  0.00  0.00    +0.000 A 
ENDBRANCH   1  20
BRANCH   8  26
ATOM     26  C   UNL     1      -8.112  -2.781 127.688  0.00  0.00    +0.000 C 
ATOM     27  C   UNL     1      -8.974  -3.942 128.098  0.00  0.00    +0.000 C 
ENDBRANCH   8  26
BRANCH   8  28
ATOM     28  C   UNL     1      -9.154  -3.140 125.356  0.00  0.00    +0.000 C 
ATOM     29  C   UNL     1      -8.500  -4.126 124.405  0.00  0.00    +0.000 C 
ENDBRANCH   8  28
TORSDOF 7
ENDMDL
MODEL 5
REMARK VINA RESULT:      -7.5      3.094      7.732
REMARK  Name = Brilliant green cation
REMARK  11 active torsions:
REMARK  status: ('A' for Active; 'I' for Inactive)
REMARK    1  A    between atoms: C_1  and  C_2
REMARK    2  A    between atoms: C_2  and  N_3
REMARK    3  A    between atoms: N_3  and  C_4
REMARK    4  A    between atoms: N_3  and  C_6
REMARK    5  A    between atoms: C_4  and  C_5
REMARK    6  A    between atoms: C_9  and  C_12
REMARK    7  A    between atoms: C_12  and  C_13
REMARK    8  A    between atoms: N_25  and  C_26
REMARK    9  A    between atoms: N_25  and  C_28
REMARK   10  A    between atoms: C_26  and  C_27
REMARK   11  A    between atoms: C_28  and  C_29
REMARK                            x       y       z     vdW  Elec       q    Type
REMARK                         _______ _______ _______ _____ _____    ______ ____
ROOT
ATOM      1  C   UNL     1      -7.246  -1.651 130.070  0.00  0.00    +0.000 C 
ATOM      2  C   UNL     1      -6.198  -2.256 130.700  0.00  0.00    +0.000 C 
ATOM      3  C   UNL     1      -5.485  -1.588 131.748  0.00  0.00    +0.000 C 
ATOM      4  C   UNL     1      -4.941  -2.252 132.737  0.00  0.00    +0.000 C 
ATOM      5  C   UNL     1      -4.806  -3.734 132.724  0.00  0.00    +0.000 C 
ATOM      6  C   UNL     1      -4.975  -4.286 131.317  0.00  0.00    +0.000 C 
ATOM      7  C   UNL     1      -5.606  -3.561 130.375  0.00  0.00    +0.000 C 
ATOM      8  N   UNL     1      -4.484  -4.458 133.761  0.00  0.00    +0.000 N 
ENDROOT
BRANCH   1  12
ATOM      9  C   UNL     1      -9.231   2.161 131.077  0.00  0.00    +0.000 A 
ATOM     10  C   UNL     1      -9.488   0.967 131.761  0.00  0.00    +0.000 A 
ATOM     11  C   UNL     1      -8.788  -0.220 131.487  0.00  0.00    +0.000 A 
ATOM     12  C   UNL     1      -7.833  -0.294 130.473  0.00  0.00    +0.000 A 
ATOM     13  C   UNL     1      -7.506   0.945 129.901  0.00  0.00    +0.000 A 
ATOM     14  C   UNL     1      -8.242   2.111 130.110  0.00  0.00    +0.000 A 
BRANCH   9  15
ATOM     15  N   UNL     1      -9.864   3.370 131.424  0.00  0.00    +0.000 N 
BRANCH  15  17
ATOM     16  C   UNL     1     -11.189   5.281 130.350  0.00  0.00    +0.000 C 
ATOM     17  C   UNL     1     -10.961   3.800 130.536  0.00  0.00    +0.000 C 
ENDBRANCH  15  17
BRANCH  15  18
ATOM     18  C   UNL     1      -9.076   4.175 132.380  0.00  0.00    +0.000 C 
ATOM     19  C   UNL     1      -9.207   3.857 133.849  0.00  0.00    +0.000 C 
ENDBRANCH  15  18
ENDBRANCH   9  15
ENDBRANCH   1  12
BRANCH   1  20
ATOM     20  C   UNL     1      -7.713  -2.353 128.837  0.00  0.00    +0.000 A 
ATOM     21  C   UNL     1      -7.338  -1.916 127.558  0.00  0.00    +0.000 A 
ATOM     22  C   UNL     1      -7.900  -2.507 126.430  0.00  0.00    +0.000 A 
ATOM     23  C   UNL     1      -8.738  -3.613 126.568  0.00  0.00    +0.000 A 
ATOM     24  C   UNL     1      -9.090  -4.077 127.834  0.00  0.00    +0.000 A 
ATOM     25  C   UNL     1      -8.610  -3.425 128.964  0.00  0.00    +0.000 A 
ENDBRANCH   1  20
BRANCH   8  26
ATOM     26  C   UNL     1      -4.343  -3.979 135.215  0.00  0.00    +0.000 C 
ATOM     27  C   UNL     1      -5.589  -3.937 136.055  0.00  0.00    +0.000 C 
ENDBRANCH   8  26
BRANCH   8  28
ATOM     28  C   UNL     1      -4.210  -5.953 133.561  0.00  0.00    +0.000 C 
ATOM     29  C   UNL     1      -2.856  -6.410 134.073  0.00  0.00    +0.000 C 
ENDBRANCH   8  28
TORSDOF 7
ENDMDL
MODEL 6
REMARK VINA RESULT:      -7.4      3.507      9.173
REMARK  Name = Brilliant green cation
REMARK  11 active torsions:
REMARK  status: ('A' for Active; 'I' for Inactive)
REMARK    1  A    between atoms: C_1  and  C_2
REMARK    2  A    between atoms: C_2  and  N_3
REMARK    3  A    between atoms: N_3  and  C_4
REMARK    4  A    between atoms: N_3  and  C_6
REMARK    5  A    between atoms: C_4  and  C_5
REMARK    6  A    between atoms: C_9  and  C_12
REMARK    7  A    between atoms: C_12  and  C_13
REMARK    8  A    between atoms: N_25  and  C_26
REMARK    9  A    between atoms: N_25  and  C_28
REMARK   10  A    between atoms: C_26  and  C_27
REMARK   11  A    between atoms: C_28  and  C_29
REMARK                            x       y       z     vdW  Elec       q    Type
REMARK                         _______ _______ _______ _____ _____    ______ ____
ROOT
ATOM      1  C   UNL     1      -6.960  -1.924 130.595  0.00  0.00    +0.000 C 
ATOM      2  C   UNL     1      -6.961  -0.638 131.049  0.00  0.00    +0.000 C 
ATOM      3  C   UNL     1      -6.934   0.465 130.136  0.00  0.00    +0.000 C 
ATOM      4  C   UNL     1      -7.515   1.604 130.420  0.00  0.00    +0.000 C 
ATOM      5  C   UNL     1      -8.021   1.922 131.783  0.00  0.00    +0.000 C 
ATOM      6  C   UNL     1      -7.420   0.988 132.822  0.00  0.00    +0.000 C 
ATOM      7  C   UNL     1      -6.902  -0.197 132.450  0.00  0.00    +0.000 C 
ATOM      8  N   UNL     1      -8.798   2.932 132.068  0.00  0.00    +0.000 N 
ENDROOT
BRANCH   1  12
ATOM      9  C   UNL     1      -7.221  -2.729 126.261  0.00  0.00    +0.000 A 
ATOM     10  C   UNL     1      -6.044  -2.296 126.884  0.00  0.00    +0.000 A 
ATOM     11  C   UNL     1      -5.951  -2.125 128.276  0.00  0.00    +0.000 A 
ATOM     12  C   UNL     1      -7.047  -2.321 129.117  0.00  0.00    +0.000 A 
ATOM     13  C   UNL     1      -8.165  -2.880 128.481  0.00  0.00    +0.000 A 
ATOM     14  C   UNL     1      -8.296  -2.984 127.097  0.00  0.00    +0.000 A 
BRANCH   9  15
ATOM     15  N   UNL     1      -7.280  -2.995 124.881  0.00  0.00    +0.000 N 
BRANCH  15  17
ATOM     16  C   UNL     1      -5.210  -2.958 123.372  0.00  0.00    +0.000 C 
ATOM     17  C   UNL     1      -6.348  -2.222 124.037  0.00  0.00    +0.000 C 
ENDBRANCH  15  17
BRANCH  15  18
ATOM     18  C   UNL     1      -8.511  -3.711 124.487  0.00  0.00    +0.000 C 
ATOM     19  C   UNL     1      -9.368  -3.101 123.405  0.00  0.00    +0.000 C 
ENDBRANCH  15  18
ENDBRANCH   9  15
ENDBRANCH   1  12
BRANCH   1  20
ATOM     20  C   UNL     1      -6.724  -2.953 131.652  0.00  0.00    +0.000 A 
ATOM     21  C   UNL     1      -7.561  -3.059 132.771  0.00  0.00    +0.000 A 
ATOM     22  C   UNL     1      -7.233  -3.936 133.802  0.00  0.00    +0.000 A 
ATOM     23  C   UNL     1      -6.145  -4.796 133.665  0.00  0.00    +0.000 A 
ATOM     24  C   UNL     1      -5.326  -4.723 132.540  0.00  0.00    +0.000 A 
ATOM     25  C   UNL     1      -5.592  -3.778 131.555  0.00  0.00    +0.000 A 
ENDBRANCH   1  20
BRANCH   8  26
ATOM     26  C   UNL     1      -9.476   3.886 131.071  0.00  0.00    +0.000 C 
ATOM     27  C   UNL     1     -10.820   3.483 130.531  0.00  0.00    +0.000 C 
ENDBRANCH   8  26
BRANCH   8  28
ATOM     28  C   UNL     1      -9.098   3.240 133.539  0.00  0.00    +0.000 C 
ATOM     29  C   UNL     1      -8.273   4.376 134.117  0.00  0.00    +0.000 C 
ENDBRANCH   8  28
TORSDOF 7
ENDMDL
MODEL 7
REMARK VINA RESULT:      -7.3      6.722     11.199
REMARK  Name = Brilliant green cation
REMARK  11 active torsions:
REMARK  status: ('A' for Active; 'I' for Inactive)
REMARK    1  A    between atoms: C_1  and  C_2
REMARK    2  A    between atoms: C_2  and  N_3
REMARK    3  A    between atoms: N_3  and  C_4
REMARK    4  A    between atoms: N_3  and  C_6
REMARK    5  A    between atoms: C_4  and  C_5
REMARK    6  A    between atoms: C_9  and  C_12
REMARK    7  A    between atoms: C_12  and  C_13
REMARK    8  A    between atoms: N_25  and  C_26
REMARK    9  A    between atoms: N_25  and  C_28
REMARK   10  A    between atoms: C_26  and  C_27
REMARK   11  A    between atoms: C_28  and  C_29
REMARK                            x       y       z     vdW  Elec       q    Type
REMARK                         _______ _______ _______ _____ _____    ______ ____
ROOT
ATOM      1  C   UNL     1      -6.593  -1.635 127.323  0.00  0.00    +0.000 C 
ATOM      2  C   UNL     1      -6.568  -0.277 127.192  0.00  0.00    +0.000 C 
ATOM      3  C   UNL     1      -6.060   0.554 128.243  0.00  0.00    +0.000 C 
ATOM      4  C   UNL     1      -5.467   1.694 127.989  0.00  0.00    +0.000 C 
ATOM      5  C   UNL     1      -5.493   2.323 126.640  0.00  0.00    +0.000 C 
ATOM      6  C   UNL     1      -6.592   1.722 125.777  0.00  0.00    +0.000 C 
ATOM      7  C   UNL     1      -7.102   0.513 126.073  0.00  0.00    +0.000 C 
ATOM      8  N   UNL     1      -4.742   3.326 126.276  0.00  0.00    +0.000 N 
ENDROOT
BRANCH   1  12
ATOM      9  C   UNL     1      -4.924  -3.561 130.928  0.00  0.00    +0.000 A 
ATOM     10  C   UNL     1      -6.297  -3.367 130.737  0.00  0.00    +0.000 A 
ATOM     11  C   UNL     1      -6.821  -2.830 129.548  0.00  0.00    +0.000 A 
ATOM     12  C   UNL     1      -5.996  -2.402 128.508  0.00  0.00    +0.000 A 
ATOM     13  C   UNL     1      -4.643  -2.732 128.675  0.00  0.00    +0.000 A 
ATOM     14  C   UNL     1      -4.103  -3.195 129.874  0.00  0.00    +0.000 A 
BRANCH   9  15
ATOM     15  N   UNL     1      -4.413  -4.192 132.077  0.00  0.00    +0.000 N 
BRANCH  15  17
ATOM     16  C   UNL     1      -5.841  -5.325 133.877  0.00  0.00    +0.000 C 
ATOM     17  C   UNL     1      -5.148  -5.386 132.537  0.00  0.00    +0.000 C 
ENDBRANCH  15  17
BRANCH  15  18
ATOM     18  C   UNL     1      -3.472  -3.336 132.830  0.00  0.00    +0.000 C 
ATOM     19  C   UNL     1      -4.002  -2.052 133.422  0.00  0.00    +0.000 C 
ENDBRANCH  15  18
ENDBRANCH   9  15
ENDBRANCH   1  12
BRANCH   1  20
ATOM     20  C   UNL     1      -7.384  -2.342 126.271  0.00  0.00    +0.000 A 
ATOM     21  C   UNL     1      -6.783  -2.812 125.095  0.00  0.00    +0.000 A 
ATOM     22  C   UNL     1      -7.572  -3.343 124.078  0.00  0.00    +0.000 A 
ATOM     23  C   UNL     1      -8.940  -3.524 124.279  0.00  0.00    +0.000 A 
ATOM     24  C   UNL     1      -9.541  -3.092 125.459  0.00  0.00    +0.000 A 
ATOM     25  C   UNL     1      -8.772  -2.468 126.436  0.00  0.00    +0.000 A 
ENDBRANCH   1  20
BRANCH   8  26
ATOM     26  C   UNL     1      -3.586   3.953 127.074  0.00  0.00    +0.000 C 
ATOM     27  C   UNL     1      -2.209   3.392 126.853  0.00  0.00    +0.000 C 
ENDBRANCH   8  26
BRANCH   8  28
ATOM     28  C   UNL     1      -4.999   3.985 124.916  0.00  0.00    +0.000 C 
ATOM     29  C   UNL     1      -5.989   5.135 124.960  0.00  0.00    +0.000 C 
ENDBRANCH   8  28
TORSDOF 7
ENDMDL
MODEL 8
REMARK VINA RESULT:      -7.3      5.948      9.494
REMARK  Name = Brilliant green cation
REMARK  11 active torsions:
REMARK  status: ('A' for Active; 'I' for Inactive)
REMARK    1  A    between atoms: C_1  and  C_2
REMARK    2  A    between atoms: C_2  and  N_3
REMARK    3  A    between atoms: N_3  and  C_4
REMARK    4  A    between atoms: N_3  and  C_6
REMARK    5  A    between atoms: C_4  and  C_5
REMARK    6  A    between atoms: C_9  and  C_12
REMARK    7  A    between atoms: C_12  and  C_13
REMARK    8  A    between atoms: N_25  and  C_26
REMARK    9  A    between atoms: N_25  and  C_28
REMARK   10  A    between atoms: C_26  and  C_27
REMARK   11  A    between atoms: C_28  and  C_29
REMARK                            x       y       z     vdW  Elec       q    Type
REMARK                         _______ _______ _______ _____ _____    ______ ____
ROOT
ATOM      1  C   UNL     1      -2.756   7.861 132.493  0.00  0.00    +0.000 C 
ATOM      2  C   UNL     1      -3.415   7.038 133.358  0.00  0.00    +0.000 C 
ATOM      3  C   UNL     1      -3.251   7.176 134.775  0.00  0.00    +0.000 C 
ATOM      4  C   UNL     1      -4.220   6.889 135.607  0.00  0.00    +0.000 C 
ATOM      5  C   UNL     1      -5.455   6.178 135.179  0.00  0.00    +0.000 C 
ATOM      6  C   UNL     1      -5.254   5.493 133.837  0.00  0.00    +0.000 C 
ATOM      7  C   UNL     1      -4.271   5.894 133.011  0.00  0.00    +0.000 C 
ATOM      8  N   UNL     1      -6.536   6.068 135.903  0.00  0.00    +0.000 N 
ENDROOT
BRANCH   1  12
ATOM      9  C   UNL     1      -0.279  11.404 133.391  0.00  0.00    +0.000 A 
ATOM     10  C   UNL     1      -1.661  11.477 133.178  0.00  0.00    +0.000 A 
ATOM     11  C   UNL     1      -2.451  10.332 132.976  0.00  0.00    +0.000 A 
ATOM     12  C   UNL     1      -1.894   9.055 132.919  0.00  0.00    +0.000 A 
ATOM     13  C   UNL     1      -0.536   9.004 133.268  0.00  0.00    +0.000 A 
ATOM     14  C   UNL     1       0.272  10.133 133.396  0.00  0.00    +0.000 A 
BRANCH   9  15
ATOM     15  N   UNL     1       0.490  12.543 133.692  0.00  0.00    +0.000 N 
BRANCH  15  17
ATOM     16  C   UNL     1       0.475  12.798 136.241  0.00  0.00    +0.000 C 
ATOM     17  C   UNL     1       0.068  13.310 134.880  0.00  0.00    +0.000 C 
ENDBRANCH  15  17
BRANCH  15  18
ATOM     18  C   UNL     1       1.337  12.978 132.561  0.00  0.00    +0.000 C 
ATOM     19  C   UNL     1       0.754  12.900 131.171  0.00  0.00    +0.000 C 
ENDBRANCH  15  18
ENDBRANCH   9  15
ENDBRANCH   1  12
BRANCH   1  20
ATOM     20  C   UNL     1      -2.818   7.432 131.064  0.00  0.00    +0.000 A 
ATOM     21  C   UNL     1      -1.937   6.470 130.549  0.00  0.00    +0.000 A 
ATOM     22  C   UNL     1      -1.932   6.195 129.184  0.00  0.00    +0.000 A 
ATOM     23  C   UNL     1      -2.884   6.781 128.351  0.00  0.00    +0.000 A 
ATOM     24  C   UNL     1      -3.787   7.712 128.860  0.00  0.00    +0.000 A 
ATOM     25  C   UNL     1      -3.728   8.065 130.203  0.00  0.00    +0.000 A 
ENDBRANCH   1  20
BRANCH   8  26
ATOM     26  C   UNL     1      -6.826   6.767 137.242  0.00  0.00    +0.000 C 
ATOM     27  C   UNL     1      -8.229   6.685 137.776  0.00  0.00    +0.000 C 
ENDBRANCH   8  26
BRANCH   8  28
ATOM     28  C   UNL     1      -7.667   5.159 135.408  0.00  0.00    +0.000 C 
ATOM     29  C   UNL     1      -8.420   5.703 134.208  0.00  0.00    +0.000 C 
ENDBRANCH   8  28
TORSDOF 7
ENDMDL
MODEL 9
REMARK VINA RESULT:      -6.9      4.491      8.012
REMARK  Name = Brilliant green cation
REMARK  11 active torsions:
REMARK  status: ('A' for Active; 'I' for Inactive)
REMARK    1  A    between atoms: C_1  and  C_2
REMARK    2  A    between atoms: C_2  and  N_3
REMARK    3  A    between atoms: N_3  and  C_4
REMARK    4  A    between atoms: N_3  and  C_6
REMARK    5  A    between atoms: C_4  and  C_5
REMARK    6  A    between atoms: C_9  and  C_12
REMARK    7  A    between atoms: C_12  and  C_13
REMARK    8  A    between atoms: N_25  and  C_26
REMARK    9  A    between atoms: N_25  and  C_28
REMARK   10  A    between atoms: C_26  and  C_27
REMARK   11  A    between atoms: C_28  and  C_29
REMARK                            x       y       z     vdW  Elec       q    Type
REMARK                         _______ _______ _______ _____ _____    ______ ____
ROOT
ATOM      1  C   UNL     1      -6.415  -1.047 129.790  0.00  0.00    +0.000 C 
ATOM      2  C   UNL     1      -7.307  -1.278 128.783  0.00  0.00    +0.000 C 
ATOM      3  C   UNL     1      -7.819  -0.199 127.992  0.00  0.00    +0.000 C 
ATOM      4  C   UNL     1      -8.146  -0.367 126.735  0.00  0.00    +0.000 C 
ATOM      5  C   UNL     1      -8.245  -1.714 126.110  0.00  0.00    +0.000 C 
ATOM      6  C   UNL     1      -8.339  -2.803 127.168  0.00  0.00    +0.000 C 
ATOM      7  C   UNL     1      -7.919  -2.565 128.424  0.00  0.00    +0.000 C 
ATOM      8  N   UNL     1      -8.343  -1.930 124.826  0.00  0.00    +0.000 N 
ENDROOT
BRANCH   1  12
ATOM      9  C   UNL     1      -4.858   3.028 130.469  0.00  0.00    +0.000 A 
ATOM     10  C   UNL     1      -6.043   2.561 131.051  0.00  0.00    +0.000 A 
ATOM     11  C   UNL     1      -6.483   1.235 130.895  0.00  0.00    +0.000 A 
ATOM     12  C   UNL     1      -5.794   0.319 130.100  0.00  0.00    +0.000 A 
ATOM     13  C   UNL     1      -4.549   0.778 129.644  0.00  0.00    +0.000 A 
ATOM     14  C   UNL     1      -4.137   2.107 129.728  0.00  0.00    +0.000 A 
BRANCH   9  15
ATOM     15  N   UNL     1      -4.370   4.326 130.710  0.00  0.00    +0.000 N 
BRANCH  15  17
ATOM     16  C   UNL     1      -2.831   5.471 129.013  0.00  0.00    +0.000 C 
ATOM     17  C   UNL     1      -3.001   4.598 130.233  0.00  0.00    +0.000 C 
ENDBRANCH  15  17
BRANCH  15  18
ATOM     18  C   UNL     1      -5.160   5.055 131.724  0.00  0.00    +0.000 C 
ATOM     19  C   UNL     1      -5.727   6.402 131.344  0.00  0.00    +0.000 C 
ENDBRANCH  15  18
ENDBRANCH   9  15
ENDBRANCH   1  12
BRANCH   1  20
ATOM     20  C   UNL     1      -6.179  -2.218 130.686  0.00  0.00    +0.000 A 
ATOM     21  C   UNL     1      -5.292  -3.245 130.332  0.00  0.00    +0.000 A 
ATOM     22  C   UNL     1      -5.199  -4.385 131.125  0.00  0.00    +0.000 A 
ATOM     23  C   UNL     1      -5.890  -4.451 132.334  0.00  0.00    +0.000 A 
ATOM     24  C   UNL     1      -6.747  -3.420 132.713  0.00  0.00    +0.000 A 
ATOM     25  C   UNL     1      -6.921  -2.326 131.873  0.00  0.00    +0.000 A 
ENDBRANCH   1  20
BRANCH   8  26
ATOM     26  C   UNL     1      -8.212  -0.890 123.702  0.00  0.00    +0.000 C 
ATOM     27  C   UNL     1      -6.829  -0.577 123.205  0.00  0.00    +0.000 C 
ENDBRANCH   8  26
BRANCH   8  28
ATOM     28  C   UNL     1      -8.616  -3.357 124.337  0.00  0.00    +0.000 C 
ATOM     29  C   UNL     1      -9.733  -3.460 123.314  0.00  0.00    +0.000 C 
ENDBRANCH   8  28
TORSDOF 7
ENDMDL
