MODEL 1
REMARK VINA RESULT:      -6.2      0.000      0.000
REMARK  Name = Brimonidine
REMARK  1 active torsions:
REMARK  status: ('A' for Active; 'I' for Inactive)
REMARK    1  A    between atoms: C_3  and  N_4
REMARK                            x       y       z     vdW  Elec       q    Type
REMARK                         _______ _______ _______ _____ _____    ______ ____
ROOT
ATOM      1 BR   UNL     1      -5.472  -1.495 125.098  0.00  0.00    +0.000 Br
ATOM      2  C   UNL     1      -7.077  -2.179 125.892  0.00  0.00    +0.000 A 
ATOM      3  C   UNL     1      -8.213  -2.378 125.078  0.00  0.00    +0.000 A 
ATOM      4  C   UNL     1      -9.328  -2.968 125.677  0.00  0.00    +0.000 A 
ATOM      5  C   UNL     1      -9.269  -3.450 126.981  0.00  0.00    +0.000 A 
ATOM      6  C   UNL     1      -8.195  -3.167 127.798  0.00  0.00    +0.000 A 
ATOM      7  N   UNL     1      -8.292  -3.503 129.096  0.00  0.00    +0.000 NA
ATOM      8  C   UNL     1      -7.291  -3.093 129.900  0.00  0.00    +0.000 A 
ATOM      9  C   UNL     1      -6.198  -2.413 129.412  0.00  0.00    +0.000 A 
ATOM     10  N   UNL     1      -6.057  -2.129 128.100  0.00  0.00    +0.000 NA
ATOM     11  C   UNL     1      -7.071  -2.485 127.267  0.00  0.00    +0.000 A 
ENDROOT
BRANCH   3  12
ATOM     12  N   UNL     1      -8.245  -1.917 123.728  0.00  0.00    +0.000 N 
ATOM     13  C   UNL     1      -8.922  -0.793 123.351  0.00  0.00    +0.000 C 
ATOM     14  N   UNL     1     -10.005  -0.753 122.637  0.00  0.00    +0.000 NA
ATOM     15  C   UNL     1     -10.275   0.715 122.474  0.00  0.00    +0.000 C 
ATOM     16  C   UNL     1      -9.334   1.448 123.440  0.00  0.00    +0.000 C 
ATOM     17  N   UNL     1      -8.425   0.395 123.770  0.00  0.00    +0.000 N 
ATOM     18  H   UNL     1      -8.473  -2.704 123.126  0.00  0.00    +0.000 HD
ATOM     19  H   UNL     1      -7.479   0.519 124.090  0.00  0.00    +0.000 HD
ENDBRANCH   3  12
TORSDOF 1
ENDMDL
MODEL 2
REMARK VINA RESULT:      -6.2      8.521     10.834
REMARK  Name = Brimonidine
REMARK  1 active torsions:
REMARK  status: ('A' for Active; 'I' for Inactive)
REMARK    1  A    between atoms: C_3  and  N_4
REMARK                            x       y       z     vdW  Elec       q    Type
REMARK                         _______ _______ _______ _____ _____    ______ ____
ROOT
ATOM      1 BR   UNL     1      -8.408   4.376 129.202  0.00  0.00    +0.000 Br
ATOM      2  C   UNL     1      -9.861   5.392 129.930  0.00  0.00    +0.000 A 
ATOM      3  C   UNL     1     -10.361   5.056 131.206  0.00  0.00    +0.000 A 
ATOM      4  C   UNL     1     -11.354   5.882 131.737  0.00  0.00    +0.000 A 
ATOM      5  C   UNL     1     -11.736   7.052 131.087  0.00  0.00    +0.000 A 
ATOM      6  C   UNL     1     -11.317   7.321 129.802  0.00  0.00    +0.000 A 
ATOM      7  N   UNL     1     -11.874   8.370 129.171  0.00  0.00    +0.000 NA
ATOM      8  C   UNL     1     -11.552   8.532 127.872  0.00  0.00    +0.000 A 
ATOM      9  C   UNL     1     -10.659   7.700 127.235  0.00  0.00    +0.000 A 
ATOM     10  N   UNL     1     -10.041   6.684 127.877  0.00  0.00    +0.000 NA
ATOM     11  C   UNL     1     -10.378   6.463 129.175  0.00  0.00    +0.000 A 
ENDROOT
BRANCH   3  12
ATOM     12  N   UNL     1      -9.929   3.875 131.882  0.00  0.00    +0.000 N 
ATOM     13  C   UNL     1      -8.949   3.889 132.832  0.00  0.00    +0.000 C 
ATOM     14  N   UNL     1      -7.755   3.395 132.711  0.00  0.00    +0.000 NA
ATOM     15  C   UNL     1      -7.131   3.627 134.056  0.00  0.00    +0.000 C 
ATOM     16  C   UNL     1      -8.071   4.566 134.824  0.00  0.00    +0.000 C 
ATOM     17  N   UNL     1      -9.244   4.485 134.012  0.00  0.00    +0.000 N 
ATOM     18  H   UNL     1      -9.758   3.153 131.187  0.00  0.00    +0.000 HD
ATOM     19  H   UNL     1     -10.184   4.664 134.324  0.00  0.00    +0.000 HD
ENDBRANCH   3  12
TORSDOF 1
ENDMDL
MODEL 3
REMARK VINA RESULT:      -6.1      3.453      7.184
REMARK  Name = Brimonidine
REMARK  1 active torsions:
REMARK  status: ('A' for Active; 'I' for Inactive)
REMARK    1  A    between atoms: C_3  and  N_4
REMARK                            x       y       z     vdW  Elec       q    Type
REMARK                         _______ _______ _______ _____ _____    ______ ____
ROOT
ATOM      1 BR   UNL     1      -5.932   3.394 125.390  0.00  0.00    +0.000 Br
ATOM      2  C   UNL     1      -7.047   3.111 123.857  0.00  0.00    +0.000 A 
ATOM      3  C   UNL     1      -8.270   2.425 124.016  0.00  0.00    +0.000 A 
ATOM      4  C   UNL     1      -9.094   2.326 122.892  0.00  0.00    +0.000 A 
ATOM      5  C   UNL     1      -8.773   2.985 121.709  0.00  0.00    +0.000 A 
ATOM      6  C   UNL     1      -7.537   3.568 121.531  0.00  0.00    +0.000 A 
ATOM      7  N   UNL     1      -7.230   4.018 120.301  0.00  0.00    +0.000 NA
ATOM      8  C   UNL     1      -5.969   4.457 120.118  0.00  0.00    +0.000 A 
ATOM      9  C   UNL     1      -5.055   4.493 121.147  0.00  0.00    +0.000 A 
ATOM     10  N   UNL     1      -5.371   4.107 122.402  0.00  0.00    +0.000 NA
ATOM     11  C   UNL     1      -6.621   3.614 122.612  0.00  0.00    +0.000 A 
ENDROOT
BRANCH   3  12
ATOM     12  N   UNL     1      -8.607   1.790 125.249  0.00  0.00    +0.000 N 
ATOM     13  C   UNL     1      -8.607   0.434 125.401  0.00  0.00    +0.000 C 
ATOM     14  N   UNL     1      -9.651  -0.322 125.552  0.00  0.00    +0.000 NA
ATOM     15  C   UNL     1      -9.077  -1.697 125.735  0.00  0.00    +0.000 C 
ATOM     16  C   UNL     1      -7.586  -1.605 125.381  0.00  0.00    +0.000 C 
ATOM     17  N   UNL     1      -7.404  -0.187 125.382  0.00  0.00    +0.000 N 
ATOM     18  H   UNL     1      -9.471   2.200 125.595  0.00  0.00    +0.000 HD
ATOM     19  H   UNL     1      -6.531   0.288 125.537  0.00  0.00    +0.000 HD
ENDBRANCH   3  12
TORSDOF 1
ENDMDL
MODEL 4
REMARK VINA RESULT:      -6.0      2.660      4.775
REMARK  Name = Brimonidine
REMARK  1 active torsions:
REMARK  status: ('A' for Active; 'I' for Inactive)
REMARK    1  A    between atoms: C_3  and  N_4
REMARK                            x       y       z     vdW  Elec       q    Type
REMARK                         _______ _______ _______ _____ _____    ______ ____
ROOT
ATOM      1 BR   UNL     1      -6.226   0.765 125.458  0.00  0.00    +0.000 Br
ATOM      2  C   UNL     1      -7.754   0.362 124.373  0.00  0.00    +0.000 A 
ATOM      3  C   UNL     1      -8.349   1.396 123.618  0.00  0.00    +0.000 A 
ATOM      4  C   UNL     1      -9.398   1.038 122.768  0.00  0.00    +0.000 A 
ATOM      5  C   UNL     1      -9.750  -0.297 122.586  0.00  0.00    +0.000 A 
ATOM      6  C   UNL     1      -9.233  -1.286 123.396  0.00  0.00    +0.000 A 
ATOM      7  N   UNL     1      -9.758  -2.519 123.287  0.00  0.00    +0.000 NA
ATOM      8  C   UNL     1      -9.335  -3.434 124.181  0.00  0.00    +0.000 A 
ATOM      9  C   UNL     1      -8.376  -3.141 125.124  0.00  0.00    +0.000 A 
ATOM     10  N   UNL     1      -7.792  -1.925 125.200  0.00  0.00    +0.000 NA
ATOM     11  C   UNL     1      -8.229  -0.963 124.344  0.00  0.00    +0.000 A 
ENDROOT
BRANCH   3  12
ATOM     12  N   UNL     1      -7.950   2.756 123.782  0.00  0.00    +0.000 N 
ATOM     13  C   UNL     1      -7.032   3.355 122.971  0.00  0.00    +0.000 C 
ATOM     14  N   UNL     1      -5.828   3.710 123.304  0.00  0.00    +0.000 NA
ATOM     15  C   UNL     1      -5.290   4.367 122.066  0.00  0.00    +0.000 C 
ATOM     16  C   UNL     1      -6.284   4.063 120.936  0.00  0.00    +0.000 C 
ATOM     17  N   UNL     1      -7.404   3.594 121.690  0.00  0.00    +0.000 N 
ATOM     18  H   UNL     1      -7.731   2.909 124.763  0.00  0.00    +0.000 HD
ATOM     19  H   UNL     1      -8.362   3.614 121.386  0.00  0.00    +0.000 HD
ENDBRANCH   3  12
TORSDOF 1
ENDMDL
MODEL 5
REMARK VINA RESULT:      -6.0      3.105      4.900
REMARK  Name = Brimonidine
REMARK  1 active torsions:
REMARK  status: ('A' for Active; 'I' for Inactive)
REMARK    1  A    between atoms: C_3  and  N_4
REMARK                            x       y       z     vdW  Elec       q    Type
REMARK                         _______ _______ _______ _____ _____    ______ ____
ROOT
ATOM      1 BR   UNL     1     -10.092   1.246 123.299  0.00  0.00    +0.000 Br
ATOM      2  C   UNL     1      -8.518   0.449 124.047  0.00  0.00    +0.000 A 
ATOM      3  C   UNL     1      -7.464   1.283 124.475  0.00  0.00    +0.000 A 
ATOM      4  C   UNL     1      -6.379   0.666 125.102  0.00  0.00    +0.000 A 
ATOM      5  C   UNL     1      -6.402  -0.694 125.399  0.00  0.00    +0.000 A 
ATOM      6  C   UNL     1      -7.386  -1.516 124.893  0.00  0.00    +0.000 A 
ATOM      7  N   UNL     1      -7.239  -2.842 125.064  0.00  0.00    +0.000 NA
ATOM      8  C   UNL     1      -8.139  -3.632 124.444  0.00  0.00    +0.000 A 
ATOM      9  C   UNL     1      -9.185  -3.111 123.717  0.00  0.00    +0.000 A 
ATOM     10  N   UNL     1      -9.381  -1.780 123.594  0.00  0.00    +0.000 NA
ATOM     11  C   UNL     1      -8.466  -0.954 124.167  0.00  0.00    +0.000 A 
ENDROOT
BRANCH   3  12
ATOM     12  N   UNL     1      -7.472   2.684 124.202  0.00  0.00    +0.000 N 
ATOM     13  C   UNL     1      -6.636   3.260 123.291  0.00  0.00    +0.000 C 
ATOM     14  N   UNL     1      -5.636   4.044 123.554  0.00  0.00    +0.000 NA
ATOM     15  C   UNL     1      -5.113   4.430 122.201  0.00  0.00    +0.000 C 
ATOM     16  C   UNL     1      -5.808   3.516 121.181  0.00  0.00    +0.000 C 
ATOM     17  N   UNL     1      -6.862   2.980 121.985  0.00  0.00    +0.000 N 
ATOM     18  H   UNL     1      -7.452   3.183 125.088  0.00  0.00    +0.000 HD
ATOM     19  H   UNL     1      -7.734   2.618 121.638  0.00  0.00    +0.000 HD
ENDBRANCH   3  12
TORSDOF 1
ENDMDL
MODEL 6
REMARK VINA RESULT:      -5.8      8.555      9.496
REMARK  Name = Brimonidine
REMARK  1 active torsions:
REMARK  status: ('A' for Active; 'I' for Inactive)
REMARK    1  A    between atoms: C_3  and  N_4
REMARK                            x       y       z     vdW  Elec       q    Type
REMARK                         _______ _______ _______ _____ _____    ______ ____
ROOT
ATOM      1 BR   UNL     1      -9.042   2.759 129.739  0.00  0.00    +0.000 Br
ATOM      2  C   UNL     1      -8.317   4.452 130.272  0.00  0.00    +0.000 A 
ATOM      3  C   UNL     1      -9.110   5.322 131.050  0.00  0.00    +0.000 A 
ATOM      4  C   UNL     1      -8.508   6.501 131.497  0.00  0.00    +0.000 A 
ATOM      5  C   UNL     1      -7.153   6.737 131.286  0.00  0.00    +0.000 A 
ATOM      6  C   UNL     1      -6.412   5.934 130.446  0.00  0.00    +0.000 A 
ATOM      7  N   UNL     1      -5.163   6.331 130.143  0.00  0.00    +0.000 NA
ATOM      8  C   UNL     1      -4.509   5.606 129.215  0.00  0.00    +0.000 A 
ATOM      9  C   UNL     1      -5.066   4.484 128.643  0.00  0.00    +0.000 A 
ATOM     10  N   UNL     1      -6.293   4.037 128.988  0.00  0.00    +0.000 NA
ATOM     11  C   UNL     1      -7.000   4.771 129.887  0.00  0.00    +0.000 A 
ENDROOT
BRANCH   3  12
ATOM     12  N   UNL     1     -10.488   5.047 131.295  0.00  0.00    +0.000 N 
ATOM     13  C   UNL     1     -11.486   5.901 130.924  0.00  0.00    +0.000 C 
ATOM     14  N   UNL     1     -12.225   6.611 131.720  0.00  0.00    +0.000 NA
ATOM     15  C   UNL     1     -13.184   7.306 130.797  0.00  0.00    +0.000 C 
ATOM     16  C   UNL     1     -12.669   7.077 129.369  0.00  0.00    +0.000 C 
ATOM     17  N   UNL     1     -11.723   6.030 129.597  0.00  0.00    +0.000 N 
ATOM     18  H   UNL     1     -10.590   4.761 132.266  0.00  0.00    +0.000 HD
ATOM     19  H   UNL     1     -11.417   5.361 128.910  0.00  0.00    +0.000 HD
ENDBRANCH   3  12
TORSDOF 1
ENDMDL
MODEL 7
REMARK VINA RESULT:      -5.7      2.327      6.324
REMARK  Name = Brimonidine
REMARK  1 active torsions:
REMARK  status: ('A' for Active; 'I' for Inactive)
REMARK    1  A    between atoms: C_3  and  N_4
REMARK                            x       y       z     vdW  Elec       q    Type
REMARK                         _______ _______ _______ _____ _____    ______ ____
ROOT
ATOM      1 BR   UNL     1      -8.747  -3.663 127.662  0.00  0.00    +0.000 Br
ATOM      2  C   UNL     1      -7.649  -2.576 126.529  0.00  0.00    +0.000 A 
ATOM      3  C   UNL     1      -6.559  -1.878 127.094  0.00  0.00    +0.000 A 
ATOM      4  C   UNL     1      -5.730  -1.177 126.217  0.00  0.00    +0.000 A 
ATOM      5  C   UNL     1      -5.902  -1.270 124.839  0.00  0.00    +0.000 A 
ATOM      6  C   UNL     1      -7.021  -1.870 124.300  0.00  0.00    +0.000 A 
ATOM      7  N   UNL     1      -7.212  -1.757 122.974  0.00  0.00    +0.000 NA
ATOM      8  C   UNL     1      -8.378  -2.230 122.491  0.00  0.00    +0.000 A 
ATOM      9  C   UNL     1      -9.304  -2.846 123.303  0.00  0.00    +0.000 A 
ATOM     10  N   UNL     1      -9.094  -3.026 124.624  0.00  0.00    +0.000 NA
ATOM     11  C   UNL     1      -7.949  -2.519 125.153  0.00  0.00    +0.000 A 
ENDROOT
BRANCH   3  12
ATOM     12  N   UNL     1      -6.368  -1.826 128.507  0.00  0.00    +0.000 N 
ATOM     13  C   UNL     1      -5.435  -2.584 129.152  0.00  0.00    +0.000 C 
ATOM     14  N   UNL     1      -5.671  -3.587 129.941  0.00  0.00    +0.000 NA
ATOM     15  C   UNL     1      -4.308  -4.004 130.413  0.00  0.00    +0.000 C 
ATOM     16  C   UNL     1      -3.290  -3.254 129.543  0.00  0.00    +0.000 C 
ATOM     17  N   UNL     1      -4.134  -2.270 128.940  0.00  0.00    +0.000 N 
ATOM     18  H   UNL     1      -7.278  -1.901 128.956  0.00  0.00    +0.000 HD
ATOM     19  H   UNL     1      -3.829  -1.382 128.579  0.00  0.00    +0.000 HD
ENDBRANCH   3  12
TORSDOF 1
ENDMDL
MODEL 8
REMARK VINA RESULT:      -5.7      1.932      5.906
REMARK  Name = Brimonidine
REMARK  1 active torsions:
REMARK  status: ('A' for Active; 'I' for Inactive)
REMARK    1  A    between atoms: C_3  and  N_4
REMARK                            x       y       z     vdW  Elec       q    Type
REMARK                         _______ _______ _______ _____ _____    ______ ____
ROOT
ATOM      1 BR   UNL     1      -5.726   0.043 126.213  0.00  0.00    +0.000 Br
ATOM      2  C   UNL     1      -6.997  -1.375 126.430  0.00  0.00    +0.000 A 
ATOM      3  C   UNL     1      -7.211  -1.913 127.717  0.00  0.00    +0.000 A 
ATOM      4  C   UNL     1      -8.214  -2.876 127.844  0.00  0.00    +0.000 A 
ATOM      5  C   UNL     1      -9.044  -3.192 126.773  0.00  0.00    +0.000 A 
ATOM      6  C   UNL     1      -8.769  -2.737 125.501  0.00  0.00    +0.000 A 
ATOM      7  N   UNL     1      -9.501  -3.234 124.488  0.00  0.00    +0.000 NA
ATOM      8  C   UNL     1      -9.125  -2.881 123.243  0.00  0.00    +0.000 A 
ATOM      9  C   UNL     1      -8.078  -2.016 123.018  0.00  0.00    +0.000 A 
ATOM     10  N   UNL     1      -7.378  -1.457 124.029  0.00  0.00    +0.000 NA
ATOM     11  C   UNL     1      -7.700  -1.828 125.296  0.00  0.00    +0.000 A 
ENDROOT
BRANCH   3  12
ATOM     12  N   UNL     1      -6.379  -1.548 128.818  0.00  0.00    +0.000 N 
ATOM     13  C   UNL     1      -5.420  -2.378 129.321  0.00  0.00    +0.000 C 
ATOM     14  N   UNL     1      -5.451  -2.982 130.469  0.00  0.00    +0.000 NA
ATOM     15  C   UNL     1      -4.135  -3.701 130.535  0.00  0.00    +0.000 C 
ATOM     16  C   UNL     1      -3.514  -3.617 129.134  0.00  0.00    +0.000 C 
ATOM     17  N   UNL     1      -4.333  -2.604 128.545  0.00  0.00    +0.000 N 
ATOM     18  H   UNL     1      -6.971  -1.179 129.558  0.00  0.00    +0.000 HD
ATOM     19  H   UNL     1      -4.066  -2.011 127.778  0.00  0.00    +0.000 HD
ENDBRANCH   3  12
TORSDOF 1
ENDMDL
MODEL 9
REMARK VINA RESULT:      -5.4      8.341      9.509
REMARK  Name = Brimonidine
REMARK  1 active torsions:
REMARK  status: ('A' for Active; 'I' for Inactive)
REMARK    1  A    between atoms: C_3  and  N_4
REMARK                            x       y       z     vdW  Elec       q    Type
REMARK                         _______ _______ _______ _____ _____    ______ ____
ROOT
ATOM      1 BR   UNL     1      -9.406   2.244 132.452  0.00  0.00    +0.000 Br
ATOM      2  C   UNL     1      -8.289   3.788 132.252  0.00  0.00    +0.000 A 
ATOM      3  C   UNL     1      -8.827   5.063 132.526  0.00  0.00    +0.000 A 
ATOM      4  C   UNL     1      -7.951   6.149 132.460  0.00  0.00    +0.000 A 
ATOM      5  C   UNL     1      -6.587   5.959 132.258  0.00  0.00    +0.000 A 
ATOM      6  C   UNL     1      -6.086   4.727 131.896  0.00  0.00    +0.000 A 
ATOM      7  N   UNL     1      -4.793   4.660 131.534  0.00  0.00    +0.000 NA
ATOM      8  C   UNL     1      -4.362   3.477 131.053  0.00  0.00    +0.000 A 
ATOM      9  C   UNL     1      -5.186   2.377 130.984  0.00  0.00    +0.000 A 
ATOM     10  N   UNL     1      -6.468   2.413 131.407  0.00  0.00    +0.000 NA
ATOM     11  C   UNL     1      -6.950   3.603 131.854  0.00  0.00    +0.000 A 
ENDROOT
BRANCH   3  12
ATOM     12  N   UNL     1     -10.221   5.240 132.775  0.00  0.00    +0.000 N 
ATOM     13  C   UNL     1     -11.057   5.841 131.879  0.00  0.00    +0.000 C 
ATOM     14  N   UNL     1     -11.616   7.005 132.011  0.00  0.00    +0.000 NA
ATOM     15  C   UNL     1     -12.467   7.137 130.782  0.00  0.00    +0.000 C 
ATOM     16  C   UNL     1     -12.066   5.994 129.839  0.00  0.00    +0.000 C 
ATOM     17  N   UNL     1     -11.322   5.165 130.736  0.00  0.00    +0.000 N 
ATOM     18  H   UNL     1     -10.332   5.635 133.705  0.00  0.00    +0.000 HD
ATOM     19  H   UNL     1     -11.176   4.175 130.629  0.00  0.00    +0.000 HD
ENDBRANCH   3  12
TORSDOF 1
ENDMDL
