MODEL 1
REMARK VINA RESULT:      -6.1      0.000      0.000
REMARK  Name = Brinzolamide
REMARK  10 active torsions:
REMARK  status: ('A' for Active; 'I' for Inactive)
REMARK    1  A    between atoms: C_1  and  C_2
REMARK    2  A    between atoms: C_2  and  N_3
REMARK    3  A    between atoms: N_3  and  C_4
REMARK    4  A    between atoms: N_6  and  C_7
REMARK    5  A    between atoms: C_7  and  C_8
REMARK    6  A    between atoms: C_8  and  C_9
REMARK    7  A    between atoms: C_9  and  O_10
REMARK    8  A    between atoms: O_10  and  C_11
REMARK    9  A    between atoms: C_18  and  S_20
REMARK   10  A    between atoms: S_20  and  N_21
REMARK                            x       y       z     vdW  Elec       q    Type
REMARK                         _______ _______ _______ _____ _____    ______ ____
ROOT
ATOM      1  C   UNL     1      -7.145  -1.898 124.058  0.00  0.00    +0.000 C 
ATOM      2  C   UNL     1      -8.059  -2.513 125.150  0.00  0.00    +0.000 C 
ATOM      3  N   UNL     1      -8.571  -1.755 126.326  0.00  0.00    +0.000 NA
ATOM      4  S   UNL     1      -8.938  -0.129 126.177  0.00  0.00    +0.000 S 
ATOM      5  O   UNL     1     -10.310   0.003 125.752  0.00  0.00    +0.000 OA
ATOM      6  O   UNL     1      -8.374   0.599 127.295  0.00  0.00    +0.000 OA
ATOM      7  C   UNL     1      -7.999   0.352 124.801  0.00  0.00    +0.000 A 
ATOM      8  C   UNL     1      -7.269  -0.411 123.917  0.00  0.00    +0.000 A 
ATOM      9  C   UNL     1      -6.711   0.431 122.905  0.00  0.00    +0.000 A 
ATOM     10  C   UNL     1      -7.017   1.761 123.127  0.00  0.00    +0.000 A 
ATOM     11  S   UNL     1      -7.994   1.996 124.493  0.00  0.00    +0.000 S 
ENDROOT
BRANCH  10  12
ATOM     12  S   UNL     1      -6.683   3.262 122.280  0.00  0.00    +0.000 S 
ATOM     13  O   UNL     1      -6.191   4.169 123.299  0.00  0.00    +0.000 OA
ATOM     14  O   UNL     1      -5.931   2.863 121.126  0.00  0.00    +0.000 OA
BRANCH  12  15
ATOM     15  N   UNL     1      -8.198   3.806 121.778  0.00  0.00    +0.000 NA
ATOM     16  H   UNL     1      -8.114   4.470 121.004  0.00  0.00    +0.000 HD
ATOM     17  H   UNL     1      -8.737   4.178 122.561  0.00  0.00    +0.000 HD
ENDBRANCH  12  15
ENDBRANCH  10  12
BRANCH   1  18
ATOM     18  N   UNL     1      -5.717  -2.201 124.326  0.00  0.00    +0.000 NA
ATOM     19  H   UNL     1      -5.198  -1.330 124.443  0.00  0.00    +0.000 HD
BRANCH  18  21
ATOM     20  C   UNL     1      -4.488  -4.260 123.843  0.00  0.00    +0.000 C 
ATOM     21  C   UNL     1      -5.072  -2.992 123.264  0.00  0.00    +0.000 C 
ENDBRANCH  18  21
ENDBRANCH   1  18
BRANCH   3  22
ATOM     22  C   UNL     1      -7.856  -2.038 127.575  0.00  0.00    +0.000 C 
BRANCH  22  23
ATOM     23  C   UNL     1      -8.386  -3.281 128.246  0.00  0.00    +0.000 C 
BRANCH  23  24
ATOM     24  C   UNL     1      -7.954  -3.223 129.671  0.00  0.00    +0.000 C 
BRANCH  24  25
ATOM     25  O   UNL     1      -6.817  -4.059 129.772  0.00  0.00    +0.000 OA
ATOM     26  C   UNL     1      -5.869  -3.442 130.617  0.00  0.00    +0.000 C 
ENDBRANCH  24  25
ENDBRANCH  23  24
ENDBRANCH  22  23
ENDBRANCH   3  22
TORSDOF 8
ENDMDL
MODEL 2
REMARK VINA RESULT:      -6.1      2.599      5.030
REMARK  Name = Brinzolamide
REMARK  10 active torsions:
REMARK  status: ('A' for Active; 'I' for Inactive)
REMARK    1  A    between atoms: C_1  and  C_2
REMARK    2  A    between atoms: C_2  and  N_3
REMARK    3  A    between atoms: N_3  and  C_4
REMARK    4  A    between atoms: N_6  and  C_7
REMARK    5  A    between atoms: C_7  and  C_8
REMARK    6  A    between atoms: C_8  and  C_9
REMARK    7  A    between atoms: C_9  and  O_10
REMARK    8  A    between atoms: O_10  and  C_11
REMARK    9  A    between atoms: C_18  and  S_20
REMARK   10  A    between atoms: S_20  and  N_21
REMARK                            x       y       z     vdW  Elec       q    Type
REMARK                         _______ _______ _______ _____ _____    ______ ____
ROOT
ATOM      1  C   UNL     1      -5.903  -1.289 124.257  0.00  0.00    +0.000 C 
ATOM      2  C   UNL     1      -6.873  -0.680 123.211  0.00  0.00    +0.000 C 
ATOM      3  N   UNL     1      -8.278  -0.289 123.514  0.00  0.00    +0.000 NA
ATOM      4  S   UNL     1      -8.672   0.320 125.022  0.00  0.00    +0.000 S 
ATOM      5  O   UNL     1      -8.491   1.751 125.010  0.00  0.00    +0.000 OA
ATOM      6  O   UNL     1      -9.870  -0.330 125.509  0.00  0.00    +0.000 OA
ATOM      7  C   UNL     1      -7.389  -0.281 126.023  0.00  0.00    +0.000 A 
ATOM      8  C   UNL     1      -6.229  -0.938 125.677  0.00  0.00    +0.000 A 
ATOM      9  C   UNL     1      -5.449  -1.183 126.850  0.00  0.00    +0.000 A 
ATOM     10  C   UNL     1      -6.096  -0.742 127.990  0.00  0.00    +0.000 A 
ATOM     11  S   UNL     1      -7.588  -0.003 127.661  0.00  0.00    +0.000 S 
ENDROOT
BRANCH  10  12
ATOM     12  S   UNL     1      -5.699  -0.708 129.699  0.00  0.00    +0.000 S 
ATOM     13  O   UNL     1      -6.493   0.373 130.251  0.00  0.00    +0.000 OA
ATOM     14  O   UNL     1      -5.801  -2.075 130.119  0.00  0.00    +0.000 OA
BRANCH  12  15
ATOM     15  N   UNL     1      -4.078  -0.247 129.744  0.00  0.00    +0.000 NA
ATOM     16  H   UNL     1      -3.951   0.696 129.367  0.00  0.00    +0.000 HD
ATOM     17  H   UNL     1      -3.482  -0.938 129.288  0.00  0.00    +0.000 HD
ENDBRANCH  12  15
ENDBRANCH  10  12
BRANCH   1  18
ATOM     18  N   UNL     1      -5.877  -2.770 124.161  0.00  0.00    +0.000 NA
ATOM     19  H   UNL     1      -5.853  -3.174 125.098  0.00  0.00    +0.000 HD
BRANCH  18  21
ATOM     20  C   UNL     1      -4.516  -4.752 123.714  0.00  0.00    +0.000 C 
ATOM     21  C   UNL     1      -4.732  -3.291 123.395  0.00  0.00    +0.000 C 
ENDBRANCH  18  21
ENDBRANCH   1  18
BRANCH   3  22
ATOM     22  C   UNL     1      -9.280  -1.249 123.038  0.00  0.00    +0.000 C 
BRANCH  22  23
ATOM     23  C   UNL     1      -8.726  -2.653 122.997  0.00  0.00    +0.000 C 
BRANCH  23  24
ATOM     24  C   UNL     1      -9.403  -3.418 124.082  0.00  0.00    +0.000 C 
BRANCH  24  25
ATOM     25  O   UNL     1      -8.380  -3.833 124.968  0.00  0.00    +0.000 OA
ATOM     26  C   UNL     1      -8.785  -3.563 126.293  0.00  0.00    +0.000 C 
ENDBRANCH  24  25
ENDBRANCH  23  24
ENDBRANCH  22  23
ENDBRANCH   3  22
TORSDOF 8
ENDMDL
MODEL 3
REMARK VINA RESULT:      -6.0      3.359      5.163
REMARK  Name = Brinzolamide
REMARK  10 active torsions:
REMARK  status: ('A' for Active; 'I' for Inactive)
REMARK    1  A    between atoms: C_1  and  C_2
REMARK    2  A    between atoms: C_2  and  N_3
REMARK    3  A    between atoms: N_3  and  C_4
REMARK    4  A    between atoms: N_6  and  C_7
REMARK    5  A    between atoms: C_7  and  C_8
REMARK    6  A    between atoms: C_8  and  C_9
REMARK    7  A    between atoms: C_9  and  O_10
REMARK    8  A    between atoms: O_10  and  C_11
REMARK    9  A    between atoms: C_18  and  S_20
REMARK   10  A    between atoms: S_20  and  N_21
REMARK                            x       y       z     vdW  Elec       q    Type
REMARK                         _______ _______ _______ _____ _____    ______ ____
ROOT
ATOM      1  C   UNL     1      -7.195   2.588 123.547  0.00  0.00    +0.000 C 
ATOM      2  C   UNL     1      -8.275   1.475 123.547  0.00  0.00    +0.000 C 
ATOM      3  N   UNL     1      -8.108   0.158 124.222  0.00  0.00    +0.000 NA
ATOM      4  S   UNL     1      -7.236   0.052 125.647  0.00  0.00    +0.000 S 
ATOM      5  O   UNL     1      -8.127   0.280 126.758  0.00  0.00    +0.000 OA
ATOM      6  O   UNL     1      -6.320  -1.067 125.572  0.00  0.00    +0.000 OA
ATOM      7  C   UNL     1      -6.233   1.466 125.586  0.00  0.00    +0.000 A 
ATOM      8  C   UNL     1      -6.246   2.524 124.706  0.00  0.00    +0.000 A 
ATOM      9  C   UNL     1      -5.262   3.485 125.097  0.00  0.00    +0.000 A 
ATOM     10  C   UNL     1      -4.551   3.060 126.205  0.00  0.00    +0.000 A 
ATOM     11  S   UNL     1      -5.082   1.562 126.797  0.00  0.00    +0.000 S 
ENDROOT
BRANCH  10  12
ATOM     12  S   UNL     1      -3.267   3.747 127.184  0.00  0.00    +0.000 S 
ATOM     13  O   UNL     1      -3.540   5.170 127.223  0.00  0.00    +0.000 OA
ATOM     14  O   UNL     1      -3.211   2.906 128.344  0.00  0.00    +0.000 OA
BRANCH  12  15
ATOM     15  N   UNL     1      -1.869   3.504 126.272  0.00  0.00    +0.000 NA
ATOM     16  H   UNL     1      -2.051   2.894 125.472  0.00  0.00    +0.000 HD
ATOM     17  H   UNL     1      -1.099   3.174 126.854  0.00  0.00    +0.000 HD
ENDBRANCH  12  15
ENDBRANCH  10  12
BRANCH   1  18
ATOM     18  N   UNL     1      -6.383   2.544 122.306  0.00  0.00    +0.000 NA
ATOM     19  H   UNL     1      -5.397   2.438 122.545  0.00  0.00    +0.000 HD
BRANCH  18  21
ATOM     20  C   UNL     1      -5.180   4.222 120.994  0.00  0.00    +0.000 C 
ATOM     21  C   UNL     1      -6.535   3.740 121.459  0.00  0.00    +0.000 C 
ENDBRANCH  18  21
ENDBRANCH   1  18
BRANCH   3  22
ATOM     22  C   UNL     1      -7.790  -0.945 123.308  0.00  0.00    +0.000 C 
BRANCH  22  23
ATOM     23  C   UNL     1      -9.003  -1.796 123.025  0.00  0.00    +0.000 C 
BRANCH  23  24
ATOM     24  C   UNL     1      -8.931  -2.972 123.937  0.00  0.00    +0.000 C 
BRANCH  24  25
ATOM     25  O   UNL     1      -9.774  -2.672 125.033  0.00  0.00    +0.000 OA
ATOM     26  C   UNL     1      -9.182  -3.169 126.215  0.00  0.00    +0.000 C 
ENDBRANCH  24  25
ENDBRANCH  23  24
ENDBRANCH  22  23
ENDBRANCH   3  22
TORSDOF 8
ENDMDL
MODEL 4
REMARK VINA RESULT:      -6.0      3.842      5.783
REMARK  Name = Brinzolamide
REMARK  10 active torsions:
REMARK  status: ('A' for Active; 'I' for Inactive)
REMARK    1  A    between atoms: C_1  and  C_2
REMARK    2  A    between atoms: C_2  and  N_3
REMARK    3  A    between atoms: N_3  and  C_4
REMARK    4  A    between atoms: N_6  and  C_7
REMARK    5  A    between atoms: C_7  and  C_8
REMARK    6  A    between atoms: C_8  and  C_9
REMARK    7  A    between atoms: C_9  and  O_10
REMARK    8  A    between atoms: O_10  and  C_11
REMARK    9  A    between atoms: C_18  and  S_20
REMARK   10  A    between atoms: S_20  and  N_21
REMARK                            x       y       z     vdW  Elec       q    Type
REMARK                         _______ _______ _______ _____ _____    ______ ____
ROOT
ATOM      1  C   UNL     1      -7.179   3.502 124.212  0.00  0.00    +0.000 C 
ATOM      2  C   UNL     1      -8.628   3.061 124.548  0.00  0.00    +0.000 C 
ATOM      3  N   UNL     1      -8.974   2.121 125.651  0.00  0.00    +0.000 NA
ATOM      4  S   UNL     1      -8.076   2.121 127.063  0.00  0.00    +0.000 S 
ATOM      5  O   UNL     1      -8.645   3.081 127.978  0.00  0.00    +0.000 OA
ATOM      6  O   UNL     1      -7.754   0.759 127.432  0.00  0.00    +0.000 OA
ATOM      7  C   UNL     1      -6.573   2.825 126.561  0.00  0.00    +0.000 A 
ATOM      8  C   UNL     1      -6.226   3.413 125.365  0.00  0.00    +0.000 A 
ATOM      9  C   UNL     1      -4.885   3.902 125.443  0.00  0.00    +0.000 A 
ATOM     10  C   UNL     1      -4.306   3.603 126.663  0.00  0.00    +0.000 A 
ATOM     11  S   UNL     1      -5.363   2.797 127.716  0.00  0.00    +0.000 S 
ENDROOT
BRANCH  10  12
ATOM     12  S   UNL     1      -2.748   3.927 127.402  0.00  0.00    +0.000 S 
ATOM     13  O   UNL     1      -2.687   5.369 127.540  0.00  0.00    +0.000 OA
ATOM     14  O   UNL     1      -2.674   3.009 128.501  0.00  0.00    +0.000 OA
BRANCH  12  15
ATOM     15  N   UNL     1      -1.625   3.462 126.232  0.00  0.00    +0.000 NA
ATOM     16  H   UNL     1      -0.733   3.947 126.362  0.00  0.00    +0.000 HD
ATOM     17  H   UNL     1      -2.002   3.575 125.290  0.00  0.00    +0.000 HD
ENDBRANCH  12  15
ENDBRANCH  10  12
BRANCH   1  18
ATOM     18  N   UNL     1      -6.618   2.686 123.108  0.00  0.00    +0.000 NA
ATOM     19  H   UNL     1      -5.667   2.400 123.342  0.00  0.00    +0.000 HD
BRANCH  18  21
ATOM     20  C   UNL     1      -5.312   4.181 121.678  0.00  0.00    +0.000 C 
ATOM     21  C   UNL     1      -6.590   3.386 121.812  0.00  0.00    +0.000 C 
ENDBRANCH  18  21
ENDBRANCH   1  18
BRANCH   3  22
ATOM     22  C   UNL     1      -9.274   0.758 125.199  0.00  0.00    +0.000 C 
BRANCH  22  23
ATOM     23  C   UNL     1      -9.562   0.716 123.718  0.00  0.00    +0.000 C 
BRANCH  23  24
ATOM     24  C   UNL     1      -8.831  -0.460 123.166  0.00  0.00    +0.000 C 
BRANCH  24  25
ATOM     25  O   UNL     1      -7.455  -0.144 123.251  0.00  0.00    +0.000 OA
ATOM     26  C   UNL     1      -6.701  -1.299 122.953  0.00  0.00    +0.000 C 
ENDBRANCH  24  25
ENDBRANCH  23  24
ENDBRANCH  22  23
ENDBRANCH   3  22
TORSDOF 8
ENDMDL
MODEL 5
REMARK VINA RESULT:      -5.7      8.356     10.000
REMARK  Name = Brinzolamide
REMARK  10 active torsions:
REMARK  status: ('A' for Active; 'I' for Inactive)
REMARK    1  A    between atoms: C_1  and  C_2
REMARK    2  A    between atoms: C_2  and  N_3
REMARK    3  A    between atoms: N_3  and  C_4
REMARK    4  A    between atoms: N_6  and  C_7
REMARK    5  A    between atoms: C_7  and  C_8
REMARK    6  A    between atoms: C_8  and  C_9
REMARK    7  A    between atoms: C_9  and  O_10
REMARK    8  A    between atoms: O_10  and  C_11
REMARK    9  A    between atoms: C_18  and  S_20
REMARK   10  A    between atoms: S_20  and  N_21
REMARK                            x       y       z     vdW  Elec       q    Type
REMARK                         _______ _______ _______ _____ _____    ______ ____
ROOT
ATOM      1  C   UNL     1      -8.646   5.355 133.548  0.00  0.00    +0.000 C 
ATOM      2  C   UNL     1      -7.103   5.276 133.403  0.00  0.00    +0.000 C 
ATOM      3  N   UNL     1      -6.397   5.191 132.095  0.00  0.00    +0.000 NA
ATOM      4  S   UNL     1      -7.017   5.981 130.756  0.00  0.00    +0.000 S 
ATOM      5  O   UNL     1      -6.492   7.324 130.722  0.00  0.00    +0.000 OA
ATOM      6  O   UNL     1      -7.003   5.087 129.617  0.00  0.00    +0.000 OA
ATOM      7  C   UNL     1      -8.692   6.170 131.166  0.00  0.00    +0.000 A 
ATOM      8  C   UNL     1      -9.348   5.916 132.350  0.00  0.00    +0.000 A 
ATOM      9  C   UNL     1     -10.724   6.285 132.223  0.00  0.00    +0.000 A 
ATOM     10  C   UNL     1     -11.012   6.737 130.948  0.00  0.00    +0.000 A 
ATOM     11  S   UNL     1      -9.653   6.768 129.934  0.00  0.00    +0.000 S 
ENDROOT
BRANCH  10  12
ATOM     12  S   UNL     1     -12.451   7.353 130.154  0.00  0.00    +0.000 S 
ATOM     13  O   UNL     1     -13.512   7.212 131.131  0.00  0.00    +0.000 OA
ATOM     14  O   UNL     1     -12.040   8.604 129.586  0.00  0.00    +0.000 OA
BRANCH  12  15
ATOM     15  N   UNL     1     -12.739   6.259 128.903  0.00  0.00    +0.000 NA
ATOM     16  H   UNL     1     -12.607   6.700 127.989  0.00  0.00    +0.000 HD
ATOM     17  H   UNL     1     -13.654   5.818 128.999  0.00  0.00    +0.000 HD
ENDBRANCH  12  15
ENDBRANCH  10  12
BRANCH   1  18
ATOM     18  N   UNL     1      -9.225   4.015 133.815  0.00  0.00    +0.000 NA
ATOM     19  H   UNL     1      -9.077   3.766 134.794  0.00  0.00    +0.000 HD
BRANCH  18  21
ATOM     20  C   UNL     1      -9.762   2.237 132.223  0.00  0.00    +0.000 C 
ATOM     21  C   UNL     1      -8.659   2.949 132.970  0.00  0.00    +0.000 C 
ENDBRANCH  18  21
ENDBRANCH   1  18
BRANCH   3  22
ATOM     22  C   UNL     1      -5.924   3.843 131.759  0.00  0.00    +0.000 C 
BRANCH  22  23
ATOM     23  C   UNL     1      -4.427   3.728 131.911  0.00  0.00    +0.000 C 
BRANCH  23  24
ATOM     24  C   UNL     1      -3.838   3.890 130.551  0.00  0.00    +0.000 C 
BRANCH  24  25
ATOM     25  O   UNL     1      -3.172   5.138 130.557  0.00  0.00    +0.000 OA
ATOM     26  C   UNL     1      -3.259   5.708 129.268  0.00  0.00    +0.000 C 
ENDBRANCH  24  25
ENDBRANCH  23  24
ENDBRANCH  22  23
ENDBRANCH   3  22
TORSDOF 8
ENDMDL
MODEL 6
REMARK VINA RESULT:      -5.7      3.671      5.818
REMARK  Name = Brinzolamide
REMARK  10 active torsions:
REMARK  status: ('A' for Active; 'I' for Inactive)
REMARK    1  A    between atoms: C_1  and  C_2
REMARK    2  A    between atoms: C_2  and  N_3
REMARK    3  A    between atoms: N_3  and  C_4
REMARK    4  A    between atoms: N_6  and  C_7
REMARK    5  A    between atoms: C_7  and  C_8
REMARK    6  A    between atoms: C_8  and  C_9
REMARK    7  A    between atoms: C_9  and  O_10
REMARK    8  A    between atoms: O_10  and  C_11
REMARK    9  A    between atoms: C_18  and  S_20
REMARK   10  A    between atoms: S_20  and  N_21
REMARK                            x       y       z     vdW  Elec       q    Type
REMARK                         _______ _______ _______ _____ _____    ______ ____
ROOT
ATOM      1  C   UNL     1      -6.722   1.182 127.271  0.00  0.00    +0.000 C 
ATOM      2  C   UNL     1      -6.567   2.704 127.533  0.00  0.00    +0.000 C 
ATOM      3  N   UNL     1      -6.505   3.728 126.454  0.00  0.00    +0.000 NA
ATOM      4  S   UNL     1      -7.390   3.519 125.049  0.00  0.00    +0.000 S 
ATOM      5  O   UNL     1      -8.703   4.087 125.234  0.00  0.00    +0.000 OA
ATOM      6  O   UNL     1      -6.551   3.800 123.903  0.00  0.00    +0.000 OA
ATOM      7  C   UNL     1      -7.649   1.804 125.013  0.00  0.00    +0.000 A 
ATOM      8  C   UNL     1      -7.376   0.847 125.965  0.00  0.00    +0.000 A 
ATOM      9  C   UNL     1      -7.824  -0.430 125.502  0.00  0.00    +0.000 A 
ATOM     10  C   UNL     1      -8.350  -0.350 124.225  0.00  0.00    +0.000 A 
ATOM     11  S   UNL     1      -8.355   1.230 123.609  0.00  0.00    +0.000 S 
ENDROOT
BRANCH  10  12
ATOM     12  S   UNL     1      -9.079  -1.500 123.118  0.00  0.00    +0.000 S 
ATOM     13  O   UNL     1     -10.183  -0.787 122.506  0.00  0.00    +0.000 OA
ATOM     14  O   UNL     1      -7.973  -2.048 122.389  0.00  0.00    +0.000 OA
BRANCH  12  15
ATOM     15  N   UNL     1      -9.716  -2.699 124.118  0.00  0.00    +0.000 NA
ATOM     16  H   UNL     1      -9.086  -2.904 124.897  0.00  0.00    +0.000 HD
ATOM     17  H   UNL     1      -9.969  -3.532 123.585  0.00  0.00    +0.000 HD
ENDBRANCH  12  15
ENDBRANCH  10  12
BRANCH   1  18
ATOM     18  N   UNL     1      -5.405   0.501 127.295  0.00  0.00    +0.000 NA
ATOM     19  H   UNL     1      -5.245   0.031 126.404  0.00  0.00    +0.000 HD
BRANCH  18  21
ATOM     20  C   UNL     1      -5.280  -1.889 127.804  0.00  0.00    +0.000 C 
ATOM     21  C   UNL     1      -5.274  -0.491 128.377  0.00  0.00    +0.000 C 
ENDBRANCH  18  21
ENDBRANCH   1  18
BRANCH   3  22
ATOM     22  C   UNL     1      -5.152   4.220 126.176  0.00  0.00    +0.000 C 
BRANCH  22  23
ATOM     23  C   UNL     1      -4.540   4.875 127.391  0.00  0.00    +0.000 C 
BRANCH  23  24
ATOM     24  C   UNL     1      -3.081   4.573 127.358  0.00  0.00    +0.000 C 
BRANCH  24  25
ATOM     25  O   UNL     1      -2.913   3.545 126.401  0.00  0.00    +0.000 OA
ATOM     26  C   UNL     1      -1.617   3.002 126.536  0.00  0.00    +0.000 C 
ENDBRANCH  24  25
ENDBRANCH  23  24
ENDBRANCH  22  23
ENDBRANCH   3  22
TORSDOF 8
ENDMDL
MODEL 7
REMARK VINA RESULT:      -5.7      2.839      4.658
REMARK  Name = Brinzolamide
REMARK  10 active torsions:
REMARK  status: ('A' for Active; 'I' for Inactive)
REMARK    1  A    between atoms: C_1  and  C_2
REMARK    2  A    between atoms: C_2  and  N_3
REMARK    3  A    between atoms: N_3  and  C_4
REMARK    4  A    between atoms: N_6  and  C_7
REMARK    5  A    between atoms: C_7  and  C_8
REMARK    6  A    between atoms: C_8  and  C_9
REMARK    7  A    between atoms: C_9  and  O_10
REMARK    8  A    between atoms: O_10  and  C_11
REMARK    9  A    between atoms: C_18  and  S_20
REMARK   10  A    between atoms: S_20  and  N_21
REMARK                            x       y       z     vdW  Elec       q    Type
REMARK                         _______ _______ _______ _____ _____    ______ ____
ROOT
ATOM      1  C   UNL     1      -5.821  -1.347 124.306  0.00  0.00    +0.000 C 
ATOM      2  C   UNL     1      -6.739  -1.073 123.086  0.00  0.00    +0.000 C 
ATOM      3  N   UNL     1      -7.986  -0.261 123.153  0.00  0.00    +0.000 NA
ATOM      4  S   UNL     1      -8.077   1.049 124.191  0.00  0.00    +0.000 S 
ATOM      5  O   UNL     1      -7.590   2.222 123.507  0.00  0.00    +0.000 OA
ATOM      6  O   UNL     1      -9.330   1.007 124.915  0.00  0.00    +0.000 OA
ATOM      7  C   UNL     1      -6.858   0.686 125.371  0.00  0.00    +0.000 A 
ATOM      8  C   UNL     1      -5.912  -0.314 125.388  0.00  0.00    +0.000 A 
ATOM      9  C   UNL     1      -5.085  -0.172 126.546  0.00  0.00    +0.000 A 
ATOM     10  C   UNL     1      -5.498   0.886 127.336  0.00  0.00    +0.000 A 
ATOM     11  S   UNL     1      -6.818   1.725 126.681  0.00  0.00    +0.000 S 
ENDROOT
BRANCH  10  12
ATOM     12  S   UNL     1      -4.926   1.606 128.831  0.00  0.00    +0.000 S 
ATOM     13  O   UNL     1      -3.927   2.576 128.426  0.00  0.00    +0.000 OA
ATOM     14  O   UNL     1      -6.121   1.933 129.552  0.00  0.00    +0.000 OA
BRANCH  12  15
ATOM     15  N   UNL     1      -4.140   0.345 129.629  0.00  0.00    +0.000 NA
ATOM     16  H   UNL     1      -4.509  -0.564 129.339  0.00  0.00    +0.000 HD
ATOM     17  H   UNL     1      -4.163   0.475 130.641  0.00  0.00    +0.000 HD
ENDBRANCH  12  15
ENDBRANCH  10  12
BRANCH   1  18
ATOM     18  N   UNL     1      -6.128  -2.662 124.920  0.00  0.00    +0.000 NA
ATOM     19  H   UNL     1      -5.569  -2.786 125.764  0.00  0.00    +0.000 HD
BRANCH  18  21
ATOM     20  C   UNL     1      -4.397  -4.045 123.884  0.00  0.00    +0.000 C 
ATOM     21  C   UNL     1      -5.882  -3.804 124.022  0.00  0.00    +0.000 C 
ENDBRANCH  18  21
ENDBRANCH   1  18
BRANCH   3  22
ATOM     22  C   UNL     1      -9.217  -1.058 123.176  0.00  0.00    +0.000 C 
BRANCH  22  23
ATOM     23  C   UNL     1      -8.944  -2.506 122.848  0.00  0.00    +0.000 C 
BRANCH  23  24
ATOM     24  C   UNL     1      -9.494  -3.316 123.972  0.00  0.00    +0.000 C 
BRANCH  24  25
ATOM     25  O   UNL     1      -9.483  -2.473 125.107  0.00  0.00    +0.000 OA
ATOM     26  C   UNL     1      -9.355  -3.269 126.267  0.00  0.00    +0.000 C 
ENDBRANCH  24  25
ENDBRANCH  23  24
ENDBRANCH  22  23
ENDBRANCH   3  22
TORSDOF 8
ENDMDL
MODEL 8
REMARK VINA RESULT:      -5.6      2.274      3.207
REMARK  Name = Brinzolamide
REMARK  10 active torsions:
REMARK  status: ('A' for Active; 'I' for Inactive)
REMARK    1  A    between atoms: C_1  and  C_2
REMARK    2  A    between atoms: C_2  and  N_3
REMARK    3  A    between atoms: N_3  and  C_4
REMARK    4  A    between atoms: N_6  and  C_7
REMARK    5  A    between atoms: C_7  and  C_8
REMARK    6  A    between atoms: C_8  and  C_9
REMARK    7  A    between atoms: C_9  and  O_10
REMARK    8  A    between atoms: O_10  and  C_11
REMARK    9  A    between atoms: C_18  and  S_20
REMARK   10  A    between atoms: S_20  and  N_21
REMARK                            x       y       z     vdW  Elec       q    Type
REMARK                         _______ _______ _______ _____ _____    ______ ____
ROOT
ATOM      1  C   UNL     1      -5.942  -0.709 127.116  0.00  0.00    +0.000 C 
ATOM      2  C   UNL     1      -6.317  -2.199 126.901  0.00  0.00    +0.000 C 
ATOM      3  N   UNL     1      -7.628  -2.654 126.360  0.00  0.00    +0.000 NA
ATOM      4  S   UNL     1      -8.424  -1.734 125.210  0.00  0.00    +0.000 S 
ATOM      5  O   UNL     1      -7.974  -2.135 123.899  0.00  0.00    +0.000 OA
ATOM      6  O   UNL     1      -9.820  -1.607 125.573  0.00  0.00    +0.000 OA
ATOM      7  C   UNL     1      -7.747  -0.155 125.448  0.00  0.00    +0.000 A 
ATOM      8  C   UNL     1      -6.694   0.247 126.240  0.00  0.00    +0.000 A 
ATOM      9  C   UNL     1      -6.468   1.647 126.061  0.00  0.00    +0.000 A 
ATOM     10  C   UNL     1      -7.390   2.203 125.193  0.00  0.00    +0.000 A 
ATOM     11  S   UNL     1      -8.478   1.063 124.565  0.00  0.00    +0.000 S 
ENDROOT
BRANCH  10  12
ATOM     12  S   UNL     1      -7.654   3.808 124.536  0.00  0.00    +0.000 S 
ATOM     13  O   UNL     1      -8.695   4.389 125.362  0.00  0.00    +0.000 OA
ATOM     14  O   UNL     1      -6.339   4.360 124.394  0.00  0.00    +0.000 OA
BRANCH  12  15
ATOM     15  N   UNL     1      -8.295   3.533 123.000  0.00  0.00    +0.000 NA
ATOM     16  H   UNL     1      -8.654   4.398 122.589  0.00  0.00    +0.000 HD
ATOM     17  H   UNL     1      -8.989   2.785 123.016  0.00  0.00    +0.000 HD
ENDBRANCH  12  15
ENDBRANCH  10  12
BRANCH   1  18
ATOM     18  N   UNL     1      -6.174  -0.299 128.523  0.00  0.00    +0.000 NA
ATOM     19  H   UNL     1      -6.711   0.569 128.543  0.00  0.00    +0.000 HD
BRANCH  18  21
ATOM     20  C   UNL     1      -4.574   1.368 129.328  0.00  0.00    +0.000 C 
ATOM     21  C   UNL     1      -4.933  -0.099 129.291  0.00  0.00    +0.000 C 
ENDBRANCH  18  21
ENDBRANCH   1  18
BRANCH   3  22
ATOM     22  C   UNL     1      -8.551  -3.162 127.382  0.00  0.00    +0.000 C 
BRANCH  22  23
ATOM     23  C   UNL     1      -7.807  -3.707 128.577  0.00  0.00    +0.000 C 
BRANCH  23  24
ATOM     24  C   UNL     1      -8.298  -2.963 129.771  0.00  0.00    +0.000 C 
BRANCH  24  25
ATOM     25  O   UNL     1      -7.145  -2.530 130.466  0.00  0.00    +0.000 OA
ATOM     26  C   UNL     1      -6.190  -3.570 130.461  0.00  0.00    +0.000 C 
ENDBRANCH  24  25
ENDBRANCH  23  24
ENDBRANCH  22  23
ENDBRANCH   3  22
TORSDOF 8
ENDMDL
MODEL 9
REMARK VINA RESULT:      -5.6      3.933      6.119
REMARK  Name = Brinzolamide
REMARK  10 active torsions:
REMARK  status: ('A' for Active; 'I' for Inactive)
REMARK    1  A    between atoms: C_1  and  C_2
REMARK    2  A    between atoms: C_2  and  N_3
REMARK    3  A    between atoms: N_3  and  C_4
REMARK    4  A    between atoms: N_6  and  C_7
REMARK    5  A    between atoms: C_7  and  C_8
REMARK    6  A    between atoms: C_8  and  C_9
REMARK    7  A    between atoms: C_9  and  O_10
REMARK    8  A    between atoms: O_10  and  C_11
REMARK    9  A    between atoms: C_18  and  S_20
REMARK   10  A    between atoms: S_20  and  N_21
REMARK                            x       y       z     vdW  Elec       q    Type
REMARK                         _______ _______ _______ _____ _____    ______ ____
ROOT
ATOM      1  C   UNL     1      -6.875   1.262 127.316  0.00  0.00    +0.000 C 
ATOM      2  C   UNL     1      -6.740   2.783 127.588  0.00  0.00    +0.000 C 
ATOM      3  N   UNL     1      -6.659   3.812 126.515  0.00  0.00    +0.000 NA
ATOM      4  S   UNL     1      -7.505   3.600 125.086  0.00  0.00    +0.000 S 
ATOM      5  O   UNL     1      -8.827   4.157 125.239  0.00  0.00    +0.000 OA
ATOM      6  O   UNL     1      -6.639   3.893 123.963  0.00  0.00    +0.000 OA
ATOM      7  C   UNL     1      -7.748   1.884 125.037  0.00  0.00    +0.000 A 
ATOM      8  C   UNL     1      -7.492   0.926 125.993  0.00  0.00    +0.000 A 
ATOM      9  C   UNL     1      -7.916  -0.353 125.514  0.00  0.00    +0.000 A 
ATOM     10  C   UNL     1      -8.411  -0.273 124.225  0.00  0.00    +0.000 A 
ATOM     11  S   UNL     1      -8.413   1.309 123.614  0.00  0.00    +0.000 S 
ENDROOT
BRANCH  10  12
ATOM     12  S   UNL     1      -9.101  -1.425 123.095  0.00  0.00    +0.000 S 
ATOM     13  O   UNL     1     -10.193  -0.718 122.454  0.00  0.00    +0.000 OA
ATOM     14  O   UNL     1      -7.971  -1.963 122.395  0.00  0.00    +0.000 OA
BRANCH  12  15
ATOM     15  N   UNL     1      -9.757  -2.631 124.074  0.00  0.00    +0.000 NA
ATOM     16  H   UNL     1      -9.125  -2.868 124.843  0.00  0.00    +0.000 HD
ATOM     17  H   UNL     1     -10.034  -3.445 123.525  0.00  0.00    +0.000 HD
ENDBRANCH  12  15
ENDBRANCH  10  12
BRANCH   1  18
ATOM     18  N   UNL     1      -5.552   0.591 127.372  0.00  0.00    +0.000 NA
ATOM     19  H   UNL     1      -5.343   0.169 126.467  0.00  0.00    +0.000 HD
BRANCH  18  21
ATOM     20  C   UNL     1      -5.353  -1.816 127.764  0.00  0.00    +0.000 C 
ATOM     21  C   UNL     1      -5.464  -0.453 128.408  0.00  0.00    +0.000 C 
ENDBRANCH  18  21
ENDBRANCH   1  18
BRANCH   3  22
ATOM     22  C   UNL     1      -5.302   4.317 126.273  0.00  0.00    +0.000 C 
BRANCH  22  23
ATOM     23  C   UNL     1      -4.443   4.209 127.509  0.00  0.00    +0.000 C 
BRANCH  23  24
ATOM     24  C   UNL     1      -3.601   5.437 127.561  0.00  0.00    +0.000 C 
BRANCH  24  25
ATOM     25  O   UNL     1      -4.410   6.444 128.138  0.00  0.00    +0.000 OA
ATOM     26  C   UNL     1      -3.586   7.335 128.860  0.00  0.00    +0.000 C 
ENDBRANCH  24  25
ENDBRANCH  23  24
ENDBRANCH  22  23
ENDBRANCH   3  22
TORSDOF 8
ENDMDL
