MODEL 1
REMARK VINA RESULT:      -6.3      0.000      0.000
REMARK  Name = Brincidofovir
REMARK  29 active torsions:
REMARK  status: ('A' for Active; 'I' for Inactive)
REMARK    1  A    between atoms: C_1  and  C_2
REMARK    2  A    between atoms: C_2  and  C_3
REMARK    3  A    between atoms: C_3  and  C_4
REMARK    4  A    between atoms: C_4  and  C_5
REMARK    5  A    between atoms: C_5  and  C_6
REMARK    6  A    between atoms: C_6  and  C_7
REMARK    7  A    between atoms: C_7  and  C_8
REMARK    8  A    between atoms: C_8  and  C_9
REMARK    9  A    between atoms: C_9  and  C_10
REMARK   10  A    between atoms: C_10  and  C_11
REMARK   11  A    between atoms: C_11  and  C_12
REMARK   12  A    between atoms: C_12  and  C_13
REMARK   13  A    between atoms: C_13  and  C_14
REMARK   14  A    between atoms: C_14  and  C_15
REMARK   15  A    between atoms: C_15  and  C_16
REMARK   16  A    between atoms: C_16  and  O_17
REMARK   17  A    between atoms: O_17  and  C_18
REMARK   18  A    between atoms: C_18  and  C_19
REMARK   19  A    between atoms: C_19  and  C_20
REMARK   20  A    between atoms: C_20  and  O_21
REMARK   21  A    between atoms: O_21  and  P_22
REMARK   22  A    between atoms: P_22  and  O_23
REMARK   23  A    between atoms: P_22  and  C_25
REMARK   24  A    between atoms: C_25  and  O_26
REMARK   25  A    between atoms: O_26  and  C_27
REMARK   26  A    between atoms: C_27  and  C_28
REMARK   27  A    between atoms: C_27  and  C_30
REMARK   28  A    between atoms: C_28  and  O_29
REMARK   29  A    between atoms: C_30  and  N_31
REMARK                            x       y       z     vdW  Elec       q    Type
REMARK                         _______ _______ _______ _____ _____    ______ ____
ROOT
ATOM      1  O   UNL     1      -7.979   1.164 133.342  0.00  0.00    +0.000 OA
ENDROOT
BRANCH   1   2
ATOM      2  P   UNL     1      -8.895   2.169 132.274  0.00  0.00    +0.000 P 
ATOM      3  O   UNL     1      -9.428   3.001 133.440  0.00  0.00    +0.000 OA
BRANCH   2   4
ATOM      4  O   UNL     1      -9.864   0.891 131.917  0.00  0.00    +0.000 OA
ATOM      5  H   UNL     1      -9.446   0.028 132.073  0.00  0.00    +0.000 HD
ENDBRANCH   2   4
BRANCH   2   6
ATOM      6  C   UNL     1      -9.865   3.233 131.143  0.00  0.00    +0.000 C 
BRANCH   6   7
ATOM      7  O   UNL     1      -9.061   4.238 130.554  0.00  0.00    +0.000 OA
BRANCH   7   8
ATOM      8  C   UNL     1      -9.648   5.549 130.617  0.00  0.00    +0.000 C 
BRANCH   8   9
ATOM      9  C   UNL     1     -11.167   5.500 130.407  0.00  0.00    +0.000 C 
BRANCH   9  10
ATOM     10  N   UNL     1     -11.743   6.823 129.986  0.00  0.00    +0.000 N 
ATOM     11  C   UNL     1     -11.451   7.259 128.710  0.00  0.00    +0.000 A 
ATOM     12  C   UNL     1     -12.142   8.266 128.179  0.00  0.00    +0.000 A 
ATOM     13  C   UNL     1     -12.831   9.140 129.141  0.00  0.00    +0.000 A 
ATOM     14  N   UNL     1     -13.308  10.350 128.760  0.00  0.00    +0.000 N 
ATOM     15  N   UNL     1     -12.992   8.832 130.382  0.00  0.00    +0.000 NA
ATOM     16  C   UNL     1     -12.645   7.582 130.794  0.00  0.00    +0.000 A 
ATOM     17  O   UNL     1     -13.151   7.173 131.841  0.00  0.00    +0.000 OA
ATOM     18  H   UNL     1     -13.266  10.692 127.816  0.00  0.00    +0.000 HD
ATOM     19  H   UNL     1     -13.690  10.941 129.491  0.00  0.00    +0.000 HD
ENDBRANCH   9  10
ENDBRANCH   8   9
BRANCH   8  20
ATOM     20  C   UNL     1      -9.127   6.207 131.897  0.00  0.00    +0.000 C 
BRANCH  20  21
ATOM     21  O   UNL     1     -10.138   6.159 132.909  0.00  0.00    +0.000 OA
ATOM     22  H   UNL     1     -10.560   7.053 132.873  0.00  0.00    +0.000 HD
ENDBRANCH  20  21
ENDBRANCH   8  20
ENDBRANCH   7   8
ENDBRANCH   6   7
ENDBRANCH   2   6
ENDBRANCH   1   2
BRANCH   1  23
ATOM     23  C   UNL     1      -6.594   1.084 132.961  0.00  0.00    +0.000 C 
BRANCH  23  24
ATOM     24  C   UNL     1      -6.268  -0.238 132.328  0.00  0.00    +0.000 C 
BRANCH  24  25
ATOM     25  C   UNL     1      -7.065  -1.302 133.056  0.00  0.00    +0.000 C 
BRANCH  25  26
ATOM     26  O   UNL     1      -7.268  -2.399 132.181  0.00  0.00    +0.000 OA
BRANCH  26  27
ATOM     27  C   UNL     1      -7.129  -1.964 130.836  0.00  0.00    +0.000 C 
BRANCH  27  28
ATOM     28  C   UNL     1      -6.851  -3.172 129.971  0.00  0.00    +0.000 C 
BRANCH  28  29
ATOM     29  C   UNL     1      -8.119  -3.578 129.244  0.00  0.00    +0.000 C 
BRANCH  29  30
ATOM     30  C   UNL     1      -8.281  -2.764 127.976  0.00  0.00    +0.000 C 
BRANCH  30  31
ATOM     31  C   UNL     1      -8.783  -3.652 126.851  0.00  0.00    +0.000 C 
BRANCH  31  32
ATOM     32  C   UNL     1      -9.506  -2.813 125.815  0.00  0.00    +0.000 C 
BRANCH  32  33
ATOM     33  C   UNL     1      -8.873  -3.016 124.452  0.00  0.00    +0.000 C 
BRANCH  33  34
ATOM     34  C   UNL     1      -7.698  -3.969 124.567  0.00  0.00    +0.000 C 
BRANCH  34  35
ATOM     35  C   UNL     1      -6.397  -3.204 124.410  0.00  0.00    +0.000 C 
BRANCH  35  36
ATOM     36  C   UNL     1      -6.621  -1.977 123.547  0.00  0.00    +0.000 C 
BRANCH  36  37
ATOM     37  C   UNL     1      -6.438  -0.721 124.377  0.00  0.00    +0.000 C 
BRANCH  37  38
ATOM     38  C   UNL     1      -5.633  -1.037 125.625  0.00  0.00    +0.000 C 
BRANCH  38  39
ATOM     39  C   UNL     1      -5.447   0.221 126.455  0.00  0.00    +0.000 C 
BRANCH  39  40
ATOM     40  C   UNL     1      -5.565  -0.108 127.935  0.00  0.00    +0.000 C 
BRANCH  40  42
ATOM     41  C   UNL     1      -7.796   0.809 128.562  0.00  0.00    +0.000 C 
ATOM     42  C   UNL     1      -6.297   1.004 128.670  0.00  0.00    +0.000 C 
ENDBRANCH  40  42
ENDBRANCH  39  40
ENDBRANCH  38  39
ENDBRANCH  37  38
ENDBRANCH  36  37
ENDBRANCH  35  36
ENDBRANCH  34  35
ENDBRANCH  33  34
ENDBRANCH  32  33
ENDBRANCH  31  32
ENDBRANCH  30  31
ENDBRANCH  29  30
ENDBRANCH  28  29
ENDBRANCH  27  28
ENDBRANCH  26  27
ENDBRANCH  25  26
ENDBRANCH  24  25
ENDBRANCH  23  24
ENDBRANCH   1  23
TORSDOF 28
ENDMDL
MODEL 2
REMARK VINA RESULT:      -6.2      1.821      3.697
REMARK  Name = Brincidofovir
REMARK  29 active torsions:
REMARK  status: ('A' for Active; 'I' for Inactive)
REMARK    1  A    between atoms: C_1  and  C_2
REMARK    2  A    between atoms: C_2  and  C_3
REMARK    3  A    between atoms: C_3  and  C_4
REMARK    4  A    between atoms: C_4  and  C_5
REMARK    5  A    between atoms: C_5  and  C_6
REMARK    6  A    between atoms: C_6  and  C_7
REMARK    7  A    between atoms: C_7  and  C_8
REMARK    8  A    between atoms: C_8  and  C_9
REMARK    9  A    between atoms: C_9  and  C_10
REMARK   10  A    between atoms: C_10  and  C_11
REMARK   11  A    between atoms: C_11  and  C_12
REMARK   12  A    between atoms: C_12  and  C_13
REMARK   13  A    between atoms: C_13  and  C_14
REMARK   14  A    between atoms: C_14  and  C_15
REMARK   15  A    between atoms: C_15  and  C_16
REMARK   16  A    between atoms: C_16  and  O_17
REMARK   17  A    between atoms: O_17  and  C_18
REMARK   18  A    between atoms: C_18  and  C_19
REMARK   19  A    between atoms: C_19  and  C_20
REMARK   20  A    between atoms: C_20  and  O_21
REMARK   21  A    between atoms: O_21  and  P_22
REMARK   22  A    between atoms: P_22  and  O_23
REMARK   23  A    between atoms: P_22  and  C_25
REMARK   24  A    between atoms: C_25  and  O_26
REMARK   25  A    between atoms: O_26  and  C_27
REMARK   26  A    between atoms: C_27  and  C_28
REMARK   27  A    between atoms: C_27  and  C_30
REMARK   28  A    between atoms: C_28  and  O_29
REMARK   29  A    between atoms: C_30  and  N_31
REMARK                            x       y       z     vdW  Elec       q    Type
REMARK                         _______ _______ _______ _____ _____    ______ ____
ROOT
ATOM      1  O   UNL     1      -7.086   0.806 130.778  0.00  0.00    +0.000 OA
ENDROOT
BRANCH   1   2
ATOM      2  P   UNL     1      -7.996   2.248 131.070  0.00  0.00    +0.000 P 
ATOM      3  O   UNL     1      -9.268   1.445 131.336  0.00  0.00    +0.000 OA
BRANCH   2   4
ATOM      4  O   UNL     1      -7.831   2.660 129.488  0.00  0.00    +0.000 OA
ATOM      5  H   UNL     1      -6.907   2.777 129.208  0.00  0.00    +0.000 HD
ENDBRANCH   2   4
BRANCH   2   6
ATOM      6  C   UNL     1      -8.958   3.774 131.377  0.00  0.00    +0.000 C 
BRANCH   6   7
ATOM      7  O   UNL     1     -10.022   3.915 130.453  0.00  0.00    +0.000 OA
BRANCH   7   8
ATOM      8  C   UNL     1     -10.400   5.283 130.223  0.00  0.00    +0.000 C 
BRANCH   8   9
ATOM      9  C   UNL     1     -11.922   5.435 130.103  0.00  0.00    +0.000 C 
BRANCH   9  10
ATOM     10  N   UNL     1     -12.343   6.830 129.729  0.00  0.00    +0.000 N 
ATOM     11  C   UNL     1     -12.747   7.661 130.753  0.00  0.00    +0.000 A 
ATOM     12  C   UNL     1     -12.863   8.970 130.538  0.00  0.00    +0.000 A 
ATOM     13  C   UNL     1     -13.011   9.372 129.129  0.00  0.00    +0.000 A 
ATOM     14  N   UNL     1     -13.433  10.617 128.805  0.00  0.00    +0.000 N 
ATOM     15  N   UNL     1     -12.785   8.574 128.143  0.00  0.00    +0.000 NA
ATOM     16  C   UNL     1     -12.243   7.353 128.402  0.00  0.00    +0.000 A 
ATOM     17  O   UNL     1     -11.679   6.778 127.469  0.00  0.00    +0.000 OA
ATOM     18  H   UNL     1     -13.617  11.336 129.482  0.00  0.00    +0.000 HD
ATOM     19  H   UNL     1     -13.601  10.801 127.821  0.00  0.00    +0.000 HD
ENDBRANCH   9  10
ENDBRANCH   8   9
BRANCH   8  20
ATOM     20  C   UNL     1      -9.681   6.126 131.278  0.00  0.00    +0.000 C 
BRANCH  20  21
ATOM     21  O   UNL     1      -9.029   7.232 130.647  0.00  0.00    +0.000 OA
ATOM     22  H   UNL     1      -8.288   6.820 130.137  0.00  0.00    +0.000 HD
ENDBRANCH  20  21
ENDBRANCH   8  20
ENDBRANCH   7   8
ENDBRANCH   6   7
ENDBRANCH   2   6
ENDBRANCH   1   2
BRANCH   1  23
ATOM     23  C   UNL     1      -5.696   0.961 131.118  0.00  0.00    +0.000 C 
BRANCH  23  24
ATOM     24  C   UNL     1      -4.798   0.515 130.000  0.00  0.00    +0.000 C 
BRANCH  24  25
ATOM     25  C   UNL     1      -4.182   1.757 129.387  0.00  0.00    +0.000 C 
BRANCH  25  26
ATOM     26  O   UNL     1      -5.094   2.303 128.449  0.00  0.00    +0.000 OA
BRANCH  26  27
ATOM     27  C   UNL     1      -4.909   1.677 127.187  0.00  0.00    +0.000 C 
BRANCH  27  28
ATOM     28  C   UNL     1      -6.261   1.514 126.534  0.00  0.00    +0.000 C 
BRANCH  28  29
ATOM     29  C   UNL     1      -6.820   0.141 126.860  0.00  0.00    +0.000 C 
BRANCH  29  30
ATOM     30  C   UNL     1      -5.714  -0.895 126.841  0.00  0.00    +0.000 C 
BRANCH  30  31
ATOM     31  C   UNL     1      -6.266  -2.247 127.257  0.00  0.00    +0.000 C 
BRANCH  31  32
ATOM     32  C   UNL     1      -7.313  -2.067 128.339  0.00  0.00    +0.000 C 
BRANCH  32  33
ATOM     33  C   UNL     1      -8.410  -3.102 128.174  0.00  0.00    +0.000 C 
BRANCH  33  34
ATOM     34  C   UNL     1      -8.465  -3.567 126.732  0.00  0.00    +0.000 C 
BRANCH  34  35
ATOM     35  C   UNL     1      -9.639  -2.915 126.025  0.00  0.00    +0.000 C 
BRANCH  35  36
ATOM     36  C   UNL     1      -9.136  -2.013 124.914  0.00  0.00    +0.000 C 
BRANCH  36  37
ATOM     37  C   UNL     1      -8.966  -2.813 123.637  0.00  0.00    +0.000 C 
BRANCH  37  38
ATOM     38  C   UNL     1      -8.002  -2.101 122.704  0.00  0.00    +0.000 C 
BRANCH  38  39
ATOM     39  C   UNL     1      -6.640  -1.975 123.363  0.00  0.00    +0.000 C 
BRANCH  39  40
ATOM     40  C   UNL     1      -6.123  -3.349 123.759  0.00  0.00    +0.000 C 
BRANCH  40  42
ATOM     41  C   UNL     1      -4.111  -4.788 123.449  0.00  0.00    +0.000 C 
ATOM     42  C   UNL     1      -4.603  -3.379 123.711  0.00  0.00    +0.000 C 
ENDBRANCH  40  42
ENDBRANCH  39  40
ENDBRANCH  38  39
ENDBRANCH  37  38
ENDBRANCH  36  37
ENDBRANCH  35  36
ENDBRANCH  34  35
ENDBRANCH  33  34
ENDBRANCH  32  33
ENDBRANCH  31  32
ENDBRANCH  30  31
ENDBRANCH  29  30
ENDBRANCH  28  29
ENDBRANCH  27  28
ENDBRANCH  26  27
ENDBRANCH  25  26
ENDBRANCH  24  25
ENDBRANCH  23  24
ENDBRANCH   1  23
TORSDOF 28
ENDMDL
MODEL 3
REMARK VINA RESULT:      -6.2      2.990      5.764
REMARK  Name = Brincidofovir
REMARK  29 active torsions:
REMARK  status: ('A' for Active; 'I' for Inactive)
REMARK    1  A    between atoms: C_1  and  C_2
REMARK    2  A    between atoms: C_2  and  C_3
REMARK    3  A    between atoms: C_3  and  C_4
REMARK    4  A    between atoms: C_4  and  C_5
REMARK    5  A    between atoms: C_5  and  C_6
REMARK    6  A    between atoms: C_6  and  C_7
REMARK    7  A    between atoms: C_7  and  C_8
REMARK    8  A    between atoms: C_8  and  C_9
REMARK    9  A    between atoms: C_9  and  C_10
REMARK   10  A    between atoms: C_10  and  C_11
REMARK   11  A    between atoms: C_11  and  C_12
REMARK   12  A    between atoms: C_12  and  C_13
REMARK   13  A    between atoms: C_13  and  C_14
REMARK   14  A    between atoms: C_14  and  C_15
REMARK   15  A    between atoms: C_15  and  C_16
REMARK   16  A    between atoms: C_16  and  O_17
REMARK   17  A    between atoms: O_17  and  C_18
REMARK   18  A    between atoms: C_18  and  C_19
REMARK   19  A    between atoms: C_19  and  C_20
REMARK   20  A    between atoms: C_20  and  O_21
REMARK   21  A    between atoms: O_21  and  P_22
REMARK   22  A    between atoms: P_22  and  O_23
REMARK   23  A    between atoms: P_22  and  C_25
REMARK   24  A    between atoms: C_25  and  O_26
REMARK   25  A    between atoms: O_26  and  C_27
REMARK   26  A    between atoms: C_27  and  C_28
REMARK   27  A    between atoms: C_27  and  C_30
REMARK   28  A    between atoms: C_28  and  O_29
REMARK   29  A    between atoms: C_30  and  N_31
REMARK                            x       y       z     vdW  Elec       q    Type
REMARK                         _______ _______ _______ _____ _____    ______ ____
ROOT
ATOM      1  O   UNL     1      -7.381   4.913 127.001  0.00  0.00    +0.000 OA
ENDROOT
BRANCH   1   2
ATOM      2  P   UNL     1      -7.696   4.139 128.516  0.00  0.00    +0.000 P 
ATOM      3  O   UNL     1      -9.143   4.630 128.518  0.00  0.00    +0.000 OA
BRANCH   2   4
ATOM      4  O   UNL     1      -6.673   5.191 129.255  0.00  0.00    +0.000 OA
ATOM      5  H   UNL     1      -6.910   6.124 129.125  0.00  0.00    +0.000 HD
ENDBRANCH   2   4
BRANCH   2   6
ATOM      6  C   UNL     1      -8.028   3.321 130.120  0.00  0.00    +0.000 C 
BRANCH   6   7
ATOM      7  O   UNL     1      -9.100   3.938 130.808  0.00  0.00    +0.000 OA
BRANCH   7   8
ATOM      8  C   UNL     1      -8.732   4.443 132.103  0.00  0.00    +0.000 C 
BRANCH   8   9
ATOM      9  C   UNL     1      -9.560   5.677 132.485  0.00  0.00    +0.000 C 
BRANCH   9  10
ATOM     10  N   UNL     1     -10.003   6.477 131.291  0.00  0.00    +0.000 N 
ATOM     11  C   UNL     1     -11.361   6.579 131.071  0.00  0.00    +0.000 A 
ATOM     12  C   UNL     1     -11.828   7.485 130.214  0.00  0.00    +0.000 A 
ATOM     13  C   UNL     1     -10.858   7.982 129.225  0.00  0.00    +0.000 A 
ATOM     14  N   UNL     1     -11.273   8.663 128.130  0.00  0.00    +0.000 N 
ATOM     15  N   UNL     1      -9.590   7.776 129.318  0.00  0.00    +0.000 NA
ATOM     16  C   UNL     1      -9.103   7.207 130.455  0.00  0.00    +0.000 A 
ATOM     17  O   UNL     1      -7.906   7.374 130.701  0.00  0.00    +0.000 OA
ATOM     18  H   UNL     1     -12.233   8.907 127.957  0.00  0.00    +0.000 HD
ATOM     19  H   UNL     1     -10.565   8.898 127.442  0.00  0.00    +0.000 HD
ENDBRANCH   9  10
ENDBRANCH   8   9
BRANCH   8  20
ATOM     20  C   UNL     1      -8.745   3.251 133.064  0.00  0.00    +0.000 C 
BRANCH  20  21
ATOM     21  O   UNL     1     -10.004   2.577 132.976  0.00  0.00    +0.000 OA
ATOM     22  H   UNL     1     -10.488   2.859 133.792  0.00  0.00    +0.000 HD
ENDBRANCH  20  21
ENDBRANCH   8  20
ENDBRANCH   7   8
ENDBRANCH   6   7
ENDBRANCH   2   6
ENDBRANCH   1   2
BRANCH   1  23
ATOM     23  C   UNL     1      -6.460   4.164 126.189  0.00  0.00    +0.000 C 
BRANCH  23  24
ATOM     24  C   UNL     1      -6.030   4.941 124.977  0.00  0.00    +0.000 C 
BRANCH  24  25
ATOM     25  C   UNL     1      -5.489   3.948 123.968  0.00  0.00    +0.000 C 
BRANCH  25  26
ATOM     26  O   UNL     1      -5.960   4.306 122.679  0.00  0.00    +0.000 OA
BRANCH  26  27
ATOM     27  C   UNL     1      -6.379   3.139 121.986  0.00  0.00    +0.000 C 
BRANCH  27  28
ATOM     28  C   UNL     1      -7.256   2.326 122.909  0.00  0.00    +0.000 C 
BRANCH  28  29
ATOM     29  C   UNL     1      -8.703   2.751 122.740  0.00  0.00    +0.000 C 
BRANCH  29  30
ATOM     30  C   UNL     1      -9.624   1.765 123.430  0.00  0.00    +0.000 C 
BRANCH  30  31
ATOM     31  C   UNL     1      -8.806   0.743 124.199  0.00  0.00    +0.000 C 
BRANCH  31  32
ATOM     32  C   UNL     1      -9.449   0.476 125.547  0.00  0.00    +0.000 C 
BRANCH  32  33
ATOM     33  C   UNL     1      -8.534   0.953 126.659  0.00  0.00    +0.000 C 
BRANCH  33  34
ATOM     34  C   UNL     1      -7.192   0.255 126.556  0.00  0.00    +0.000 C 
BRANCH  34  35
ATOM     35  C   UNL     1      -6.757  -0.232 127.925  0.00  0.00    +0.000 C 
BRANCH  35  36
ATOM     36  C   UNL     1      -7.760  -1.238 128.457  0.00  0.00    +0.000 C 
BRANCH  36  37
ATOM     37  C   UNL     1      -7.513  -2.596 127.828  0.00  0.00    +0.000 C 
BRANCH  37  38
ATOM     38  C   UNL     1      -8.759  -3.064 127.100  0.00  0.00    +0.000 C 
BRANCH  38  39
ATOM     39  C   UNL     1      -8.372  -3.826 125.845  0.00  0.00    +0.000 C 
BRANCH  39  40
ATOM     40  C   UNL     1      -8.013  -2.852 124.734  0.00  0.00    +0.000 C 
BRANCH  40  42
ATOM     41  C   UNL     1      -8.488  -2.241 122.364  0.00  0.00    +0.000 C 
ATOM     42  C   UNL     1      -9.013  -2.956 123.592  0.00  0.00    +0.000 C 
ENDBRANCH  40  42
ENDBRANCH  39  40
ENDBRANCH  38  39
ENDBRANCH  37  38
ENDBRANCH  36  37
ENDBRANCH  35  36
ENDBRANCH  34  35
ENDBRANCH  33  34
ENDBRANCH  32  33
ENDBRANCH  31  32
ENDBRANCH  30  31
ENDBRANCH  29  30
ENDBRANCH  28  29
ENDBRANCH  27  28
ENDBRANCH  26  27
ENDBRANCH  25  26
ENDBRANCH  24  25
ENDBRANCH  23  24
ENDBRANCH   1  23
TORSDOF 28
ENDMDL
MODEL 4
REMARK VINA RESULT:      -6.2      1.609      2.478
REMARK  Name = Brincidofovir
REMARK  29 active torsions:
REMARK  status: ('A' for Active; 'I' for Inactive)
REMARK    1  A    between atoms: C_1  and  C_2
REMARK    2  A    between atoms: C_2  and  C_3
REMARK    3  A    between atoms: C_3  and  C_4
REMARK    4  A    between atoms: C_4  and  C_5
REMARK    5  A    between atoms: C_5  and  C_6
REMARK    6  A    between atoms: C_6  and  C_7
REMARK    7  A    between atoms: C_7  and  C_8
REMARK    8  A    between atoms: C_8  and  C_9
REMARK    9  A    between atoms: C_9  and  C_10
REMARK   10  A    between atoms: C_10  and  C_11
REMARK   11  A    between atoms: C_11  and  C_12
REMARK   12  A    between atoms: C_12  and  C_13
REMARK   13  A    between atoms: C_13  and  C_14
REMARK   14  A    between atoms: C_14  and  C_15
REMARK   15  A    between atoms: C_15  and  C_16
REMARK   16  A    between atoms: C_16  and  O_17
REMARK   17  A    between atoms: O_17  and  C_18
REMARK   18  A    between atoms: C_18  and  C_19
REMARK   19  A    between atoms: C_19  and  C_20
REMARK   20  A    between atoms: C_20  and  O_21
REMARK   21  A    between atoms: O_21  and  P_22
REMARK   22  A    between atoms: P_22  and  O_23
REMARK   23  A    between atoms: P_22  and  C_25
REMARK   24  A    between atoms: C_25  and  O_26
REMARK   25  A    between atoms: O_26  and  C_27
REMARK   26  A    between atoms: C_27  and  C_28
REMARK   27  A    between atoms: C_27  and  C_30
REMARK   28  A    between atoms: C_28  and  O_29
REMARK   29  A    between atoms: C_30  and  N_31
REMARK                            x       y       z     vdW  Elec       q    Type
REMARK                         _______ _______ _______ _____ _____    ______ ____
ROOT
ATOM      1  O   UNL     1      -8.005   1.129 133.142  0.00  0.00    +0.000 OA
ENDROOT
BRANCH   1   2
ATOM      2  P   UNL     1      -8.685   2.169 131.937  0.00  0.00    +0.000 P 
ATOM      3  O   UNL     1      -7.421   3.026 131.899  0.00  0.00    +0.000 OA
BRANCH   2   4
ATOM      4  O   UNL     1      -9.780   2.710 133.036  0.00  0.00    +0.000 OA
ATOM      5  H   UNL     1     -10.649   2.280 132.967  0.00  0.00    +0.000 HD
ENDBRANCH   2   4
BRANCH   2   6
ATOM      6  C   UNL     1      -9.404   3.269 130.664  0.00  0.00    +0.000 C 
BRANCH   6   7
ATOM      7  O   UNL     1      -8.673   4.474 130.541  0.00  0.00    +0.000 OA
BRANCH   7   8
ATOM      8  C   UNL     1      -9.474   5.652 130.741  0.00  0.00    +0.000 C 
BRANCH   8   9
ATOM      9  C   UNL     1     -10.899   5.463 130.206  0.00  0.00    +0.000 C 
BRANCH   9  10
ATOM     10  N   UNL     1     -11.547   6.758 129.800  0.00  0.00    +0.000 N 
ATOM     11  C   UNL     1     -12.520   7.265 130.636  0.00  0.00    +0.000 A 
ATOM     12  C   UNL     1     -12.931   8.523 130.490  0.00  0.00    +0.000 A 
ATOM     13  C   UNL     1     -12.671   9.127 129.174  0.00  0.00    +0.000 A 
ATOM     14  N   UNL     1     -13.294  10.271 128.801  0.00  0.00    +0.000 N 
ATOM     15  N   UNL     1     -11.879   8.603 128.303  0.00  0.00    +0.000 NA
ATOM     16  C   UNL     1     -11.133   7.524 128.666  0.00  0.00    +0.000 A 
ATOM     17  O   UNL     1     -10.127   7.283 127.994  0.00  0.00    +0.000 OA
ATOM     18  H   UNL     1     -13.913  10.787 129.401  0.00  0.00    +0.000 HD
ATOM     19  H   UNL     1     -13.141  10.585 127.848  0.00  0.00    +0.000 HD
ENDBRANCH   9  10
ENDBRANCH   8   9
BRANCH   8  20
ATOM     20  C   UNL     1      -9.311   6.054 132.209  0.00  0.00    +0.000 C 
BRANCH  20  21
ATOM     21  O   UNL     1     -10.451   5.619 132.956  0.00  0.00    +0.000 OA
ATOM     22  H   UNL     1     -11.204   6.134 132.573  0.00  0.00    +0.000 HD
ENDBRANCH  20  21
ENDBRANCH   8  20
ENDBRANCH   7   8
ENDBRANCH   6   7
ENDBRANCH   2   6
ENDBRANCH   1   2
BRANCH   1  23
ATOM     23  C   UNL     1      -6.587   1.319 133.287  0.00  0.00    +0.000 C 
BRANCH  23  24
ATOM     24  C   UNL     1      -5.939   0.152 133.975  0.00  0.00    +0.000 C 
BRANCH  24  25
ATOM     25  C   UNL     1      -5.122  -0.593 132.938  0.00  0.00    +0.000 C 
BRANCH  25  26
ATOM     26  O   UNL     1      -5.998  -1.372 132.141  0.00  0.00    +0.000 OA
BRANCH  26  27
ATOM     27  C   UNL     1      -5.531  -2.712 132.092  0.00  0.00    +0.000 C 
BRANCH  27  28
ATOM     28  C   UNL     1      -5.321  -3.091 130.644  0.00  0.00    +0.000 C 
BRANCH  28  29
ATOM     29  C   UNL     1      -6.320  -4.163 130.249  0.00  0.00    +0.000 C 
BRANCH  29  30
ATOM     30  C   UNL     1      -7.322  -3.607 129.258  0.00  0.00    +0.000 C 
BRANCH  30  31
ATOM     31  C   UNL     1      -6.678  -2.507 128.433  0.00  0.00    +0.000 C 
BRANCH  31  32
ATOM     32  C   UNL     1      -7.419  -2.346 127.119  0.00  0.00    +0.000 C 
BRANCH  32  33
ATOM     33  C   UNL     1      -8.715  -3.133 127.157  0.00  0.00    +0.000 C 
BRANCH  33  34
ATOM     34  C   UNL     1      -9.469  -2.948 125.854  0.00  0.00    +0.000 C 
BRANCH  34  35
ATOM     35  C   UNL     1      -8.673  -3.545 124.709  0.00  0.00    +0.000 C 
BRANCH  35  36
ATOM     36  C   UNL     1      -9.366  -3.253 123.392  0.00  0.00    +0.000 C 
BRANCH  36  37
ATOM     37  C   UNL     1      -8.801  -1.985 122.780  0.00  0.00    +0.000 C 
BRANCH  37  38
ATOM     38  C   UNL     1      -7.299  -1.934 122.989  0.00  0.00    +0.000 C 
BRANCH  38  39
ATOM     39  C   UNL     1      -6.869  -0.518 123.329  0.00  0.00    +0.000 C 
BRANCH  39  40
ATOM     40  C   UNL     1      -7.866   0.113 124.288  0.00  0.00    +0.000 C 
BRANCH  40  42
ATOM     41  C   UNL     1      -9.591   1.800 123.660  0.00  0.00    +0.000 C 
ATOM     42  C   UNL     1      -8.115   1.567 123.916  0.00  0.00    +0.000 C 
ENDBRANCH  40  42
ENDBRANCH  39  40
ENDBRANCH  38  39
ENDBRANCH  37  38
ENDBRANCH  36  37
ENDBRANCH  35  36
ENDBRANCH  34  35
ENDBRANCH  33  34
ENDBRANCH  32  33
ENDBRANCH  31  32
ENDBRANCH  30  31
ENDBRANCH  29  30
ENDBRANCH  28  29
ENDBRANCH  27  28
ENDBRANCH  26  27
ENDBRANCH  25  26
ENDBRANCH  24  25
ENDBRANCH  23  24
ENDBRANCH   1  23
TORSDOF 28
ENDMDL
MODEL 5
REMARK VINA RESULT:      -6.1      3.442      5.101
REMARK  Name = Brincidofovir
REMARK  29 active torsions:
REMARK  status: ('A' for Active; 'I' for Inactive)
REMARK    1  A    between atoms: C_1  and  C_2
REMARK    2  A    between atoms: C_2  and  C_3
REMARK    3  A    between atoms: C_3  and  C_4
REMARK    4  A    between atoms: C_4  and  C_5
REMARK    5  A    between atoms: C_5  and  C_6
REMARK    6  A    between atoms: C_6  and  C_7
REMARK    7  A    between atoms: C_7  and  C_8
REMARK    8  A    between atoms: C_8  and  C_9
REMARK    9  A    between atoms: C_9  and  C_10
REMARK   10  A    between atoms: C_10  and  C_11
REMARK   11  A    between atoms: C_11  and  C_12
REMARK   12  A    between atoms: C_12  and  C_13
REMARK   13  A    between atoms: C_13  and  C_14
REMARK   14  A    between atoms: C_14  and  C_15
REMARK   15  A    between atoms: C_15  and  C_16
REMARK   16  A    between atoms: C_16  and  O_17
REMARK   17  A    between atoms: O_17  and  C_18
REMARK   18  A    between atoms: C_18  and  C_19
REMARK   19  A    between atoms: C_19  and  C_20
REMARK   20  A    between atoms: C_20  and  O_21
REMARK   21  A    between atoms: O_21  and  P_22
REMARK   22  A    between atoms: P_22  and  O_23
REMARK   23  A    between atoms: P_22  and  C_25
REMARK   24  A    between atoms: C_25  and  O_26
REMARK   25  A    between atoms: O_26  and  C_27
REMARK   26  A    between atoms: C_27  and  C_28
REMARK   27  A    between atoms: C_27  and  C_30
REMARK   28  A    between atoms: C_28  and  O_29
REMARK   29  A    between atoms: C_30  and  N_31
REMARK                            x       y       z     vdW  Elec       q    Type
REMARK                         _______ _______ _______ _____ _____    ______ ____
ROOT
ATOM      1  O   UNL     1      -3.572   6.375 129.936  0.00  0.00    +0.000 OA
ENDROOT
BRANCH   1   2
ATOM      2  P   UNL     1      -5.080   6.312 130.780  0.00  0.00    +0.000 P 
ATOM      3  O   UNL     1      -5.505   7.667 130.217  0.00  0.00    +0.000 OA
BRANCH   2   4
ATOM      4  O   UNL     1      -4.276   6.447 132.207  0.00  0.00    +0.000 OA
ATOM      5  H   UNL     1      -3.793   5.643 132.460  0.00  0.00    +0.000 HD
ENDBRANCH   2   4
BRANCH   2   6
ATOM      6  C   UNL     1      -6.676   6.245 131.675  0.00  0.00    +0.000 C 
BRANCH   6   7
ATOM      7  O   UNL     1      -7.744   5.904 130.812  0.00  0.00    +0.000 OA
BRANCH   7   8
ATOM      8  C   UNL     1      -9.027   6.341 131.290  0.00  0.00    +0.000 C 
BRANCH   8   9
ATOM      9  C   UNL     1     -10.155   5.943 130.329  0.00  0.00    +0.000 C 
BRANCH   9  10
ATOM     10  N   UNL     1     -11.023   7.106 129.931  0.00  0.00    +0.000 N 
ATOM     11  C   UNL     1     -10.703   7.758 128.759  0.00  0.00    +0.000 A 
ATOM     12  C   UNL     1     -11.576   8.600 128.210  0.00  0.00    +0.000 A 
ATOM     13  C   UNL     1     -12.605   9.131 129.119  0.00  0.00    +0.000 A 
ATOM     14  N   UNL     1     -13.351  10.206 128.768  0.00  0.00    +0.000 N 
ATOM     15  N   UNL     1     -12.832   8.640 130.288  0.00  0.00    +0.000 NA
ATOM     16  C   UNL     1     -12.201   7.488 130.645  0.00  0.00    +0.000 A 
ATOM     17  O   UNL     1     -12.703   6.831 131.560  0.00  0.00    +0.000 OA
ATOM     18  H   UNL     1     -13.285  10.661 127.875  0.00  0.00    +0.000 HD
ATOM     19  H   UNL     1     -13.978  10.578 129.475  0.00  0.00    +0.000 HD
ENDBRANCH   9  10
ENDBRANCH   8   9
BRANCH   8  20
ATOM     20  C   UNL     1      -9.138   5.883 132.746  0.00  0.00    +0.000 C 
BRANCH  20  21
ATOM     21  O   UNL     1     -10.458   5.391 132.996  0.00  0.00    +0.000 OA
ATOM     22  H   UNL     1     -10.819   5.193 132.097  0.00  0.00    +0.000 HD
ENDBRANCH  20  21
ENDBRANCH   8  20
ENDBRANCH   7   8
ENDBRANCH   6   7
ENDBRANCH   2   6
ENDBRANCH   1   2
BRANCH   1  23
ATOM     23  C   UNL     1      -2.822   5.155 130.068  0.00  0.00    +0.000 C 
BRANCH  23  24
ATOM     24  C   UNL     1      -3.456   4.028 129.306  0.00  0.00    +0.000 C 
BRANCH  24  25
ATOM     25  C   UNL     1      -2.649   3.822 128.039  0.00  0.00    +0.000 C 
BRANCH  25  26
ATOM     26  O   UNL     1      -3.543   3.651 126.952  0.00  0.00    +0.000 OA
BRANCH  26  27
ATOM     27  C   UNL     1      -4.396   4.783 126.856  0.00  0.00    +0.000 C 
BRANCH  27  28
ATOM     28  C   UNL     1      -5.567   4.423 125.971  0.00  0.00    +0.000 C 
BRANCH  28  29
ATOM     29  C   UNL     1      -6.542   3.557 126.747  0.00  0.00    +0.000 C 
BRANCH  29  30
ATOM     30  C   UNL     1      -7.593   2.986 125.816  0.00  0.00    +0.000 C 
BRANCH  30  31
ATOM     31  C   UNL     1      -7.003   1.842 125.010  0.00  0.00    +0.000 C 
BRANCH  31  32
ATOM     32  C   UNL     1      -7.716   0.548 125.354  0.00  0.00    +0.000 C 
BRANCH  32  33
ATOM     33  C   UNL     1      -9.148   0.598 124.855  0.00  0.00    +0.000 C 
BRANCH  33  34
ATOM     34  C   UNL     1      -9.162   0.713 123.343  0.00  0.00    +0.000 C 
BRANCH  34  35
ATOM     35  C   UNL     1      -9.804  -0.522 122.739  0.00  0.00    +0.000 C 
BRANCH  35  36
ATOM     36  C   UNL     1      -8.753  -1.593 122.516  0.00  0.00    +0.000 C 
BRANCH  36  37
ATOM     37  C   UNL     1      -9.222  -2.908 123.109  0.00  0.00    +0.000 C 
BRANCH  37  38
ATOM     38  C   UNL     1      -8.789  -3.006 124.561  0.00  0.00    +0.000 C 
BRANCH  38  39
ATOM     39  C   UNL     1      -7.512  -3.821 124.667  0.00  0.00    +0.000 C 
BRANCH  39  40
ATOM     40  C   UNL     1      -6.310  -2.897 124.776  0.00  0.00    +0.000 C 
BRANCH  40  42
ATOM     41  C   UNL     1      -4.390  -3.956 123.591  0.00  0.00    +0.000 C 
ATOM     42  C   UNL     1      -5.499  -2.928 123.490  0.00  0.00    +0.000 C 
ENDBRANCH  40  42
ENDBRANCH  39  40
ENDBRANCH  38  39
ENDBRANCH  37  38
ENDBRANCH  36  37
ENDBRANCH  35  36
ENDBRANCH  34  35
ENDBRANCH  33  34
ENDBRANCH  32  33
ENDBRANCH  31  32
ENDBRANCH  30  31
ENDBRANCH  29  30
ENDBRANCH  28  29
ENDBRANCH  27  28
ENDBRANCH  26  27
ENDBRANCH  25  26
ENDBRANCH  24  25
ENDBRANCH  23  24
ENDBRANCH   1  23
TORSDOF 28
ENDMDL
MODEL 6
REMARK VINA RESULT:      -6.1      2.020      3.253
REMARK  Name = Brincidofovir
REMARK  29 active torsions:
REMARK  status: ('A' for Active; 'I' for Inactive)
REMARK    1  A    between atoms: C_1  and  C_2
REMARK    2  A    between atoms: C_2  and  C_3
REMARK    3  A    between atoms: C_3  and  C_4
REMARK    4  A    between atoms: C_4  and  C_5
REMARK    5  A    between atoms: C_5  and  C_6
REMARK    6  A    between atoms: C_6  and  C_7
REMARK    7  A    between atoms: C_7  and  C_8
REMARK    8  A    between atoms: C_8  and  C_9
REMARK    9  A    between atoms: C_9  and  C_10
REMARK   10  A    between atoms: C_10  and  C_11
REMARK   11  A    between atoms: C_11  and  C_12
REMARK   12  A    between atoms: C_12  and  C_13
REMARK   13  A    between atoms: C_13  and  C_14
REMARK   14  A    between atoms: C_14  and  C_15
REMARK   15  A    between atoms: C_15  and  C_16
REMARK   16  A    between atoms: C_16  and  O_17
REMARK   17  A    between atoms: O_17  and  C_18
REMARK   18  A    between atoms: C_18  and  C_19
REMARK   19  A    between atoms: C_19  and  C_20
REMARK   20  A    between atoms: C_20  and  O_21
REMARK   21  A    between atoms: O_21  and  P_22
REMARK   22  A    between atoms: P_22  and  O_23
REMARK   23  A    between atoms: P_22  and  C_25
REMARK   24  A    between atoms: C_25  and  O_26
REMARK   25  A    between atoms: O_26  and  C_27
REMARK   26  A    between atoms: C_27  and  C_28
REMARK   27  A    between atoms: C_27  and  C_30
REMARK   28  A    between atoms: C_28  and  O_29
REMARK   29  A    between atoms: C_30  and  N_31
REMARK                            x       y       z     vdW  Elec       q    Type
REMARK                         _______ _______ _______ _____ _____    ______ ____
ROOT
ATOM      1  O   UNL     1      -7.283   0.109 133.320  0.00  0.00    +0.000 OA
ENDROOT
BRANCH   1   2
ATOM      2  P   UNL     1      -7.215   1.543 132.356  0.00  0.00    +0.000 P 
ATOM      3  O   UNL     1      -5.703   1.656 132.548  0.00  0.00    +0.000 OA
BRANCH   2   4
ATOM      4  O   UNL     1      -8.058   2.350 133.512  0.00  0.00    +0.000 OA
ATOM      5  H   UNL     1      -8.792   1.837 133.891  0.00  0.00    +0.000 HD
ENDBRANCH   2   4
BRANCH   2   6
ATOM      6  C   UNL     1      -7.143   3.062 131.336  0.00  0.00    +0.000 C 
BRANCH   6   7
ATOM      7  O   UNL     1      -7.564   2.818 130.007  0.00  0.00    +0.000 OA
BRANCH   7   8
ATOM      8  C   UNL     1      -8.261   3.928 129.415  0.00  0.00    +0.000 C 
BRANCH   8   9
ATOM      9  C   UNL     1      -8.066   5.215 130.227  0.00  0.00    +0.000 C 
BRANCH   9  10
ATOM     10  N   UNL     1      -9.365   5.863 130.618  0.00  0.00    +0.000 N 
ATOM     11  C   UNL     1     -10.086   6.482 129.619  0.00  0.00    +0.000 A 
ATOM     12  C   UNL     1     -11.355   6.826 129.832  0.00  0.00    +0.000 A 
ATOM     13  C   UNL     1     -11.751   6.952 131.244  0.00  0.00    +0.000 A 
ATOM     14  N   UNL     1     -12.903   7.576 131.587  0.00  0.00    +0.000 N 
ATOM     15  N   UNL     1     -11.029   6.516 132.218  0.00  0.00    +0.000 NA
ATOM     16  C   UNL     1      -9.925   5.774 131.931  0.00  0.00    +0.000 A 
ATOM     17  O   UNL     1      -9.483   5.051 132.827  0.00  0.00    +0.000 OA
ATOM     18  H   UNL     1     -13.561   7.935 130.919  0.00  0.00    +0.000 HD
ATOM     19  H   UNL     1     -13.072   7.710 132.579  0.00  0.00    +0.000 HD
ENDBRANCH   9  10
ENDBRANCH   8   9
BRANCH   8  20
ATOM     20  C   UNL     1      -7.876   3.955 127.934  0.00  0.00    +0.000 C 
BRANCH  20  21
ATOM     21  O   UNL     1      -8.312   2.747 127.302  0.00  0.00    +0.000 OA
ATOM     22  H   UNL     1      -7.712   2.050 127.668  0.00  0.00    +0.000 HD
ENDBRANCH  20  21
ENDBRANCH   8  20
ENDBRANCH   7   8
ENDBRANCH   6   7
ENDBRANCH   2   6
ENDBRANCH   1   2
BRANCH   1  23
ATOM     23  C   UNL     1      -7.001  -1.076 132.555  0.00  0.00    +0.000 C 
BRANCH  23  24
ATOM     24  C   UNL     1      -5.969  -1.937 133.224  0.00  0.00    +0.000 C 
BRANCH  24  25
ATOM     25  C   UNL     1      -5.832  -3.205 132.405  0.00  0.00    +0.000 C 
BRANCH  25  26
ATOM     26  O   UNL     1      -4.971  -2.948 131.308  0.00  0.00    +0.000 OA
BRANCH  26  27
ATOM     27  C   UNL     1      -5.276  -3.840 130.246  0.00  0.00    +0.000 C 
BRANCH  27  28
ATOM     28  C   UNL     1      -6.771  -3.831 130.030  0.00  0.00    +0.000 C 
BRANCH  28  29
ATOM     29  C   UNL     1      -7.125  -2.814 128.961  0.00  0.00    +0.000 C 
BRANCH  29  30
ATOM     30  C   UNL     1      -8.345  -3.269 128.186  0.00  0.00    +0.000 C 
BRANCH  30  31
ATOM     31  C   UNL     1      -8.458  -2.484 126.891  0.00  0.00    +0.000 C 
BRANCH  31  32
ATOM     32  C   UNL     1      -9.467  -3.147 125.972  0.00  0.00    +0.000 C 
BRANCH  32  33
ATOM     33  C   UNL     1      -8.769  -3.668 124.730  0.00  0.00    +0.000 C 
BRANCH  33  34
ATOM     34  C   UNL     1      -9.518  -3.218 123.492  0.00  0.00    +0.000 C 
BRANCH  34  35
ATOM     35  C   UNL     1      -8.669  -2.241 122.702  0.00  0.00    +0.000 C 
BRANCH  35  36
ATOM     36  C   UNL     1      -8.966  -0.821 123.146  0.00  0.00    +0.000 C 
BRANCH  36  37
ATOM     37  C   UNL     1      -7.669  -0.084 123.423  0.00  0.00    +0.000 C 
BRANCH  37  38
ATOM     38  C   UNL     1      -6.505  -1.058 123.402  0.00  0.00    +0.000 C 
BRANCH  38  39
ATOM     39  C   UNL     1      -5.929  -1.206 124.800  0.00  0.00    +0.000 C 
BRANCH  39  40
ATOM     40  C   UNL     1      -5.195  -2.532 124.923  0.00  0.00    +0.000 C 
BRANCH  40  42
ATOM     41  C   UNL     1      -4.533  -4.616 123.725  0.00  0.00    +0.000 C 
ATOM     42  C   UNL     1      -5.133  -3.232 123.574  0.00  0.00    +0.000 C 
ENDBRANCH  40  42
ENDBRANCH  39  40
ENDBRANCH  38  39
ENDBRANCH  37  38
ENDBRANCH  36  37
ENDBRANCH  35  36
ENDBRANCH  34  35
ENDBRANCH  33  34
ENDBRANCH  32  33
ENDBRANCH  31  32
ENDBRANCH  30  31
ENDBRANCH  29  30
ENDBRANCH  28  29
ENDBRANCH  27  28
ENDBRANCH  26  27
ENDBRANCH  25  26
ENDBRANCH  24  25
ENDBRANCH  23  24
ENDBRANCH   1  23
TORSDOF 28
ENDMDL
MODEL 7
REMARK VINA RESULT:      -6.1      1.958      3.395
REMARK  Name = Brincidofovir
REMARK  29 active torsions:
REMARK  status: ('A' for Active; 'I' for Inactive)
REMARK    1  A    between atoms: C_1  and  C_2
REMARK    2  A    between atoms: C_2  and  C_3
REMARK    3  A    between atoms: C_3  and  C_4
REMARK    4  A    between atoms: C_4  and  C_5
REMARK    5  A    between atoms: C_5  and  C_6
REMARK    6  A    between atoms: C_6  and  C_7
REMARK    7  A    between atoms: C_7  and  C_8
REMARK    8  A    between atoms: C_8  and  C_9
REMARK    9  A    between atoms: C_9  and  C_10
REMARK   10  A    between atoms: C_10  and  C_11
REMARK   11  A    between atoms: C_11  and  C_12
REMARK   12  A    between atoms: C_12  and  C_13
REMARK   13  A    between atoms: C_13  and  C_14
REMARK   14  A    between atoms: C_14  and  C_15
REMARK   15  A    between atoms: C_15  and  C_16
REMARK   16  A    between atoms: C_16  and  O_17
REMARK   17  A    between atoms: O_17  and  C_18
REMARK   18  A    between atoms: C_18  and  C_19
REMARK   19  A    between atoms: C_19  and  C_20
REMARK   20  A    between atoms: C_20  and  O_21
REMARK   21  A    between atoms: O_21  and  P_22
REMARK   22  A    between atoms: P_22  and  O_23
REMARK   23  A    between atoms: P_22  and  C_25
REMARK   24  A    between atoms: C_25  and  O_26
REMARK   25  A    between atoms: O_26  and  C_27
REMARK   26  A    between atoms: C_27  and  C_28
REMARK   27  A    between atoms: C_27  and  C_30
REMARK   28  A    between atoms: C_28  and  O_29
REMARK   29  A    between atoms: C_30  and  N_31
REMARK                            x       y       z     vdW  Elec       q    Type
REMARK                         _______ _______ _______ _____ _____    ______ ____
ROOT
ATOM      1  O   UNL     1      -7.074   1.015 129.456  0.00  0.00    +0.000 OA
ENDROOT
BRANCH   1   2
ATOM      2  P   UNL     1      -7.711   2.619 129.579  0.00  0.00    +0.000 P 
ATOM      3  O   UNL     1      -8.921   2.253 128.722  0.00  0.00    +0.000 OA
BRANCH   2   4
ATOM      4  O   UNL     1      -6.451   3.178 128.685  0.00  0.00    +0.000 OA
ATOM      5  H   UNL     1      -6.635   4.018 128.232  0.00  0.00    +0.000 HD
ENDBRANCH   2   4
BRANCH   2   6
ATOM      6  C   UNL     1      -8.384   4.316 129.710  0.00  0.00    +0.000 C 
BRANCH   6   7
ATOM      7  O   UNL     1      -8.803   4.611 131.029  0.00  0.00    +0.000 OA
BRANCH   7   8
ATOM      8  C   UNL     1      -9.669   5.756 131.111  0.00  0.00    +0.000 C 
BRANCH   8   9
ATOM      9  C   UNL     1     -10.950   5.555 130.291  0.00  0.00    +0.000 C 
BRANCH   9  10
ATOM     10  N   UNL     1     -11.583   6.852 129.868  0.00  0.00    +0.000 N 
ATOM     11  C   UNL     1     -12.603   7.341 130.658  0.00  0.00    +0.000 A 
ATOM     12  C   UNL     1     -13.013   8.600 130.507  0.00  0.00    +0.000 A 
ATOM     13  C   UNL     1     -12.686   9.224 129.215  0.00  0.00    +0.000 A 
ATOM     14  N   UNL     1     -13.295  10.369 128.826  0.00  0.00    +0.000 N 
ATOM     15  N   UNL     1     -11.845   8.716 128.381  0.00  0.00    +0.000 NA
ATOM     16  C   UNL     1     -11.113   7.636 128.769  0.00  0.00    +0.000 A 
ATOM     17  O   UNL     1     -10.071   7.410 128.150  0.00  0.00    +0.000 OA
ATOM     18  H   UNL     1     -13.949  10.874 129.398  0.00  0.00    +0.000 HD
ATOM     19  H   UNL     1     -13.093  10.698 127.887  0.00  0.00    +0.000 HD
ENDBRANCH   9  10
ENDBRANCH   8   9
BRANCH   8  20
ATOM     20  C   UNL     1      -9.820   6.092 132.597  0.00  0.00    +0.000 C 
BRANCH  20  21
ATOM     21  O   UNL     1     -10.139   4.905 133.329  0.00  0.00    +0.000 OA
ATOM     22  H   UNL     1     -10.102   4.184 132.652  0.00  0.00    +0.000 HD
ENDBRANCH  20  21
ENDBRANCH   8  20
ENDBRANCH   7   8
ENDBRANCH   6   7
ENDBRANCH   2   6
ENDBRANCH   1   2
BRANCH   1  23
ATOM     23  C   UNL     1      -5.875   0.844 130.233  0.00  0.00    +0.000 C 
BRANCH  23  24
ATOM     24  C   UNL     1      -4.842   0.046 129.491  0.00  0.00    +0.000 C 
BRANCH  24  25
ATOM     25  C   UNL     1      -4.441  -1.117 130.376  0.00  0.00    +0.000 C 
BRANCH  25  26
ATOM     26  O   UNL     1      -5.601  -1.869 130.692  0.00  0.00    +0.000 OA
BRANCH  26  27
ATOM     27  C   UNL     1      -5.636  -3.045 129.897  0.00  0.00    +0.000 C 
BRANCH  27  28
ATOM     28  C   UNL     1      -7.058  -3.556 129.863  0.00  0.00    +0.000 C 
BRANCH  28  29
ATOM     29  C   UNL     1      -7.919  -2.607 129.050  0.00  0.00    +0.000 C 
BRANCH  29  30
ATOM     30  C   UNL     1      -7.332  -2.422 127.665  0.00  0.00    +0.000 C 
BRANCH  30  31
ATOM     31  C   UNL     1      -7.954  -1.208 126.998  0.00  0.00    +0.000 C 
BRANCH  31  32
ATOM     32  C   UNL     1      -6.873  -0.371 126.339  0.00  0.00    +0.000 C 
BRANCH  32  33
ATOM     33  C   UNL     1      -7.467   0.928 125.826  0.00  0.00    +0.000 C 
BRANCH  33  34
ATOM     34  C   UNL     1      -6.782   1.331 124.534  0.00  0.00    +0.000 C 
BRANCH  34  35
ATOM     35  C   UNL     1      -7.146   0.355 123.432  0.00  0.00    +0.000 C 
BRANCH  35  36
ATOM     36  C   UNL     1      -8.650   0.337 123.233  0.00  0.00    +0.000 C 
BRANCH  36  37
ATOM     37  C   UNL     1      -9.147  -1.095 123.175  0.00  0.00    +0.000 C 
BRANCH  37  38
ATOM     38  C   UNL     1      -7.969  -2.051 123.135  0.00  0.00    +0.000 C 
BRANCH  38  39
ATOM     39  C   UNL     1      -8.236  -3.243 124.038  0.00  0.00    +0.000 C 
BRANCH  39  40
ATOM     40  C   UNL     1      -6.939  -3.981 124.326  0.00  0.00    +0.000 C 
BRANCH  40  42
ATOM     41  C   UNL     1      -4.565  -3.826 123.580  0.00  0.00    +0.000 C 
ATOM     42  C   UNL     1      -5.747  -3.055 124.131  0.00  0.00    +0.000 C 
ENDBRANCH  40  42
ENDBRANCH  39  40
ENDBRANCH  38  39
ENDBRANCH  37  38
ENDBRANCH  36  37
ENDBRANCH  35  36
ENDBRANCH  34  35
ENDBRANCH  33  34
ENDBRANCH  32  33
ENDBRANCH  31  32
ENDBRANCH  30  31
ENDBRANCH  29  30
ENDBRANCH  28  29
ENDBRANCH  27  28
ENDBRANCH  26  27
ENDBRANCH  25  26
ENDBRANCH  24  25
ENDBRANCH  23  24
ENDBRANCH   1  23
TORSDOF 28
ENDMDL
MODEL 8
REMARK VINA RESULT:      -6.0      1.668      2.164
REMARK  Name = Brincidofovir
REMARK  29 active torsions:
REMARK  status: ('A' for Active; 'I' for Inactive)
REMARK    1  A    between atoms: C_1  and  C_2
REMARK    2  A    between atoms: C_2  and  C_3
REMARK    3  A    between atoms: C_3  and  C_4
REMARK    4  A    between atoms: C_4  and  C_5
REMARK    5  A    between atoms: C_5  and  C_6
REMARK    6  A    between atoms: C_6  and  C_7
REMARK    7  A    between atoms: C_7  and  C_8
REMARK    8  A    between atoms: C_8  and  C_9
REMARK    9  A    between atoms: C_9  and  C_10
REMARK   10  A    between atoms: C_10  and  C_11
REMARK   11  A    between atoms: C_11  and  C_12
REMARK   12  A    between atoms: C_12  and  C_13
REMARK   13  A    between atoms: C_13  and  C_14
REMARK   14  A    between atoms: C_14  and  C_15
REMARK   15  A    between atoms: C_15  and  C_16
REMARK   16  A    between atoms: C_16  and  O_17
REMARK   17  A    between atoms: O_17  and  C_18
REMARK   18  A    between atoms: C_18  and  C_19
REMARK   19  A    between atoms: C_19  and  C_20
REMARK   20  A    between atoms: C_20  and  O_21
REMARK   21  A    between atoms: O_21  and  P_22
REMARK   22  A    between atoms: P_22  and  O_23
REMARK   23  A    between atoms: P_22  and  C_25
REMARK   24  A    between atoms: C_25  and  O_26
REMARK   25  A    between atoms: O_26  and  C_27
REMARK   26  A    between atoms: C_27  and  C_28
REMARK   27  A    between atoms: C_27  and  C_30
REMARK   28  A    between atoms: C_28  and  O_29
REMARK   29  A    between atoms: C_30  and  N_31
REMARK                            x       y       z     vdW  Elec       q    Type
REMARK                         _______ _______ _______ _____ _____    ______ ____
ROOT
ATOM      1  O   UNL     1      -7.720  -0.153 133.030  0.00  0.00    +0.000 OA
ENDROOT
BRANCH   1   2
ATOM      2  P   UNL     1      -8.310   0.931 131.818  0.00  0.00    +0.000 P 
ATOM      3  O   UNL     1      -8.240   2.117 132.779  0.00  0.00    +0.000 OA
BRANCH   2   4
ATOM      4  O   UNL     1      -9.766   0.171 131.861  0.00  0.00    +0.000 OA
ATOM      5  H   UNL     1      -9.744  -0.736 131.511  0.00  0.00    +0.000 HD
ENDBRANCH   2   4
BRANCH   2   6
ATOM      6  C   UNL     1      -8.935   2.077 130.536  0.00  0.00    +0.000 C 
BRANCH   6   7
ATOM      7  O   UNL     1      -9.748   3.093 131.094  0.00  0.00    +0.000 OA
BRANCH   7   8
ATOM      8  C   UNL     1      -9.729   4.318 130.343  0.00  0.00    +0.000 C 
BRANCH   8   9
ATOM      9  C   UNL     1     -10.024   5.532 131.234  0.00  0.00    +0.000 C 
BRANCH   9  10
ATOM     10  N   UNL     1     -10.808   6.602 130.524  0.00  0.00    +0.000 N 
ATOM     11  C   UNL     1     -12.160   6.670 130.787  0.00  0.00    +0.000 A 
ATOM     12  C   UNL     1     -12.853   7.746 130.420  0.00  0.00    +0.000 A 
ATOM     13  C   UNL     1     -12.243   8.563 129.359  0.00  0.00    +0.000 A 
ATOM     14  N   UNL     1     -12.970   9.494 128.696  0.00  0.00    +0.000 N 
ATOM     15  N   UNL     1     -11.019   8.426 128.981  0.00  0.00    +0.000 NA
ATOM     16  C   UNL     1     -10.207   7.595 129.691  0.00  0.00    +0.000 A 
ATOM     17  O   UNL     1      -8.991   7.767 129.580  0.00  0.00    +0.000 OA
ATOM     18  H   UNL     1     -13.927   9.712 128.915  0.00  0.00    +0.000 HD
ATOM     19  H   UNL     1     -12.517   9.959 127.916  0.00  0.00    +0.000 HD
ENDBRANCH   9  10
ENDBRANCH   8   9
BRANCH   8  20
ATOM     20  C   UNL     1      -8.427   4.325 129.538  0.00  0.00    +0.000 C 
BRANCH  20  21
ATOM     21  O   UNL     1      -8.646   4.960 128.275  0.00  0.00    +0.000 OA
ATOM     22  H   UNL     1      -8.812   5.908 128.504  0.00  0.00    +0.000 HD
ENDBRANCH  20  21
ENDBRANCH   8  20
ENDBRANCH   7   8
ENDBRANCH   6   7
ENDBRANCH   2   6
ENDBRANCH   1   2
BRANCH   1  23
ATOM     23  C   UNL     1      -7.336  -1.426 132.482  0.00  0.00    +0.000 C 
BRANCH  23  24
ATOM     24  C   UNL     1      -5.858  -1.662 132.609  0.00  0.00    +0.000 C 
BRANCH  24  25
ATOM     25  C   UNL     1      -5.389  -2.315 131.324  0.00  0.00    +0.000 C 
BRANCH  25  26
ATOM     26  O   UNL     1      -5.898  -3.638 131.272  0.00  0.00    +0.000 OA
BRANCH  26  27
ATOM     27  C   UNL     1      -6.209  -3.974 129.928  0.00  0.00    +0.000 C 
BRANCH  27  28
ATOM     28  C   UNL     1      -5.931  -2.770 129.059  0.00  0.00    +0.000 C 
BRANCH  28  29
ATOM     29  C   UNL     1      -7.198  -2.369 128.327  0.00  0.00    +0.000 C 
BRANCH  29  30
ATOM     30  C   UNL     1      -8.352  -3.257 128.749  0.00  0.00    +0.000 C 
BRANCH  30  31
ATOM     31  C   UNL     1      -9.035  -3.835 127.522  0.00  0.00    +0.000 C 
BRANCH  31  32
ATOM     32  C   UNL     1      -8.681  -3.012 126.298  0.00  0.00    +0.000 C 
BRANCH  32  33
ATOM     33  C   UNL     1      -8.323  -3.929 125.144  0.00  0.00    +0.000 C 
BRANCH  33  34
ATOM     34  C   UNL     1      -7.463  -3.184 124.142  0.00  0.00    +0.000 C 
BRANCH  34  35
ATOM     35  C   UNL     1      -6.054  -3.034 124.682  0.00  0.00    +0.000 C 
BRANCH  35  36
ATOM     36  C   UNL     1      -5.682  -1.566 124.755  0.00  0.00    +0.000 C 
BRANCH  36  37
ATOM     37  C   UNL     1      -6.532  -0.769 123.783  0.00  0.00    +0.000 C 
BRANCH  37  38
ATOM     38  C   UNL     1      -7.236   0.359 124.515  0.00  0.00    +0.000 C 
BRANCH  38  39
ATOM     39  C   UNL     1      -6.771   0.411 125.960  0.00  0.00    +0.000 C 
BRANCH  39  40
ATOM     40  C   UNL     1      -7.099   1.767 126.564  0.00  0.00    +0.000 C 
BRANCH  40  42
ATOM     41  C   UNL     1      -4.613   1.858 126.393  0.00  0.00    +0.000 C 
ATOM     42  C   UNL     1      -5.882   2.679 126.516  0.00  0.00    +0.000 C 
ENDBRANCH  40  42
ENDBRANCH  39  40
ENDBRANCH  38  39
ENDBRANCH  37  38
ENDBRANCH  36  37
ENDBRANCH  35  36
ENDBRANCH  34  35
ENDBRANCH  33  34
ENDBRANCH  32  33
ENDBRANCH  31  32
ENDBRANCH  30  31
ENDBRANCH  29  30
ENDBRANCH  28  29
ENDBRANCH  27  28
ENDBRANCH  26  27
ENDBRANCH  25  26
ENDBRANCH  24  25
ENDBRANCH  23  24
ENDBRANCH   1  23
TORSDOF 28
ENDMDL
MODEL 9
REMARK VINA RESULT:      -6.0      2.219      3.192
REMARK  Name = Brincidofovir
REMARK  29 active torsions:
REMARK  status: ('A' for Active; 'I' for Inactive)
REMARK    1  A    between atoms: C_1  and  C_2
REMARK    2  A    between atoms: C_2  and  C_3
REMARK    3  A    between atoms: C_3  and  C_4
REMARK    4  A    between atoms: C_4  and  C_5
REMARK    5  A    between atoms: C_5  and  C_6
REMARK    6  A    between atoms: C_6  and  C_7
REMARK    7  A    between atoms: C_7  and  C_8
REMARK    8  A    between atoms: C_8  and  C_9
REMARK    9  A    between atoms: C_9  and  C_10
REMARK   10  A    between atoms: C_10  and  C_11
REMARK   11  A    between atoms: C_11  and  C_12
REMARK   12  A    between atoms: C_12  and  C_13
REMARK   13  A    between atoms: C_13  and  C_14
REMARK   14  A    between atoms: C_14  and  C_15
REMARK   15  A    between atoms: C_15  and  C_16
REMARK   16  A    between atoms: C_16  and  O_17
REMARK   17  A    between atoms: O_17  and  C_18
REMARK   18  A    between atoms: C_18  and  C_19
REMARK   19  A    between atoms: C_19  and  C_20
REMARK   20  A    between atoms: C_20  and  O_21
REMARK   21  A    between atoms: O_21  and  P_22
REMARK   22  A    between atoms: P_22  and  O_23
REMARK   23  A    between atoms: P_22  and  C_25
REMARK   24  A    between atoms: C_25  and  O_26
REMARK   25  A    between atoms: O_26  and  C_27
REMARK   26  A    between atoms: C_27  and  C_28
REMARK   27  A    between atoms: C_27  and  C_30
REMARK   28  A    between atoms: C_28  and  O_29
REMARK   29  A    between atoms: C_30  and  N_31
REMARK                            x       y       z     vdW  Elec       q    Type
REMARK                         _______ _______ _______ _____ _____    ______ ____
ROOT
ATOM      1  O   UNL     1      -6.689   1.539 131.055  0.00  0.00    +0.000 OA
ENDROOT
BRANCH   1   2
ATOM      2  P   UNL     1      -7.797   2.807 130.658  0.00  0.00    +0.000 P 
ATOM      3  O   UNL     1      -6.767   3.487 129.758  0.00  0.00    +0.000 OA
BRANCH   2   4
ATOM      4  O   UNL     1      -7.728   3.341 132.210  0.00  0.00    +0.000 OA
ATOM      5  H   UNL     1      -6.858   3.224 132.626  0.00  0.00    +0.000 HD
ENDBRANCH   2   4
BRANCH   2   6
ATOM      6  C   UNL     1      -8.970   4.148 130.239  0.00  0.00    +0.000 C 
BRANCH   6   7
ATOM      7  O   UNL     1      -8.674   5.340 130.944  0.00  0.00    +0.000 OA
BRANCH   7   8
ATOM      8  C   UNL     1      -9.841   6.110 131.278  0.00  0.00    +0.000 C 
BRANCH   8   9
ATOM      9  C   UNL     1     -10.978   5.879 130.274  0.00  0.00    +0.000 C 
BRANCH   9  10
ATOM     10  N   UNL     1     -11.671   7.152 129.872  0.00  0.00    +0.000 N 
ATOM     11  C   UNL     1     -11.380   7.659 128.623  0.00  0.00    +0.000 A 
ATOM     12  C   UNL     1     -12.151   8.609 128.097  0.00  0.00    +0.000 A 
ATOM     13  C   UNL     1     -12.960   9.375 129.058  0.00  0.00    +0.000 A 
ATOM     14  N   UNL     1     -13.544  10.542 128.696  0.00  0.00    +0.000 N 
ATOM     15  N   UNL     1     -13.133   9.008 130.281  0.00  0.00    +0.000 NA
ATOM     16  C   UNL     1     -12.676   7.786 130.667  0.00  0.00    +0.000 A 
ATOM     17  O   UNL     1     -13.175   7.292 131.680  0.00  0.00    +0.000 OA
ATOM     18  H   UNL     1     -13.503  10.920 127.766  0.00  0.00    +0.000 HD
ATOM     19  H   UNL     1     -14.011  11.066 129.430  0.00  0.00    +0.000 HD
ENDBRANCH   9  10
ENDBRANCH   8   9
BRANCH   8  20
ATOM     20  C   UNL     1     -10.134   5.852 132.758  0.00  0.00    +0.000 C 
BRANCH  20  21
ATOM     21  O   UNL     1      -8.960   6.115 133.533  0.00  0.00    +0.000 OA
ATOM     22  H   UNL     1      -8.379   6.638 132.927  0.00  0.00    +0.000 HD
ENDBRANCH  20  21
ENDBRANCH   8  20
ENDBRANCH   7   8
ENDBRANCH   6   7
ENDBRANCH   2   6
ENDBRANCH   1   2
BRANCH   1  23
ATOM     23  C   UNL     1      -7.316   0.483 131.805  0.00  0.00    +0.000 C 
BRANCH  23  24
ATOM     24  C   UNL     1      -8.330  -0.256 130.980  0.00  0.00    +0.000 C 
BRANCH  24  25
ATOM     25  C   UNL     1      -7.576  -1.030 129.917  0.00  0.00    +0.000 C 
BRANCH  25  26
ATOM     26  O   UNL     1      -7.863  -2.411 130.069  0.00  0.00    +0.000 OA
BRANCH  26  27
ATOM     27  C   UNL     1      -7.418  -3.117 128.920  0.00  0.00    +0.000 C 
BRANCH  27  28
ATOM     28  C   UNL     1      -8.619  -3.420 128.053  0.00  0.00    +0.000 C 
BRANCH  28  29
ATOM     29  C   UNL     1      -8.533  -2.617 126.769  0.00  0.00    +0.000 C 
BRANCH  29  30
ATOM     30  C   UNL     1      -9.568  -3.103 125.774  0.00  0.00    +0.000 C 
BRANCH  30  31
ATOM     31  C   UNL     1      -8.918  -3.327 124.420  0.00  0.00    +0.000 C 
BRANCH  31  32
ATOM     32  C   UNL     1      -7.435  -3.593 124.597  0.00  0.00    +0.000 C 
BRANCH  32  33
ATOM     33  C   UNL     1      -6.638  -2.733 123.634  0.00  0.00    +0.000 C 
BRANCH  33  34
ATOM     34  C   UNL     1      -7.489  -1.573 123.156  0.00  0.00    +0.000 C 
BRANCH  34  35
ATOM     35  C   UNL     1      -6.883  -0.263 123.622  0.00  0.00    +0.000 C 
BRANCH  35  36
ATOM     36  C   UNL     1      -7.747   0.348 124.708  0.00  0.00    +0.000 C 
BRANCH  36  37
ATOM     37  C   UNL     1      -8.611   1.450 124.123  0.00  0.00    +0.000 C 
BRANCH  37  38
ATOM     38  C   UNL     1      -7.904   2.089 122.941  0.00  0.00    +0.000 C 
BRANCH  38  39
ATOM     39  C   UNL     1      -7.361   3.452 123.337  0.00  0.00    +0.000 C 
BRANCH  39  40
ATOM     40  C   UNL     1      -5.973   3.650 122.749  0.00  0.00    +0.000 C 
BRANCH  40  42
ATOM     41  C   UNL     1      -5.403   4.580 120.507  0.00  0.00    +0.000 C 
ATOM     42  C   UNL     1      -5.991   3.396 121.249  0.00  0.00    +0.000 C 
ENDBRANCH  40  42
ENDBRANCH  39  40
ENDBRANCH  38  39
ENDBRANCH  37  38
ENDBRANCH  36  37
ENDBRANCH  35  36
ENDBRANCH  34  35
ENDBRANCH  33  34
ENDBRANCH  32  33
ENDBRANCH  31  32
ENDBRANCH  30  31
ENDBRANCH  29  30
ENDBRANCH  28  29
ENDBRANCH  27  28
ENDBRANCH  26  27
ENDBRANCH  25  26
ENDBRANCH  24  25
ENDBRANCH  23  24
ENDBRANCH   1  23
TORSDOF 28
ENDMDL
