MODEL 1
REMARK VINA RESULT:      -6.8      0.000      0.000
REMARK  Name = Brivudine
REMARK  5 active torsions:
REMARK  status: ('A' for Active; 'I' for Inactive)
REMARK    1  A    between atoms: O5*_1  and  C5*_2
REMARK    2  A    between atoms: C5*_2  and  C4*_3
REMARK    3  A    between atoms: C1*_5  and  N_9
REMARK    4  A    between atoms: C3*_7  and  O3*_8
REMARK    5  A    between atoms: C_11  and  C_12
REMARK                            x       y       z     vdW  Elec       q    Type
REMARK                         _______ _______ _______ _____ _____    ______ ____
ROOT
ATOM      1  N   UNL     1     -10.835   6.796 130.673  0.00  0.00    +0.000 N 
ATOM      2  C   UNL     1      -9.491   6.797 130.364  0.00  0.00    +0.000 A 
ATOM      3  C   UNL     1      -8.529   6.388 131.201  0.00  0.00    +0.000 A 
ATOM      4  C   UNL     1      -8.969   6.035 132.582  0.00  0.00    +0.000 A 
ATOM      5  O   UNL     1      -8.195   5.569 133.419  0.00  0.00    +0.000 OA
ATOM      6  N   UNL     1     -10.284   6.262 132.872  0.00  0.00    +0.000 N 
ATOM      7  C   UNL     1     -11.277   6.480 131.948  0.00  0.00    +0.000 A 
ATOM      8  O   UNL     1     -12.457   6.389 132.275  0.00  0.00    +0.000 OA
ATOM      9  H   UNL     1     -10.586   6.023 133.804  0.00  0.00    +0.000 HD
ENDROOT
BRANCH   1  12
ATOM     10  C4* UNL     1     -11.721   7.280 127.266  0.00  0.00    +0.000 C 
ATOM     11  O4* UNL     1     -11.339   6.435 128.375  0.00  0.00    +0.000 OA
ATOM     12  C1* UNL     1     -11.806   7.036 129.604  0.00  0.00    +0.000 C 
ATOM     13  C2* UNL     1     -12.030   8.510 129.297  0.00  0.00    +0.000 C 
ATOM     14  C3* UNL     1     -12.461   8.481 127.854  0.00  0.00    +0.000 C 
BRANCH  14  15
ATOM     15  O3* UNL     1     -13.874   8.310 127.760  0.00  0.00    +0.000 OA
ATOM     16  H3* UNL     1     -14.289   8.588 128.595  0.00  0.00    +0.000 HD
ENDBRANCH  14  15
BRANCH  10  17
ATOM     17  C5* UNL     1     -10.532   7.728 126.392  0.00  0.00    +0.000 C 
BRANCH  17  18
ATOM     18  O5* UNL     1     -10.902   8.154 125.088  0.00  0.00    +0.000 OA
ATOM     19  H5* UNL     1     -10.383   7.612 124.466  0.00  0.00    +0.000 HD
ENDBRANCH  17  18
ENDBRANCH  10  17
ENDBRANCH   1  12
BRANCH   3  20
ATOM     20  C   UNL     1      -7.133   6.235 130.812  0.00  0.00    +0.000 C 
ATOM     21  C   UNL     1      -6.175   7.151 131.006  0.00  0.00    +0.000 C 
ATOM     22 BR   UNL     1      -4.412   6.973 130.464  0.00  0.00    +0.000 Br
ENDBRANCH   3  20
TORSDOF 5
ENDMDL
MODEL 2
REMARK VINA RESULT:      -6.6      2.200      2.359
REMARK  Name = Brivudine
REMARK  5 active torsions:
REMARK  status: ('A' for Active; 'I' for Inactive)
REMARK    1  A    between atoms: O5*_1  and  C5*_2
REMARK    2  A    between atoms: C5*_2  and  C4*_3
REMARK    3  A    between atoms: C1*_5  and  N_9
REMARK    4  A    between atoms: C3*_7  and  O3*_8
REMARK    5  A    between atoms: C_11  and  C_12
REMARK                            x       y       z     vdW  Elec       q    Type
REMARK                         _______ _______ _______ _____ _____    ______ ____
ROOT
ATOM      1  N   UNL     1     -11.289   6.241 130.475  0.00  0.00    +0.000 N 
ATOM      2  C   UNL     1     -10.274   5.446 129.985  0.00  0.00    +0.000 A 
ATOM      3  C   UNL     1      -9.518   4.643 130.746  0.00  0.00    +0.000 A 
ATOM      4  C   UNL     1      -9.740   4.735 132.217  0.00  0.00    +0.000 A 
ATOM      5  O   UNL     1      -9.167   3.992 133.016  0.00  0.00    +0.000 OA
ATOM      6  N   UNL     1     -10.613   5.697 132.637  0.00  0.00    +0.000 N 
ATOM      7  C   UNL     1     -11.517   6.354 131.838  0.00  0.00    +0.000 A 
ATOM      8  O   UNL     1     -12.444   6.983 132.340  0.00  0.00    +0.000 OA
ATOM      9  H   UNL     1     -10.766   5.762 133.631  0.00  0.00    +0.000 HD
ENDROOT
BRANCH   1  12
ATOM     10  C4* UNL     1     -12.158   7.411 127.234  0.00  0.00    +0.000 C 
ATOM     11  O4* UNL     1     -11.988   6.351 128.202  0.00  0.00    +0.000 OA
ATOM     12  C1* UNL     1     -12.197   6.889 129.528  0.00  0.00    +0.000 C 
ATOM     13  C2* UNL     1     -11.992   8.393 129.412  0.00  0.00    +0.000 C 
ATOM     14  C3* UNL     1     -12.482   8.683 128.017  0.00  0.00    +0.000 C 
BRANCH  14  15
ATOM     15  O3* UNL     1     -13.886   8.937 128.026  0.00  0.00    +0.000 OA
ATOM     16  H3* UNL     1     -14.329   8.285 128.597  0.00  0.00    +0.000 HD
ENDBRANCH  14  15
BRANCH  10  17
ATOM     17  C5* UNL     1     -10.933   7.614 126.319  0.00  0.00    +0.000 C 
BRANCH  17  18
ATOM     18  O5* UNL     1     -10.065   6.491 126.258  0.00  0.00    +0.000 OA
ATOM     19  H5* UNL     1      -9.435   6.593 126.995  0.00  0.00    +0.000 HD
ENDBRANCH  17  18
ENDBRANCH  10  17
ENDBRANCH   1  12
BRANCH   3  20
ATOM     20  C   UNL     1      -8.563   3.685 130.204  0.00  0.00    +0.000 C 
ATOM     21  C   UNL     1      -8.873   2.466 129.742  0.00  0.00    +0.000 C 
ATOM     22 BR   UNL     1      -7.649   1.231 129.102  0.00  0.00    +0.000 Br
ENDBRANCH   3  20
TORSDOF 5
ENDMDL
MODEL 3
REMARK VINA RESULT:      -6.5      9.178     10.486
REMARK  Name = Brivudine
REMARK  5 active torsions:
REMARK  status: ('A' for Active; 'I' for Inactive)
REMARK    1  A    between atoms: O5*_1  and  C5*_2
REMARK    2  A    between atoms: C5*_2  and  C4*_3
REMARK    3  A    between atoms: C1*_5  and  N_9
REMARK    4  A    between atoms: C3*_7  and  O3*_8
REMARK    5  A    between atoms: C_11  and  C_12
REMARK                            x       y       z     vdW  Elec       q    Type
REMARK                         _______ _______ _______ _____ _____    ______ ____
ROOT
ATOM      1  N   UNL     1      -8.005   0.805 123.575  0.00  0.00    +0.000 N 
ATOM      2  C   UNL     1      -6.972  -0.105 123.499  0.00  0.00    +0.000 A 
ATOM      3  C   UNL     1      -7.142  -1.416 123.278  0.00  0.00    +0.000 A 
ATOM      4  C   UNL     1      -8.554  -1.895 123.239  0.00  0.00    +0.000 A 
ATOM      5  O   UNL     1      -8.845  -3.060 122.964  0.00  0.00    +0.000 OA
ATOM      6  N   UNL     1      -9.513  -0.970 123.534  0.00  0.00    +0.000 N 
ATOM      7  C   UNL     1      -9.328   0.392 123.549  0.00  0.00    +0.000 A 
ATOM      8  O   UNL     1     -10.295   1.148 123.540  0.00  0.00    +0.000 OA
ATOM      9  H   UNL     1     -10.469  -1.290 123.508  0.00  0.00    +0.000 HD
ENDROOT
BRANCH   1  12
ATOM     10  C4* UNL     1      -6.591   3.729 122.133  0.00  0.00    +0.000 C 
ATOM     11  O4* UNL     1      -7.630   2.728 122.223  0.00  0.00    +0.000 OA
ATOM     12  C1* UNL     1      -7.688   2.234 123.581  0.00  0.00    +0.000 C 
ATOM     13  C2* UNL     1      -6.342   2.562 124.210  0.00  0.00    +0.000 C 
ATOM     14  C3* UNL     1      -5.965   3.849 123.522  0.00  0.00    +0.000 C 
BRANCH  14  15
ATOM     15  O3* UNL     1      -6.499   4.966 124.231  0.00  0.00    +0.000 OA
ATOM     16  H3* UNL     1      -6.034   5.775 123.956  0.00  0.00    +0.000 HD
ENDBRANCH  14  15
BRANCH  10  17
ATOM     17  C5* UNL     1      -5.524   3.417 121.064  0.00  0.00    +0.000 C 
BRANCH  17  18
ATOM     18  O5* UNL     1      -5.268   4.494 120.172  0.00  0.00    +0.000 OA
ATOM     19  H5* UNL     1      -6.139   4.863 119.934  0.00  0.00    +0.000 HD
ENDBRANCH  17  18
ENDBRANCH  10  17
ENDBRANCH   1  12
BRANCH   3  20
ATOM     20  C   UNL     1      -6.044  -2.341 123.034  0.00  0.00    +0.000 C 
ATOM     21  C   UNL     1      -5.611  -3.268 123.899  0.00  0.00    +0.000 C 
ATOM     22 BR   UNL     1      -4.181  -4.409 123.605  0.00  0.00    +0.000 Br
ENDBRANCH   3  20
TORSDOF 5
ENDMDL
MODEL 4
REMARK VINA RESULT:      -6.4      1.541      1.577
REMARK  Name = Brivudine
REMARK  5 active torsions:
REMARK  status: ('A' for Active; 'I' for Inactive)
REMARK    1  A    between atoms: O5*_1  and  C5*_2
REMARK    2  A    between atoms: C5*_2  and  C4*_3
REMARK    3  A    between atoms: C1*_5  and  N_9
REMARK    4  A    between atoms: C3*_7  and  O3*_8
REMARK    5  A    between atoms: C_11  and  C_12
REMARK                            x       y       z     vdW  Elec       q    Type
REMARK                         _______ _______ _______ _____ _____    ______ ____
ROOT
ATOM      1  N   UNL     1     -10.511   5.933 130.349  0.00  0.00    +0.000 N 
ATOM      2  C   UNL     1      -9.363   6.595 130.728  0.00  0.00    +0.000 A 
ATOM      3  C   UNL     1      -8.264   5.985 131.193  0.00  0.00    +0.000 A 
ATOM      4  C   UNL     1      -8.374   4.514 131.409  0.00  0.00    +0.000 A 
ATOM      5  O   UNL     1      -7.412   3.826 131.754  0.00  0.00    +0.000 OA
ATOM      6  N   UNL     1      -9.609   3.965 131.210  0.00  0.00    +0.000 N 
ATOM      7  C   UNL     1     -10.649   4.567 130.543  0.00  0.00    +0.000 A 
ATOM      8  O   UNL     1     -11.609   3.902 130.165  0.00  0.00    +0.000 OA
ATOM      9  H   UNL     1      -9.688   2.971 131.355  0.00  0.00    +0.000 HD
ENDROOT
BRANCH   1  12
ATOM     10  C4* UNL     1     -11.934   7.347 127.415  0.00  0.00    +0.000 C 
ATOM     11  O4* UNL     1     -11.633   6.219 128.268  0.00  0.00    +0.000 OA
ATOM     12  C1* UNL     1     -11.552   6.676 129.638  0.00  0.00    +0.000 C 
ATOM     13  C2* UNL     1     -11.300   8.176 129.571  0.00  0.00    +0.000 C 
ATOM     14  C3* UNL     1     -12.037   8.575 128.319  0.00  0.00    +0.000 C 
BRANCH  14  15
ATOM     15  O3* UNL     1     -13.398   8.880 128.619  0.00  0.00    +0.000 OA
ATOM     16  H3* UNL     1     -13.975   8.207 128.219  0.00  0.00    +0.000 HD
ENDBRANCH  14  15
BRANCH  10  17
ATOM     17  C5* UNL     1     -10.903   7.564 126.290  0.00  0.00    +0.000 C 
BRANCH  17  18
ATOM     18  O5* UNL     1      -9.886   6.571 126.239  0.00  0.00    +0.000 OA
ATOM     19  H5* UNL     1      -9.989   6.036 127.047  0.00  0.00    +0.000 HD
ENDBRANCH  17  18
ENDBRANCH  10  17
ENDBRANCH   1  12
BRANCH   3  20
ATOM     20  C   UNL     1      -7.002   6.671 131.434  0.00  0.00    +0.000 C 
ATOM     21  C   UNL     1      -5.895   6.529 130.692  0.00  0.00    +0.000 C 
ATOM     22 BR   UNL     1      -4.276   7.364 131.032  0.00  0.00    +0.000 Br
ENDBRANCH   3  20
TORSDOF 5
ENDMDL
MODEL 5
REMARK VINA RESULT:      -6.1      2.379      2.885
REMARK  Name = Brivudine
REMARK  5 active torsions:
REMARK  status: ('A' for Active; 'I' for Inactive)
REMARK    1  A    between atoms: O5*_1  and  C5*_2
REMARK    2  A    between atoms: C5*_2  and  C4*_3
REMARK    3  A    between atoms: C1*_5  and  N_9
REMARK    4  A    between atoms: C3*_7  and  O3*_8
REMARK    5  A    between atoms: C_11  and  C_12
REMARK                            x       y       z     vdW  Elec       q    Type
REMARK                         _______ _______ _______ _____ _____    ______ ____
ROOT
ATOM      1  N   UNL     1     -10.250   6.211 130.240  0.00  0.00    +0.000 N 
ATOM      2  C   UNL     1     -10.054   5.943 131.578  0.00  0.00    +0.000 A 
ATOM      3  C   UNL     1      -9.027   5.228 132.057  0.00  0.00    +0.000 A 
ATOM      4  C   UNL     1      -8.133   4.604 131.040  0.00  0.00    +0.000 A 
ATOM      5  O   UNL     1      -7.110   3.992 131.351  0.00  0.00    +0.000 OA
ATOM      6  N   UNL     1      -8.515   4.741 129.736  0.00  0.00    +0.000 N 
ATOM      7  C   UNL     1      -9.442   5.641 129.269  0.00  0.00    +0.000 A 
ATOM      8  O   UNL     1      -9.512   5.890 128.069  0.00  0.00    +0.000 OA
ATOM      9  H   UNL     1      -7.913   4.321 129.045  0.00  0.00    +0.000 HD
ENDROOT
BRANCH   1  12
ATOM     10  C4* UNL     1     -12.764   7.468 128.065  0.00  0.00    +0.000 C 
ATOM     11  O4* UNL     1     -12.303   6.550 129.083  0.00  0.00    +0.000 OA
ATOM     12  C1* UNL     1     -11.265   7.194 129.858  0.00  0.00    +0.000 C 
ATOM     13  C2* UNL     1     -10.729   8.326 128.993  0.00  0.00    +0.000 C 
ATOM     14  C3* UNL     1     -11.951   8.753 128.221  0.00  0.00    +0.000 C 
BRANCH  14  15
ATOM     15  O3* UNL     1     -12.681   9.738 128.950  0.00  0.00    +0.000 OA
ATOM     16  H3* UNL     1     -13.582   9.805 128.589  0.00  0.00    +0.000 HD
ENDBRANCH  14  15
BRANCH  10  17
ATOM     17  C5* UNL     1     -12.657   6.908 126.633  0.00  0.00    +0.000 C 
BRANCH  17  18
ATOM     18  O5* UNL     1     -11.324   6.635 126.218  0.00  0.00    +0.000 OA
ATOM     19  H5* UNL     1     -11.009   5.903 126.779  0.00  0.00    +0.000 HD
ENDBRANCH  17  18
ENDBRANCH  10  17
ENDBRANCH   1  12
BRANCH   3  20
ATOM     20  C   UNL     1      -8.735   5.089 133.478  0.00  0.00    +0.000 C 
ATOM     21  C   UNL     1      -7.830   5.812 134.152  0.00  0.00    +0.000 C 
ATOM     22 BR   UNL     1      -7.425   5.597 135.947  0.00  0.00    +0.000 Br
ENDBRANCH   3  20
TORSDOF 5
ENDMDL
MODEL 6
REMARK VINA RESULT:      -6.1      8.584      9.787
REMARK  Name = Brivudine
REMARK  5 active torsions:
REMARK  status: ('A' for Active; 'I' for Inactive)
REMARK    1  A    between atoms: O5*_1  and  C5*_2
REMARK    2  A    between atoms: C5*_2  and  C4*_3
REMARK    3  A    between atoms: C1*_5  and  N_9
REMARK    4  A    between atoms: C3*_7  and  O3*_8
REMARK    5  A    between atoms: C_11  and  C_12
REMARK                            x       y       z     vdW  Elec       q    Type
REMARK                         _______ _______ _______ _____ _____    ______ ____
ROOT
ATOM      1  N   UNL     1      -8.801   0.557 124.343  0.00  0.00    +0.000 N 
ATOM      2  C   UNL     1      -7.489   0.926 124.554  0.00  0.00    +0.000 A 
ATOM      3  C   UNL     1      -7.092   2.186 124.784  0.00  0.00    +0.000 A 
ATOM      4  C   UNL     1      -8.147   3.234 124.676  0.00  0.00    +0.000 A 
ATOM      5  O   UNL     1      -7.929   4.417 124.943  0.00  0.00    +0.000 OA
ATOM      6  N   UNL     1      -9.377   2.812 124.256  0.00  0.00    +0.000 N 
ATOM      7  C   UNL     1      -9.804   1.506 124.231  0.00  0.00    +0.000 A 
ATOM      8  O   UNL     1     -10.998   1.248 124.116  0.00  0.00    +0.000 OA
ATOM      9  H   UNL     1     -10.093   3.517 124.183  0.00  0.00    +0.000 HD
ENDROOT
BRANCH   1  12
ATOM     10  C4* UNL     1      -7.949  -2.891 124.467  0.00  0.00    +0.000 C 
ATOM     11  O4* UNL     1      -8.155  -1.608 125.098  0.00  0.00    +0.000 OA
ATOM     12  C1* UNL     1      -9.141  -0.867 124.342  0.00  0.00    +0.000 C 
ATOM     13  C2* UNL     1      -9.167  -1.491 122.953  0.00  0.00    +0.000 C 
ATOM     14  C3* UNL     1      -8.859  -2.937 123.240  0.00  0.00    +0.000 C 
BRANCH  14  15
ATOM     15  O3* UNL     1     -10.060  -3.656 123.518  0.00  0.00    +0.000 OA
ATOM     16  H3* UNL     1     -10.089  -3.883 124.463  0.00  0.00    +0.000 HD
ENDBRANCH  14  15
BRANCH  10  17
ATOM     17  C5* UNL     1      -6.480  -3.163 124.084  0.00  0.00    +0.000 C 
BRANCH  17  18
ATOM     18  O5* UNL     1      -5.712  -1.986 123.871  0.00  0.00    +0.000 OA
ATOM     19  H5* UNL     1      -5.775  -1.467 124.693  0.00  0.00    +0.000 HD
ENDBRANCH  17  18
ENDBRANCH  10  17
ENDBRANCH   1  12
BRANCH   3  20
ATOM     20  C   UNL     1      -5.734   2.545 125.169  0.00  0.00    +0.000 C 
ATOM     21  C   UNL     1      -5.223   2.412 126.400  0.00  0.00    +0.000 C 
ATOM     22 BR   UNL     1      -3.512   2.918 126.899  0.00  0.00    +0.000 Br
ENDBRANCH   3  20
TORSDOF 5
ENDMDL
MODEL 7
REMARK VINA RESULT:      -5.9      1.782      2.381
REMARK  Name = Brivudine
REMARK  5 active torsions:
REMARK  status: ('A' for Active; 'I' for Inactive)
REMARK    1  A    between atoms: O5*_1  and  C5*_2
REMARK    2  A    between atoms: C5*_2  and  C4*_3
REMARK    3  A    between atoms: C1*_5  and  N_9
REMARK    4  A    between atoms: C3*_7  and  O3*_8
REMARK    5  A    between atoms: C_11  and  C_12
REMARK                            x       y       z     vdW  Elec       q    Type
REMARK                         _______ _______ _______ _____ _____    ______ ____
ROOT
ATOM      1  N   UNL     1     -10.399   6.115 130.536  0.00  0.00    +0.000 N 
ATOM      2  C   UNL     1      -9.157   5.517 130.555  0.00  0.00    +0.000 A 
ATOM      3  C   UNL     1      -8.641   4.892 131.622  0.00  0.00    +0.000 A 
ATOM      4  C   UNL     1      -9.440   4.977 132.879  0.00  0.00    +0.000 A 
ATOM      5  O   UNL     1      -9.115   4.378 133.906  0.00  0.00    +0.000 OA
ATOM      6  N   UNL     1     -10.554   5.765 132.834  0.00  0.00    +0.000 N 
ATOM      7  C   UNL     1     -11.164   6.216 131.688  0.00  0.00    +0.000 A 
ATOM      8  O   UNL     1     -12.304   6.669 131.730  0.00  0.00    +0.000 OA
ATOM      9  H   UNL     1     -11.098   5.824 133.681  0.00  0.00    +0.000 HD
ENDROOT
BRANCH   1  12
ATOM     10  C4* UNL     1     -12.088   8.457 128.464  0.00  0.00    +0.000 C 
ATOM     11  O4* UNL     1     -10.915   7.997 129.173  0.00  0.00    +0.000 OA
ATOM     12  C1* UNL     1     -10.952   6.554 129.254  0.00  0.00    +0.000 C 
ATOM     13  C2* UNL     1     -12.405   6.154 129.042  0.00  0.00    +0.000 C 
ATOM     14  C3* UNL     1     -12.901   7.216 128.095  0.00  0.00    +0.000 C 
BRANCH  14  15
ATOM     15  O3* UNL     1     -12.662   6.828 126.743  0.00  0.00    +0.000 OA
ATOM     16  H3* UNL     1     -13.116   7.447 126.145  0.00  0.00    +0.000 HD
ENDBRANCH  14  15
BRANCH  10  17
ATOM     17  C5* UNL     1     -12.938   9.465 129.264  0.00  0.00    +0.000 C 
BRANCH  17  18
ATOM     18  O5* UNL     1     -12.947   9.229 130.665  0.00  0.00    +0.000 OA
ATOM     19  H5* UNL     1     -13.805   9.556 130.991  0.00  0.00    +0.000 HD
ENDBRANCH  17  18
ENDBRANCH  10  17
ENDBRANCH   1  12
BRANCH   3  20
ATOM     20  C   UNL     1      -7.405   4.122 131.587  0.00  0.00    +0.000 C 
ATOM     21  C   UNL     1      -6.183   4.617 131.823  0.00  0.00    +0.000 C 
ATOM     22 BR   UNL     1      -4.608   3.646 131.726  0.00  0.00    +0.000 Br
ENDBRANCH   3  20
TORSDOF 5
ENDMDL
MODEL 8
REMARK VINA RESULT:      -5.9      9.247     10.785
REMARK  Name = Brivudine
REMARK  5 active torsions:
REMARK  status: ('A' for Active; 'I' for Inactive)
REMARK    1  A    between atoms: O5*_1  and  C5*_2
REMARK    2  A    between atoms: C5*_2  and  C4*_3
REMARK    3  A    between atoms: C1*_5  and  N_9
REMARK    4  A    between atoms: C3*_7  and  O3*_8
REMARK    5  A    between atoms: C_11  and  C_12
REMARK                            x       y       z     vdW  Elec       q    Type
REMARK                         _______ _______ _______ _____ _____    ______ ____
ROOT
ATOM      1  N   UNL     1      -7.450   0.290 123.785  0.00  0.00    +0.000 N 
ATOM      2  C   UNL     1      -6.960   1.287 122.969  0.00  0.00    +0.000 A 
ATOM      3  C   UNL     1      -7.175   2.595 123.171  0.00  0.00    +0.000 A 
ATOM      4  C   UNL     1      -8.103   2.941 124.286  0.00  0.00    +0.000 A 
ATOM      5  O   UNL     1      -8.318   4.106 124.624  0.00  0.00    +0.000 OA
ATOM      6  N   UNL     1      -8.712   1.891 124.912  0.00  0.00    +0.000 N 
ATOM      7  C   UNL     1      -8.320   0.577 124.825  0.00  0.00    +0.000 A 
ATOM      8  O   UNL     1      -8.737  -0.248 125.633  0.00  0.00    +0.000 OA
ATOM      9  H   UNL     1      -9.339   2.121 125.667  0.00  0.00    +0.000 HD
ENDROOT
BRANCH   1  12
ATOM     10  C4* UNL     1      -7.720  -3.236 124.141  0.00  0.00    +0.000 C 
ATOM     11  O4* UNL     1      -8.072  -1.991 123.497  0.00  0.00    +0.000 OA
ATOM     12  C1* UNL     1      -6.956  -1.076 123.604  0.00  0.00    +0.000 C 
ATOM     13  C2* UNL     1      -6.104  -1.580 124.760  0.00  0.00    +0.000 C 
ATOM     14  C3* UNL     1      -6.301  -3.072 124.685  0.00  0.00    +0.000 C 
BRANCH  14  15
ATOM     15  O3* UNL     1      -5.342  -3.657 123.805  0.00  0.00    +0.000 OA
ATOM     16  H3* UNL     1      -5.596  -4.577 123.616  0.00  0.00    +0.000 HD
ENDBRANCH  14  15
BRANCH  10  17
ATOM     17  C5* UNL     1      -8.701  -3.655 125.254  0.00  0.00    +0.000 C 
BRANCH  17  18
ATOM     18  O5* UNL     1      -9.930  -2.941 125.240  0.00  0.00    +0.000 OA
ATOM     19  H5* UNL     1     -10.406  -3.234 124.441  0.00  0.00    +0.000 HD
ENDBRANCH  17  18
ENDBRANCH  10  17
ENDBRANCH   1  12
BRANCH   3  20
ATOM     20  C   UNL     1      -6.520   3.647 122.405  0.00  0.00    +0.000 C 
ATOM     21  C   UNL     1      -6.274   3.601 121.089  0.00  0.00    +0.000 C 
ATOM     22 BR   UNL     1      -5.396   4.919 120.128  0.00  0.00    +0.000 Br
ENDBRANCH   3  20
TORSDOF 5
ENDMDL
MODEL 9
REMARK VINA RESULT:      -5.8      3.135      6.156
REMARK  Name = Brivudine
REMARK  5 active torsions:
REMARK  status: ('A' for Active; 'I' for Inactive)
REMARK    1  A    between atoms: O5*_1  and  C5*_2
REMARK    2  A    between atoms: C5*_2  and  C4*_3
REMARK    3  A    between atoms: C1*_5  and  N_9
REMARK    4  A    between atoms: C3*_7  and  O3*_8
REMARK    5  A    between atoms: C_11  and  C_12
REMARK                            x       y       z     vdW  Elec       q    Type
REMARK                         _______ _______ _______ _____ _____    ______ ____
ROOT
ATOM      1  N   UNL     1      -7.924   5.640 132.304  0.00  0.00    +0.000 N 
ATOM      2  C   UNL     1      -8.379   6.261 131.160  0.00  0.00    +0.000 A 
ATOM      3  C   UNL     1      -9.654   6.620 130.958  0.00  0.00    +0.000 A 
ATOM      4  C   UNL     1     -10.627   6.196 132.005  0.00  0.00    +0.000 A 
ATOM      5  O   UNL     1     -11.812   6.534 131.977  0.00  0.00    +0.000 OA
ATOM      6  N   UNL     1     -10.134   5.403 133.001  0.00  0.00    +0.000 N 
ATOM      7  C   UNL     1      -8.803   5.226 133.293  0.00  0.00    +0.000 A 
ATOM      8  O   UNL     1      -8.465   4.734 134.366  0.00  0.00    +0.000 OA
ATOM      9  H   UNL     1     -10.789   5.114 133.712  0.00  0.00    +0.000 HD
ENDROOT
BRANCH   1  12
ATOM     10  C4* UNL     1      -4.542   6.365 131.488  0.00  0.00    +0.000 C 
ATOM     11  O4* UNL     1      -5.814   6.719 132.076  0.00  0.00    +0.000 OA
ATOM     12  C1* UNL     1      -6.481   5.511 132.512  0.00  0.00    +0.000 C 
ATOM     13  C2* UNL     1      -5.847   4.370 131.730  0.00  0.00    +0.000 C 
ATOM     14  C3* UNL     1      -4.426   4.842 131.559  0.00  0.00    +0.000 C 
BRANCH  14  15
ATOM     15  O3* UNL     1      -3.630   4.439 132.672  0.00  0.00    +0.000 OA
ATOM     16  H3* UNL     1      -2.823   4.002 132.351  0.00  0.00    +0.000 HD
ENDBRANCH  14  15
BRANCH  10  17
ATOM     17  C5* UNL     1      -4.367   6.873 130.042  0.00  0.00    +0.000 C 
BRANCH  17  18
ATOM     18  O5* UNL     1      -4.916   8.164 129.814  0.00  0.00    +0.000 OA
ATOM     19  H5* UNL     1      -4.940   8.283 128.847  0.00  0.00    +0.000 HD
ENDBRANCH  17  18
ENDBRANCH  10  17
ENDBRANCH   1  12
BRANCH   3  20
ATOM     20  C   UNL     1     -10.095   7.422 129.824  0.00  0.00    +0.000 C 
ATOM     21  C   UNL     1     -10.507   6.930 128.648  0.00  0.00    +0.000 C 
ATOM     22 BR   UNL     1     -11.019   7.954 127.191  0.00  0.00    +0.000 Br
ENDBRANCH   3  20
TORSDOF 5
ENDMDL
