MODEL 1
REMARK VINA RESULT:      -6.0      0.000      0.000
REMARK  Name = Brivaracetam
REMARK  7 active torsions:
REMARK  status: ('A' for Active; 'I' for Inactive)
REMARK    1  A    between atoms: C_1  and  C_2
REMARK    2  A    between atoms: C_2  and  C_3
REMARK    3  A    between atoms: C_3  and  C_4
REMARK    4  A    between atoms: N_6  and  C_7
REMARK    5  A    between atoms: C_7  and  C_8
REMARK    6  A    between atoms: C_7  and  C_10
REMARK    7  A    between atoms: C_8  and  C_9
REMARK                            x       y       z     vdW  Elec       q    Type
REMARK                         _______ _______ _______ _____ _____    ______ ____
ROOT
ATOM      1  C   UNL     1     -11.763   8.582 128.356  0.00  0.00    +0.000 C 
ATOM      2  C   UNL     1     -10.355   8.234 128.822  0.00  0.00    +0.000 C 
ATOM      3  N   UNL     1     -10.506   6.928 129.447  0.00  0.00    +0.000 N 
ATOM      4  C   UNL     1     -11.718   6.377 129.016  0.00  0.00    +0.000 C 
ATOM      5  O   UNL     1     -12.305   5.385 129.379  0.00  0.00    +0.000 OA
ATOM      6  C   UNL     1     -12.287   7.233 127.933  0.00  0.00    +0.000 C 
ENDROOT
BRANCH   1   7
ATOM      7  C   UNL     1     -12.627   9.138 129.514  0.00  0.00    +0.000 C 
BRANCH   7   9
ATOM      8  C   UNL     1     -13.693  11.353 130.018  0.00  0.00    +0.000 C 
ATOM      9  C   UNL     1     -13.519  10.257 128.990  0.00  0.00    +0.000 C 
ENDBRANCH   7   9
ENDBRANCH   1   7
BRANCH   3  10
ATOM     10  C   UNL     1      -9.493   6.341 130.396  0.00  0.00    +0.000 C 
BRANCH  10  11
ATOM     11  C   UNL     1      -9.946   5.760 131.804  0.00  0.00    +0.000 C 
ATOM     12  N   UNL     1     -10.350   4.470 131.904  0.00  0.00    +0.000 N 
ATOM     13  O   UNL     1      -9.910   6.432 132.838  0.00  0.00    +0.000 OA
ATOM     14  H   UNL     1     -10.523   3.912 131.076  0.00  0.00    +0.000 HD
ATOM     15  H   UNL     1     -10.844   4.131 132.715  0.00  0.00    +0.000 HD
ENDBRANCH  10  11
BRANCH  10  16
ATOM     16  C   UNL     1      -8.290   7.291 130.684  0.00  0.00    +0.000 C 
ATOM     17  C   UNL     1      -6.972   6.645 131.091  0.00  0.00    +0.000 C 
ENDBRANCH  10  16
ENDBRANCH   3  10
TORSDOF 5
ENDMDL
MODEL 2
REMARK VINA RESULT:      -5.7     10.211     12.055
REMARK  Name = Brivaracetam
REMARK  7 active torsions:
REMARK  status: ('A' for Active; 'I' for Inactive)
REMARK    1  A    between atoms: C_1  and  C_2
REMARK    2  A    between atoms: C_2  and  C_3
REMARK    3  A    between atoms: C_3  and  C_4
REMARK    4  A    between atoms: N_6  and  C_7
REMARK    5  A    between atoms: C_7  and  C_8
REMARK    6  A    between atoms: C_7  and  C_10
REMARK    7  A    between atoms: C_8  and  C_9
REMARK                            x       y       z     vdW  Elec       q    Type
REMARK                         _______ _______ _______ _____ _____    ______ ____
ROOT
ATOM      1  C   UNL     1      -6.568  -2.784 124.656  0.00  0.00    +0.000 C 
ATOM      2  C   UNL     1      -6.810  -1.349 125.104  0.00  0.00    +0.000 C 
ATOM      3  N   UNL     1      -8.021  -0.961 124.394  0.00  0.00    +0.000 N 
ATOM      4  C   UNL     1      -8.658  -2.125 123.952  0.00  0.00    +0.000 C 
ATOM      5  O   UNL     1      -9.605  -2.273 123.216  0.00  0.00    +0.000 OA
ATOM      6  C   UNL     1      -7.975  -3.312 124.548  0.00  0.00    +0.000 C 
ENDROOT
BRANCH   1   7
ATOM      7  C   UNL     1      -5.879  -2.842 123.270  0.00  0.00    +0.000 C 
BRANCH   7   9
ATOM      8  C   UNL     1      -4.407  -4.850 123.583  0.00  0.00    +0.000 C 
ATOM      9  C   UNL     1      -4.450  -3.346 123.434  0.00  0.00    +0.000 C 
ENDBRANCH   7   9
ENDBRANCH   1   7
BRANCH   3  10
ATOM     10  C   UNL     1      -8.442   0.473 124.198  0.00  0.00    +0.000 C 
BRANCH  10  11
ATOM     11  C   UNL     1      -9.887   0.820 123.635  0.00  0.00    +0.000 C 
ATOM     12  N   UNL     1     -10.164   0.633 122.321  0.00  0.00    +0.000 N 
ATOM     13  O   UNL     1     -10.799   1.225 124.361  0.00  0.00    +0.000 OA
ATOM     14  H   UNL     1      -9.426   0.428 121.657  0.00  0.00    +0.000 HD
ATOM     15  H   UNL     1     -10.979   1.038 121.889  0.00  0.00    +0.000 HD
ENDBRANCH  10  11
BRANCH  10  16
ATOM     16  C   UNL     1      -7.433   1.307 123.351  0.00  0.00    +0.000 C 
ATOM     17  C   UNL     1      -6.713   2.452 124.052  0.00  0.00    +0.000 C 
ENDBRANCH  10  16
ENDBRANCH   3  10
TORSDOF 5
ENDMDL
MODEL 3
REMARK VINA RESULT:      -5.7     10.180     12.038
REMARK  Name = Brivaracetam
REMARK  7 active torsions:
REMARK  status: ('A' for Active; 'I' for Inactive)
REMARK    1  A    between atoms: C_1  and  C_2
REMARK    2  A    between atoms: C_2  and  C_3
REMARK    3  A    between atoms: C_3  and  C_4
REMARK    4  A    between atoms: N_6  and  C_7
REMARK    5  A    between atoms: C_7  and  C_8
REMARK    6  A    between atoms: C_7  and  C_10
REMARK    7  A    between atoms: C_8  and  C_9
REMARK                            x       y       z     vdW  Elec       q    Type
REMARK                         _______ _______ _______ _____ _____    ______ ____
ROOT
ATOM      1  C   UNL     1      -6.728  -3.014 124.720  0.00  0.00    +0.000 C 
ATOM      2  C   UNL     1      -7.156  -1.699 125.356  0.00  0.00    +0.000 C 
ATOM      3  N   UNL     1      -8.396  -1.365 124.670  0.00  0.00    +0.000 N 
ATOM      4  C   UNL     1      -8.874  -2.524 124.049  0.00  0.00    +0.000 C 
ATOM      5  O   UNL     1      -9.786  -2.681 123.271  0.00  0.00    +0.000 OA
ATOM      6  C   UNL     1      -8.055  -3.691 124.494  0.00  0.00    +0.000 C 
ENDROOT
BRANCH   1   7
ATOM      7  C   UNL     1      -6.019  -2.788 123.362  0.00  0.00    +0.000 C 
BRANCH   7   9
ATOM      8  C   UNL     1      -4.459  -4.735 123.623  0.00  0.00    +0.000 C 
ATOM      9  C   UNL     1      -4.565  -3.235 123.466  0.00  0.00    +0.000 C 
ENDBRANCH   7   9
ENDBRANCH   1   7
BRANCH   3  10
ATOM     10  C   UNL     1      -8.993   0.019 124.664  0.00  0.00    +0.000 C 
BRANCH  10  11
ATOM     11  C   UNL     1      -9.259   0.778 123.294  0.00  0.00    +0.000 C 
ATOM     12  N   UNL     1     -10.253   0.363 122.472  0.00  0.00    +0.000 N 
ATOM     13  O   UNL     1      -8.612   1.773 122.955  0.00  0.00    +0.000 OA
ATOM     14  H   UNL     1     -10.729  -0.517 122.633  0.00  0.00    +0.000 HD
ATOM     15  H   UNL     1     -10.312   0.672 121.514  0.00  0.00    +0.000 HD
ENDBRANCH  10  11
BRANCH  10  16
ATOM     16  C   UNL     1      -8.234   1.026 125.581  0.00  0.00    +0.000 C 
ATOM     17  C   UNL     1      -8.770   1.224 126.994  0.00  0.00    +0.000 C 
ENDBRANCH  10  16
ENDBRANCH   3  10
TORSDOF 5
ENDMDL
MODEL 4
REMARK VINA RESULT:      -5.4      9.882     11.881
REMARK  Name = Brivaracetam
REMARK  7 active torsions:
REMARK  status: ('A' for Active; 'I' for Inactive)
REMARK    1  A    between atoms: C_1  and  C_2
REMARK    2  A    between atoms: C_2  and  C_3
REMARK    3  A    between atoms: C_3  and  C_4
REMARK    4  A    between atoms: N_6  and  C_7
REMARK    5  A    between atoms: C_7  and  C_8
REMARK    6  A    between atoms: C_7  and  C_10
REMARK    7  A    between atoms: C_8  and  C_9
REMARK                            x       y       z     vdW  Elec       q    Type
REMARK                         _______ _______ _______ _____ _____    ______ ____
ROOT
ATOM      1  C   UNL     1      -5.683  -2.100 125.515  0.00  0.00    +0.000 C 
ATOM      2  C   UNL     1      -6.081  -0.788 124.853  0.00  0.00    +0.000 C 
ATOM      3  N   UNL     1      -7.531  -0.758 124.980  0.00  0.00    +0.000 N 
ATOM      4  C   UNL     1      -7.900  -1.679 125.966  0.00  0.00    +0.000 C 
ATOM      5  O   UNL     1      -8.990  -2.078 126.301  0.00  0.00    +0.000 OA
ATOM      6  C   UNL     1      -6.671  -2.183 126.649  0.00  0.00    +0.000 C 
ENDROOT
BRANCH   1   7
ATOM      7  C   UNL     1      -5.880  -3.304 124.561  0.00  0.00    +0.000 C 
BRANCH   7   9
ATOM      8  C   UNL     1      -4.059  -4.679 123.515  0.00  0.00    +0.000 C 
ATOM      9  C   UNL     1      -4.749  -3.333 123.539  0.00  0.00    +0.000 C 
ENDBRANCH   7   9
ENDBRANCH   1   7
BRANCH   3  10
ATOM     10  C   UNL     1      -8.417   0.132 124.147  0.00  0.00    +0.000 C 
BRANCH  10  11
ATOM     11  C   UNL     1      -9.421   1.151 124.841  0.00  0.00    +0.000 C 
ATOM     12  N   UNL     1     -10.425   1.707 124.121  0.00  0.00    +0.000 N 
ATOM     13  O   UNL     1      -9.349   1.434 126.040  0.00  0.00    +0.000 OA
ATOM     14  H   UNL     1     -10.457   1.614 123.113  0.00  0.00    +0.000 HD
ATOM     15  H   UNL     1     -10.937   2.507 124.457  0.00  0.00    +0.000 HD
ENDBRANCH  10  11
BRANCH  10  16
ATOM     16  C   UNL     1      -9.252  -0.644 123.083  0.00  0.00    +0.000 C 
ATOM     17  C   UNL     1      -8.627  -1.899 122.487  0.00  0.00    +0.000 C 
ENDBRANCH  10  16
ENDBRANCH   3  10
TORSDOF 5
ENDMDL
MODEL 5
REMARK VINA RESULT:      -5.4      2.279      3.472
REMARK  Name = Brivaracetam
REMARK  7 active torsions:
REMARK  status: ('A' for Active; 'I' for Inactive)
REMARK    1  A    between atoms: C_1  and  C_2
REMARK    2  A    between atoms: C_2  and  C_3
REMARK    3  A    between atoms: C_3  and  C_4
REMARK    4  A    between atoms: N_6  and  C_7
REMARK    5  A    between atoms: C_7  and  C_8
REMARK    6  A    between atoms: C_7  and  C_10
REMARK    7  A    between atoms: C_8  and  C_9
REMARK                            x       y       z     vdW  Elec       q    Type
REMARK                         _______ _______ _______ _____ _____    ______ ____
ROOT
ATOM      1  C   UNL     1     -12.218   6.799 130.287  0.00  0.00    +0.000 C 
ATOM      2  C   UNL     1     -11.669   5.421 129.947  0.00  0.00    +0.000 C 
ATOM      3  N   UNL     1     -10.553   5.252 130.867  0.00  0.00    +0.000 N 
ATOM      4  C   UNL     1     -10.698   6.182 131.902  0.00  0.00    +0.000 C 
ATOM      5  O   UNL     1      -9.946   6.487 132.797  0.00  0.00    +0.000 OA
ATOM      6  C   UNL     1     -12.032   6.842 131.782  0.00  0.00    +0.000 C 
ENDROOT
BRANCH   1   7
ATOM      7  C   UNL     1     -11.386   7.925 129.625  0.00  0.00    +0.000 C 
BRANCH   7   9
ATOM      8  C   UNL     1     -13.079   9.768 129.434  0.00  0.00    +0.000 C 
ATOM      9  C   UNL     1     -12.276   8.729 128.684  0.00  0.00    +0.000 C 
ENDBRANCH   7   9
ENDBRANCH   1   7
BRANCH   3  10
ATOM     10  C   UNL     1      -9.460   4.234 130.666  0.00  0.00    +0.000 C 
BRANCH  10  11
ATOM     11  C   UNL     1      -8.661   4.168 129.294  0.00  0.00    +0.000 C 
ATOM     12  N   UNL     1      -7.960   3.052 128.972  0.00  0.00    +0.000 N 
ATOM     13  O   UNL     1      -8.680   5.089 128.473  0.00  0.00    +0.000 OA
ATOM     14  H   UNL     1      -7.803   2.321 129.655  0.00  0.00    +0.000 HD
ATOM     15  H   UNL     1      -7.276   3.052 128.232  0.00  0.00    +0.000 HD
ENDBRANCH  10  11
BRANCH  10  16
ATOM     16  C   UNL     1      -9.906   2.773 130.981  0.00  0.00    +0.000 C 
ATOM     17  C   UNL     1      -9.628   2.246 132.382  0.00  0.00    +0.000 C 
ENDBRANCH  10  16
ENDBRANCH   3  10
TORSDOF 5
ENDMDL
MODEL 6
REMARK VINA RESULT:      -5.3      2.134      3.018
REMARK  Name = Brivaracetam
REMARK  7 active torsions:
REMARK  status: ('A' for Active; 'I' for Inactive)
REMARK    1  A    between atoms: C_1  and  C_2
REMARK    2  A    between atoms: C_2  and  C_3
REMARK    3  A    between atoms: C_3  and  C_4
REMARK    4  A    between atoms: N_6  and  C_7
REMARK    5  A    between atoms: C_7  and  C_8
REMARK    6  A    between atoms: C_7  and  C_10
REMARK    7  A    between atoms: C_8  and  C_9
REMARK                            x       y       z     vdW  Elec       q    Type
REMARK                         _______ _______ _______ _____ _____    ______ ____
ROOT
ATOM      1  C   UNL     1     -12.579   7.114 130.102  0.00  0.00    +0.000 C 
ATOM      2  C   UNL     1     -12.095   5.728 129.701  0.00  0.00    +0.000 C 
ATOM      3  N   UNL     1     -11.018   5.448 130.640  0.00  0.00    +0.000 N 
ATOM      4  C   UNL     1     -11.143   6.329 131.720  0.00  0.00    +0.000 C 
ATOM      5  O   UNL     1     -10.402   6.542 132.651  0.00  0.00    +0.000 OA
ATOM      6  C   UNL     1     -12.436   7.067 131.602  0.00  0.00    +0.000 C 
ENDROOT
BRANCH   1   7
ATOM      7  C   UNL     1     -11.669   8.227 129.525  0.00  0.00    +0.000 C 
BRANCH   7   9
ATOM      8  C   UNL     1     -10.898   8.028 127.146  0.00  0.00    +0.000 C 
ATOM      9  C   UNL     1     -12.020   8.462 128.061  0.00  0.00    +0.000 C 
ENDBRANCH   7   9
ENDBRANCH   1   7
BRANCH   3  10
ATOM     10  C   UNL     1      -9.975   4.384 130.412  0.00  0.00    +0.000 C 
BRANCH  10  11
ATOM     11  C   UNL     1      -9.586   3.372 131.573  0.00  0.00    +0.000 C 
ATOM     12  N   UNL     1     -10.366   2.290 131.817  0.00  0.00    +0.000 N 
ATOM     13  O   UNL     1      -8.564   3.507 132.252  0.00  0.00    +0.000 OA
ATOM     14  H   UNL     1     -11.277   2.196 131.383  0.00  0.00    +0.000 HD
ATOM     15  H   UNL     1     -10.279   1.756 132.667  0.00  0.00    +0.000 HD
ENDBRANCH  10  11
BRANCH  10  16
ATOM     16  C   UNL     1      -8.631   4.943 129.852  0.00  0.00    +0.000 C 
ATOM     17  C   UNL     1      -8.078   4.295 128.589  0.00  0.00    +0.000 C 
ENDBRANCH  10  16
ENDBRANCH   3  10
TORSDOF 5
ENDMDL
MODEL 7
REMARK VINA RESULT:      -5.1      2.509      3.669
REMARK  Name = Brivaracetam
REMARK  7 active torsions:
REMARK  status: ('A' for Active; 'I' for Inactive)
REMARK    1  A    between atoms: C_1  and  C_2
REMARK    2  A    between atoms: C_2  and  C_3
REMARK    3  A    between atoms: C_3  and  C_4
REMARK    4  A    between atoms: N_6  and  C_7
REMARK    5  A    between atoms: C_7  and  C_8
REMARK    6  A    between atoms: C_7  and  C_10
REMARK    7  A    between atoms: C_8  and  C_9
REMARK                            x       y       z     vdW  Elec       q    Type
REMARK                         _______ _______ _______ _____ _____    ______ ____
ROOT
ATOM      1  C   UNL     1     -11.016   6.929 130.829  0.00  0.00    +0.000 C 
ATOM      2  C   UNL     1     -10.534   6.095 132.008  0.00  0.00    +0.000 C 
ATOM      3  N   UNL     1      -9.468   5.278 131.445  0.00  0.00    +0.000 N 
ATOM      4  C   UNL     1      -9.066   5.859 130.238  0.00  0.00    +0.000 C 
ATOM      5  O   UNL     1      -8.317   5.453 129.381  0.00  0.00    +0.000 OA
ATOM      6  C   UNL     1      -9.728   7.189 130.091  0.00  0.00    +0.000 C 
ENDROOT
BRANCH   1   7
ATOM      7  C   UNL     1     -11.985   6.131 129.921  0.00  0.00    +0.000 C 
BRANCH   7   9
ATOM      8  C   UNL     1     -13.284   7.057 127.984  0.00  0.00    +0.000 C 
ATOM      9  C   UNL     1     -13.135   7.034 129.489  0.00  0.00    +0.000 C 
ENDBRANCH   7   9
ENDBRANCH   1   7
BRANCH   3  10
ATOM     10  C   UNL     1      -8.948   4.026 132.104  0.00  0.00    +0.000 C 
BRANCH  10  11
ATOM     11  C   UNL     1      -9.303   2.595 131.512  0.00  0.00    +0.000 C 
ATOM     12  N   UNL     1     -10.305   1.865 132.061  0.00  0.00    +0.000 N 
ATOM     13  O   UNL     1      -8.721   2.124 130.532  0.00  0.00    +0.000 OA
ATOM     14  H   UNL     1     -10.728   2.140 132.940  0.00  0.00    +0.000 HD
ATOM     15  H   UNL     1     -10.414   0.883 131.863  0.00  0.00    +0.000 HD
ENDBRANCH  10  11
BRANCH  10  16
ATOM     16  C   UNL     1      -9.257   3.955 133.632  0.00  0.00    +0.000 C 
ATOM     17  C   UNL     1      -8.132   4.325 134.589  0.00  0.00    +0.000 C 
ENDBRANCH  10  16
ENDBRANCH   3  10
TORSDOF 5
ENDMDL
MODEL 8
REMARK VINA RESULT:      -5.1      8.553      9.563
REMARK  Name = Brivaracetam
REMARK  7 active torsions:
REMARK  status: ('A' for Active; 'I' for Inactive)
REMARK    1  A    between atoms: C_1  and  C_2
REMARK    2  A    between atoms: C_2  and  C_3
REMARK    3  A    between atoms: C_3  and  C_4
REMARK    4  A    between atoms: N_6  and  C_7
REMARK    5  A    between atoms: C_7  and  C_8
REMARK    6  A    between atoms: C_7  and  C_10
REMARK    7  A    between atoms: C_8  and  C_9
REMARK                            x       y       z     vdW  Elec       q    Type
REMARK                         _______ _______ _______ _____ _____    ______ ____
ROOT
ATOM      1  C   UNL     1      -5.786   3.809 120.933  0.00  0.00    +0.000 C 
ATOM      2  C   UNL     1      -5.599   4.378 122.332  0.00  0.00    +0.000 C 
ATOM      3  N   UNL     1      -6.286   3.425 123.192  0.00  0.00    +0.000 N 
ATOM      4  C   UNL     1      -6.460   2.237 122.473  0.00  0.00    +0.000 C 
ATOM      5  O   UNL     1      -7.089   1.241 122.740  0.00  0.00    +0.000 OA
ATOM      6  C   UNL     1      -5.700   2.327 121.191  0.00  0.00    +0.000 C 
ENDROOT
BRANCH   1   7
ATOM      7  C   UNL     1      -7.180   4.158 120.355  0.00  0.00    +0.000 C 
BRANCH   7   9
ATOM      8  C   UNL     1      -5.944   5.571 118.690  0.00  0.00    +0.000 C 
ATOM      9  C   UNL     1      -7.039   4.547 118.888  0.00  0.00    +0.000 C 
ENDBRANCH   7   9
ENDBRANCH   1   7
BRANCH   3  10
ATOM     10  C   UNL     1      -6.717   3.741 124.601  0.00  0.00    +0.000 C 
BRANCH  10  11
ATOM     11  C   UNL     1      -8.260   3.828 124.974  0.00  0.00    +0.000 C 
ATOM     12  N   UNL     1      -9.097   2.820 124.627  0.00  0.00    +0.000 N 
ATOM     13  O   UNL     1      -8.732   4.772 125.612  0.00  0.00    +0.000 OA
ATOM     14  H   UNL     1      -8.796   2.086 123.997  0.00  0.00    +0.000 HD
ATOM     15  H   UNL     1     -10.098   2.932 124.649  0.00  0.00    +0.000 HD
ENDBRANCH  10  11
BRANCH  10  16
ATOM     16  C   UNL     1      -6.057   5.031 125.178  0.00  0.00    +0.000 C 
ATOM     17  C   UNL     1      -5.172   4.872 126.407  0.00  0.00    +0.000 C 
ENDBRANCH  10  16
ENDBRANCH   3  10
TORSDOF 5
ENDMDL
MODEL 9
REMARK VINA RESULT:      -5.0      2.335      3.388
REMARK  Name = Brivaracetam
REMARK  7 active torsions:
REMARK  status: ('A' for Active; 'I' for Inactive)
REMARK    1  A    between atoms: C_1  and  C_2
REMARK    2  A    between atoms: C_2  and  C_3
REMARK    3  A    between atoms: C_3  and  C_4
REMARK    4  A    between atoms: N_6  and  C_7
REMARK    5  A    between atoms: C_7  and  C_8
REMARK    6  A    between atoms: C_7  and  C_10
REMARK    7  A    between atoms: C_8  and  C_9
REMARK                            x       y       z     vdW  Elec       q    Type
REMARK                         _______ _______ _______ _____ _____    ______ ____
ROOT
ATOM      1  C   UNL     1     -11.820   7.243 130.201  0.00  0.00    +0.000 C 
ATOM      2  C   UNL     1     -11.402   6.442 131.427  0.00  0.00    +0.000 C 
ATOM      3  N   UNL     1     -10.240   5.691 130.974  0.00  0.00    +0.000 N 
ATOM      4  C   UNL     1      -9.762   6.293 129.805  0.00  0.00    +0.000 C 
ATOM      5  O   UNL     1      -8.912   5.932 129.025  0.00  0.00    +0.000 OA
ATOM      6  C   UNL     1     -10.486   7.580 129.586  0.00  0.00    +0.000 C 
ENDROOT
BRANCH   1   7
ATOM      7  C   UNL     1     -12.649   6.385 129.213  0.00  0.00    +0.000 C 
BRANCH   7   9
ATOM      8  C   UNL     1     -12.712   7.039 126.792  0.00  0.00    +0.000 C 
ATOM      9  C   UNL     1     -13.288   7.290 128.167  0.00  0.00    +0.000 C 
ENDBRANCH   7   9
ENDBRANCH   1   7
BRANCH   3  10
ATOM     10  C   UNL     1      -9.710   4.474 131.689  0.00  0.00    +0.000 C 
BRANCH  10  11
ATOM     11  C   UNL     1      -8.172   4.370 132.075  0.00  0.00    +0.000 C 
ATOM     12  N   UNL     1      -7.242   4.190 131.105  0.00  0.00    +0.000 N 
ATOM     13  O   UNL     1      -7.773   4.488 133.237  0.00  0.00    +0.000 OA
ATOM     14  H   UNL     1      -7.516   3.960 130.157  0.00  0.00    +0.000 HD
ATOM     15  H   UNL     1      -6.300   3.905 131.322  0.00  0.00    +0.000 HD
ENDBRANCH  10  11
BRANCH  10  16
ATOM     16  C   UNL     1     -10.073   3.132 130.983  0.00  0.00    +0.000 C 
ATOM     17  C   UNL     1      -9.969   1.858 131.812  0.00  0.00    +0.000 C 
ENDBRANCH  10  16
ENDBRANCH   3  10
TORSDOF 5
ENDMDL
