MODEL 1
REMARK VINA RESULT:      -6.5      0.000      0.000
REMARK  Name = Bromodiphenhydramine
REMARK  8 active torsions:
REMARK  status: ('A' for Active; 'I' for Inactive)
REMARK    1  A    between atoms: C_1  and  N_2
REMARK    2  A    between atoms: N_2  and  C_3
REMARK    3  A    between atoms: N_2  and  C_4
REMARK    4  A    between atoms: C_4  and  C_5
REMARK    5  A    between atoms: C_5  and  O_6
REMARK    6  A    between atoms: O_6  and  C_7
REMARK    7  A    between atoms: C_7  and  C_8
REMARK    8  A    between atoms: C_7  and  C_14
REMARK                            x       y       z     vdW  Elec       q    Type
REMARK                         _______ _______ _______ _____ _____    ______ ____
ROOT
ATOM      1  C   UNL     1      -7.677   3.052 123.067  0.00  0.00    +0.000 C 
ENDROOT
BRANCH   1   2
ATOM      2  C   UNL     1      -8.006   1.562 123.048  0.00  0.00    +0.000 A 
ATOM      3  C   UNL     1      -9.297   1.096 122.765  0.00  0.00    +0.000 A 
ATOM      4  C   UNL     1      -9.692  -0.197 123.069  0.00  0.00    +0.000 A 
ATOM      5  C   UNL     1      -8.720  -1.133 123.359  0.00  0.00    +0.000 A 
ATOM      6 BR   UNL     1      -9.224  -2.945 123.511  0.00  0.00    +0.000 Br
ATOM      7  C   UNL     1      -7.380  -0.753 123.433  0.00  0.00    +0.000 A 
ATOM      8  C   UNL     1      -7.027   0.599 123.316  0.00  0.00    +0.000 A 
ENDBRANCH   1   2
BRANCH   1   9
ATOM      9  C   UNL     1      -6.801   3.560 121.895  0.00  0.00    +0.000 A 
ATOM     10  C   UNL     1      -5.508   4.074 122.080  0.00  0.00    +0.000 A 
ATOM     11  C   UNL     1      -4.842   4.822 121.124  0.00  0.00    +0.000 A 
ATOM     12  C   UNL     1      -5.439   5.034 119.894  0.00  0.00    +0.000 A 
ATOM     13  C   UNL     1      -6.693   4.485 119.638  0.00  0.00    +0.000 A 
ATOM     14  C   UNL     1      -7.373   3.749 120.620  0.00  0.00    +0.000 A 
ENDBRANCH   1   9
BRANCH   1  15
ATOM     15  O   UNL     1      -7.063   3.351 124.339  0.00  0.00    +0.000 OA
BRANCH  15  16
ATOM     16  C   UNL     1      -8.050   3.591 125.346  0.00  0.00    +0.000 C 
BRANCH  16  17
ATOM     17  C   UNL     1      -7.655   3.004 126.697  0.00  0.00    +0.000 C 
BRANCH  17  19
ATOM     18  C   UNL     1      -8.779   0.881 126.639  0.00  0.00    +0.000 C 
ATOM     19  N   UNL     1      -8.745   2.194 127.284  0.00  0.00    +0.000 NA
ATOM     20  C   UNL     1      -8.586   2.016 128.734  0.00  0.00    +0.000 C 
ENDBRANCH  17  19
ENDBRANCH  16  17
ENDBRANCH  15  16
ENDBRANCH   1  15
TORSDOF 6
ENDMDL
MODEL 2
REMARK VINA RESULT:      -6.4      2.795      4.011
REMARK  Name = Bromodiphenhydramine
REMARK  8 active torsions:
REMARK  status: ('A' for Active; 'I' for Inactive)
REMARK    1  A    between atoms: C_1  and  N_2
REMARK    2  A    between atoms: N_2  and  C_3
REMARK    3  A    between atoms: N_2  and  C_4
REMARK    4  A    between atoms: C_4  and  C_5
REMARK    5  A    between atoms: C_5  and  O_6
REMARK    6  A    between atoms: O_6  and  C_7
REMARK    7  A    between atoms: C_7  and  C_8
REMARK    8  A    between atoms: C_7  and  C_14
REMARK                            x       y       z     vdW  Elec       q    Type
REMARK                         _______ _______ _______ _____ _____    ______ ____
ROOT
ATOM      1  C   UNL     1      -7.179   2.882 122.769  0.00  0.00    +0.000 C 
ENDROOT
BRANCH   1   2
ATOM      2  C   UNL     1      -6.586   3.230 124.132  0.00  0.00    +0.000 A 
ATOM      3  C   UNL     1      -6.552   4.548 124.605  0.00  0.00    +0.000 A 
ATOM      4  C   UNL     1      -5.734   4.928 125.658  0.00  0.00    +0.000 A 
ATOM      5  C   UNL     1      -5.188   3.944 126.456  0.00  0.00    +0.000 A 
ATOM      6 BR   UNL     1      -4.298   4.452 128.041  0.00  0.00    +0.000 Br
ATOM      7  C   UNL     1      -5.385   2.598 126.145  0.00  0.00    +0.000 A 
ATOM      8  C   UNL     1      -6.051   2.241 124.964  0.00  0.00    +0.000 A 
ENDBRANCH   1   2
BRANCH   1   9
ATOM      9  C   UNL     1      -6.498   3.553 121.550  0.00  0.00    +0.000 A 
ATOM     10  C   UNL     1      -5.222   4.134 121.618  0.00  0.00    +0.000 A 
ATOM     11  C   UNL     1      -4.733   5.010 120.663  0.00  0.00    +0.000 A 
ATOM     12  C   UNL     1      -5.501   5.293 119.547  0.00  0.00    +0.000 A 
ATOM     13  C   UNL     1      -6.745   4.685 119.402  0.00  0.00    +0.000 A 
ATOM     14  C   UNL     1      -7.245   3.818 120.385  0.00  0.00    +0.000 A 
ENDBRANCH   1   9
BRANCH   1  15
ATOM     15  O   UNL     1      -8.588   3.192 122.810  0.00  0.00    +0.000 OA
BRANCH  15  16
ATOM     16  C   UNL     1      -9.380   2.002 122.808  0.00  0.00    +0.000 C 
BRANCH  16  17
ATOM     17  C   UNL     1      -9.879   1.634 124.202  0.00  0.00    +0.000 C 
BRANCH  17  19
ATOM     18  C   UNL     1      -8.906  -0.422 123.426  0.00  0.00    +0.000 C 
ATOM     19  N   UNL     1      -9.716   0.189 124.480  0.00  0.00    +0.000 NA
ATOM     20  C   UNL     1      -9.083  -0.057 125.782  0.00  0.00    +0.000 C 
ENDBRANCH  17  19
ENDBRANCH  16  17
ENDBRANCH  15  16
ENDBRANCH   1  15
TORSDOF 6
ENDMDL
MODEL 3
REMARK VINA RESULT:      -6.3      0.954      1.669
REMARK  Name = Bromodiphenhydramine
REMARK  8 active torsions:
REMARK  status: ('A' for Active; 'I' for Inactive)
REMARK    1  A    between atoms: C_1  and  N_2
REMARK    2  A    between atoms: N_2  and  C_3
REMARK    3  A    between atoms: N_2  and  C_4
REMARK    4  A    between atoms: C_4  and  C_5
REMARK    5  A    between atoms: C_5  and  O_6
REMARK    6  A    between atoms: O_6  and  C_7
REMARK    7  A    between atoms: C_7  and  C_8
REMARK    8  A    between atoms: C_7  and  C_14
REMARK                            x       y       z     vdW  Elec       q    Type
REMARK                         _______ _______ _______ _____ _____    ______ ____
ROOT
ATOM      1  C   UNL     1      -7.245   3.234 123.109  0.00  0.00    +0.000 C 
ENDROOT
BRANCH   1   2
ATOM      2  C   UNL     1      -7.746   1.802 123.279  0.00  0.00    +0.000 A 
ATOM      3  C   UNL     1      -6.870   0.743 123.553  0.00  0.00    +0.000 A 
ATOM      4  C   UNL     1      -7.242  -0.580 123.378  0.00  0.00    +0.000 A 
ATOM      5  C   UNL     1      -8.583  -0.874 123.238  0.00  0.00    +0.000 A 
ATOM      6 BR   UNL     1      -9.121  -2.683 123.266  0.00  0.00    +0.000 Br
ATOM      7  C   UNL     1      -9.525   0.153 123.183  0.00  0.00    +0.000 A 
ATOM      8  C   UNL     1      -9.104   1.490 123.165  0.00  0.00    +0.000 A 
ENDBRANCH   1   2
BRANCH   1   9
ATOM      9  C   UNL     1      -6.822   3.631 121.672  0.00  0.00    +0.000 A 
ATOM     10  C   UNL     1      -5.549   4.137 121.369  0.00  0.00    +0.000 A 
ATOM     11  C   UNL     1      -5.253   4.794 120.186  0.00  0.00    +0.000 A 
ATOM     12  C   UNL     1      -6.232   4.915 119.216  0.00  0.00    +0.000 A 
ATOM     13  C   UNL     1      -7.492   4.367 119.444  0.00  0.00    +0.000 A 
ATOM     14  C   UNL     1      -7.792   3.725 120.654  0.00  0.00    +0.000 A 
ENDBRANCH   1   9
BRANCH   1  15
ATOM     15  O   UNL     1      -6.162   3.436 124.042  0.00  0.00    +0.000 OA
BRANCH  15  16
ATOM     16  C   UNL     1      -6.399   4.576 124.871  0.00  0.00    +0.000 C 
BRANCH  16  17
ATOM     17  C   UNL     1      -7.725   4.484 125.620  0.00  0.00    +0.000 C 
BRANCH  17  19
ATOM     18  C   UNL     1      -7.878   2.502 126.968  0.00  0.00    +0.000 C 
ATOM     19  N   UNL     1      -7.552   3.928 126.980  0.00  0.00    +0.000 NA
ATOM     20  C   UNL     1      -6.183   4.106 127.482  0.00  0.00    +0.000 C 
ENDBRANCH  17  19
ENDBRANCH  16  17
ENDBRANCH  15  16
ENDBRANCH   1  15
TORSDOF 6
ENDMDL
MODEL 4
REMARK VINA RESULT:      -6.2      2.293      3.052
REMARK  Name = Bromodiphenhydramine
REMARK  8 active torsions:
REMARK  status: ('A' for Active; 'I' for Inactive)
REMARK    1  A    between atoms: C_1  and  N_2
REMARK    2  A    between atoms: N_2  and  C_3
REMARK    3  A    between atoms: N_2  and  C_4
REMARK    4  A    between atoms: C_4  and  C_5
REMARK    5  A    between atoms: C_5  and  O_6
REMARK    6  A    between atoms: O_6  and  C_7
REMARK    7  A    between atoms: C_7  and  C_8
REMARK    8  A    between atoms: C_7  and  C_14
REMARK                            x       y       z     vdW  Elec       q    Type
REMARK                         _______ _______ _______ _____ _____    ______ ____
ROOT
ATOM      1  C   UNL     1      -7.115   2.579 124.132  0.00  0.00    +0.000 C 
ENDROOT
BRANCH   1   2
ATOM      2  C   UNL     1      -7.561   1.120 124.175  0.00  0.00    +0.000 A 
ATOM      3  C   UNL     1      -6.996   0.152 123.333  0.00  0.00    +0.000 A 
ATOM      4  C   UNL     1      -7.603  -1.075 123.117  0.00  0.00    +0.000 A 
ATOM      5  C   UNL     1      -8.603  -1.477 123.978  0.00  0.00    +0.000 A 
ATOM      6 BR   UNL     1      -9.248  -3.246 123.856  0.00  0.00    +0.000 Br
ATOM      7  C   UNL     1      -9.049  -0.620 124.985  0.00  0.00    +0.000 A 
ATOM      8  C   UNL     1      -8.555   0.690 125.060  0.00  0.00    +0.000 A 
ENDBRANCH   1   2
BRANCH   1   9
ATOM      9  C   UNL     1      -7.266   3.286 122.762  0.00  0.00    +0.000 A 
ATOM     10  C   UNL     1      -8.485   3.348 122.070  0.00  0.00    +0.000 A 
ATOM     11  C   UNL     1      -8.582   3.675 120.727  0.00  0.00    +0.000 A 
ATOM     12  C   UNL     1      -7.437   4.020 120.030  0.00  0.00    +0.000 A 
ATOM     13  C   UNL     1      -6.213   4.040 120.693  0.00  0.00    +0.000 A 
ATOM     14  C   UNL     1      -6.118   3.684 122.046  0.00  0.00    +0.000 A 
ENDBRANCH   1   9
BRANCH   1  15
ATOM     15  O   UNL     1      -5.750   2.637 124.596  0.00  0.00    +0.000 OA
BRANCH  15  16
ATOM     16  C   UNL     1      -5.692   2.867 126.006  0.00  0.00    +0.000 C 
BRANCH  16  17
ATOM     17  C   UNL     1      -4.483   2.201 126.655  0.00  0.00    +0.000 C 
BRANCH  17  19
ATOM     18  C   UNL     1      -2.260   3.113 126.647  0.00  0.00    +0.000 C 
ATOM     19  N   UNL     1      -3.577   3.191 127.278  0.00  0.00    +0.000 NA
ATOM     20  C   UNL     1      -4.090   4.563 127.159  0.00  0.00    +0.000 C 
ENDBRANCH  17  19
ENDBRANCH  16  17
ENDBRANCH  15  16
ENDBRANCH   1  15
TORSDOF 6
ENDMDL
MODEL 5
REMARK VINA RESULT:      -6.1      3.738      6.325
REMARK  Name = Bromodiphenhydramine
REMARK  8 active torsions:
REMARK  status: ('A' for Active; 'I' for Inactive)
REMARK    1  A    between atoms: C_1  and  N_2
REMARK    2  A    between atoms: N_2  and  C_3
REMARK    3  A    between atoms: N_2  and  C_4
REMARK    4  A    between atoms: C_4  and  C_5
REMARK    5  A    between atoms: C_5  and  O_6
REMARK    6  A    between atoms: O_6  and  C_7
REMARK    7  A    between atoms: C_7  and  C_8
REMARK    8  A    between atoms: C_7  and  C_14
REMARK                            x       y       z     vdW  Elec       q    Type
REMARK                         _______ _______ _______ _____ _____    ______ ____
ROOT
ATOM      1  C   UNL     1      -8.170  -1.337 126.706  0.00  0.00    +0.000 C 
ENDROOT
BRANCH   1   2
ATOM      2  C   UNL     1      -7.446  -2.190 127.744  0.00  0.00    +0.000 A 
ATOM      3  C   UNL     1      -8.134  -3.098 128.561  0.00  0.00    +0.000 A 
ATOM      4  C   UNL     1      -7.568  -3.620 129.714  0.00  0.00    +0.000 A 
ATOM      5  C   UNL     1      -6.206  -3.497 129.893  0.00  0.00    +0.000 A 
ATOM      6 BR   UNL     1      -5.392  -4.431 131.318  0.00  0.00    +0.000 Br
ATOM      7  C   UNL     1      -5.438  -2.781 128.975  0.00  0.00    +0.000 A 
ATOM      8  C   UNL     1      -6.062  -2.096 127.923  0.00  0.00    +0.000 A 
ENDBRANCH   1   2
BRANCH   1   9
ATOM      9  C   UNL     1      -8.163  -1.891 125.259  0.00  0.00    +0.000 A 
ATOM     10  C   UNL     1      -7.376  -1.337 124.238  0.00  0.00    +0.000 A 
ATOM     11  C   UNL     1      -7.586  -1.591 122.893  0.00  0.00    +0.000 A 
ATOM     12  C   UNL     1      -8.579  -2.480 122.519  0.00  0.00    +0.000 A 
ATOM     13  C   UNL     1      -9.340  -3.108 123.501  0.00  0.00    +0.000 A 
ATOM     14  C   UNL     1      -9.138  -2.828 124.860  0.00  0.00    +0.000 A 
ENDBRANCH   1   9
BRANCH   1  15
ATOM     15  O   UNL     1      -7.604  -0.010 126.754  0.00  0.00    +0.000 OA
BRANCH  15  16
ATOM     16  C   UNL     1      -8.626   0.990 126.724  0.00  0.00    +0.000 C 
BRANCH  16  17
ATOM     17  C   UNL     1      -8.218   2.214 125.911  0.00  0.00    +0.000 C 
BRANCH  17  19
ATOM     18  C   UNL     1      -8.439   2.915 123.623  0.00  0.00    +0.000 C 
ATOM     19  N   UNL     1      -9.173   2.492 124.816  0.00  0.00    +0.000 NA
ATOM     20  C   UNL     1      -9.995   1.319 124.487  0.00  0.00    +0.000 C 
ENDBRANCH  17  19
ENDBRANCH  16  17
ENDBRANCH  15  16
ENDBRANCH   1  15
TORSDOF 6
ENDMDL
MODEL 6
REMARK VINA RESULT:      -6.0      3.602      6.219
REMARK  Name = Bromodiphenhydramine
REMARK  8 active torsions:
REMARK  status: ('A' for Active; 'I' for Inactive)
REMARK    1  A    between atoms: C_1  and  N_2
REMARK    2  A    between atoms: N_2  and  C_3
REMARK    3  A    between atoms: N_2  and  C_4
REMARK    4  A    between atoms: C_4  and  C_5
REMARK    5  A    between atoms: C_5  and  O_6
REMARK    6  A    between atoms: O_6  and  C_7
REMARK    7  A    between atoms: C_7  and  C_8
REMARK    8  A    between atoms: C_7  and  C_14
REMARK                            x       y       z     vdW  Elec       q    Type
REMARK                         _______ _______ _______ _____ _____    ______ ____
ROOT
ATOM      1  C   UNL     1      -8.118  -1.586 125.552  0.00  0.00    +0.000 C 
ENDROOT
BRANCH   1   2
ATOM      2  C   UNL     1      -7.848  -1.992 126.998  0.00  0.00    +0.000 A 
ATOM      3  C   UNL     1      -6.922  -1.307 127.796  0.00  0.00    +0.000 A 
ATOM      4  C   UNL     1      -6.421  -1.850 128.968  0.00  0.00    +0.000 A 
ATOM      5  C   UNL     1      -7.072  -2.932 129.525  0.00  0.00    +0.000 A 
ATOM      6 BR   UNL     1      -6.562  -3.508 131.248  0.00  0.00    +0.000 Br
ATOM      7  C   UNL     1      -8.154  -3.515 128.865  0.00  0.00    +0.000 A 
ATOM      8  C   UNL     1      -8.517  -3.071 127.586  0.00  0.00    +0.000 A 
ENDBRANCH   1   2
BRANCH   1   9
ATOM      9  C   UNL     1      -7.171  -2.206 124.494  0.00  0.00    +0.000 A 
ATOM     10  C   UNL     1      -6.280  -3.249 124.790  0.00  0.00    +0.000 A 
ATOM     11  C   UNL     1      -5.215  -3.594 123.975  0.00  0.00    +0.000 A 
ATOM     12  C   UNL     1      -5.038  -2.930 122.774  0.00  0.00    +0.000 A 
ATOM     13  C   UNL     1      -5.938  -1.934 122.405  0.00  0.00    +0.000 A 
ATOM     14  C   UNL     1      -7.000  -1.572 123.246  0.00  0.00    +0.000 A 
ENDBRANCH   1   9
BRANCH   1  15
ATOM     15  O   UNL     1      -8.092  -0.144 125.488  0.00  0.00    +0.000 OA
BRANCH  15  16
ATOM     16  C   UNL     1      -9.393   0.385 125.222  0.00  0.00    +0.000 C 
BRANCH  16  17
ATOM     17  C   UNL     1      -9.344   1.824 124.718  0.00  0.00    +0.000 C 
BRANCH  17  19
ATOM     18  C   UNL     1      -8.738   2.613 122.530  0.00  0.00    +0.000 C 
ATOM     19  N   UNL     1      -9.773   1.927 123.306  0.00  0.00    +0.000 NA
ATOM     20  C   UNL     1     -10.033   0.611 122.707  0.00  0.00    +0.000 C 
ENDBRANCH  17  19
ENDBRANCH  16  17
ENDBRANCH  15  16
ENDBRANCH   1  15
TORSDOF 6
ENDMDL
MODEL 7
REMARK VINA RESULT:      -6.0      6.709     10.144
REMARK  Name = Bromodiphenhydramine
REMARK  8 active torsions:
REMARK  status: ('A' for Active; 'I' for Inactive)
REMARK    1  A    between atoms: C_1  and  N_2
REMARK    2  A    between atoms: N_2  and  C_3
REMARK    3  A    between atoms: N_2  and  C_4
REMARK    4  A    between atoms: C_4  and  C_5
REMARK    5  A    between atoms: C_5  and  O_6
REMARK    6  A    between atoms: O_6  and  C_7
REMARK    7  A    between atoms: C_7  and  C_8
REMARK    8  A    between atoms: C_7  and  C_14
REMARK                            x       y       z     vdW  Elec       q    Type
REMARK                         _______ _______ _______ _____ _____    ______ ____
ROOT
ATOM      1  C   UNL     1      -9.752   5.270 130.203  0.00  0.00    +0.000 C 
ENDROOT
BRANCH   1   2
ATOM      2  C   UNL     1     -10.747   6.393 129.917  0.00  0.00    +0.000 A 
ATOM      3  C   UNL     1     -10.587   7.258 128.827  0.00  0.00    +0.000 A 
ATOM      4  C   UNL     1     -11.265   8.464 128.742  0.00  0.00    +0.000 A 
ATOM      5  C   UNL     1     -12.345   8.672 129.575  0.00  0.00    +0.000 A 
ATOM      6 BR   UNL     1     -13.433  10.187 129.288  0.00  0.00    +0.000 Br
ATOM      7  C   UNL     1     -12.681   7.722 130.540  0.00  0.00    +0.000 A 
ATOM      8  C   UNL     1     -11.861   6.602 130.736  0.00  0.00    +0.000 A 
ENDBRANCH   1   2
BRANCH   1   9
ATOM      9  C   UNL     1      -9.475   4.986 131.701  0.00  0.00    +0.000 A 
ATOM     10  C   UNL     1      -8.853   5.916 132.548  0.00  0.00    +0.000 A 
ATOM     11  C   UNL     1      -8.306   5.581 133.775  0.00  0.00    +0.000 A 
ATOM     12  C   UNL     1      -8.421   4.281 134.235  0.00  0.00    +0.000 A 
ATOM     13  C   UNL     1      -9.092   3.338 133.460  0.00  0.00    +0.000 A 
ATOM     14  C   UNL     1      -9.621   3.678 132.207  0.00  0.00    +0.000 A 
ENDBRANCH   1   9
BRANCH   1  15
ATOM     15  O   UNL     1      -8.530   5.576 129.500  0.00  0.00    +0.000 OA
BRANCH  15  16
ATOM     16  C   UNL     1      -7.959   4.400 128.920  0.00  0.00    +0.000 C 
BRANCH  16  17
ATOM     17  C   UNL     1      -6.500   4.205 129.318  0.00  0.00    +0.000 C 
BRANCH  17  19
ATOM     18  C   UNL     1      -4.493   5.527 129.314  0.00  0.00    +0.000 C 
ATOM     19  N   UNL     1      -5.589   5.023 128.486  0.00  0.00    +0.000 NA
ATOM     20  C   UNL     1      -5.033   4.262 127.359  0.00  0.00    +0.000 C 
ENDBRANCH  17  19
ENDBRANCH  16  17
ENDBRANCH  15  16
ENDBRANCH   1  15
TORSDOF 6
ENDMDL
MODEL 8
REMARK VINA RESULT:      -5.9      8.244      9.811
REMARK  Name = Bromodiphenhydramine
REMARK  8 active torsions:
REMARK  status: ('A' for Active; 'I' for Inactive)
REMARK    1  A    between atoms: C_1  and  N_2
REMARK    2  A    between atoms: N_2  and  C_3
REMARK    3  A    between atoms: N_2  and  C_4
REMARK    4  A    between atoms: C_4  and  C_5
REMARK    5  A    between atoms: C_5  and  O_6
REMARK    6  A    between atoms: O_6  and  C_7
REMARK    7  A    between atoms: C_7  and  C_8
REMARK    8  A    between atoms: C_7  and  C_14
REMARK                            x       y       z     vdW  Elec       q    Type
REMARK                         _______ _______ _______ _____ _____    ______ ____
ROOT
ATOM      1  C   UNL     1      -9.082   5.698 131.770  0.00  0.00    +0.000 C 
ENDROOT
BRANCH   1   2
ATOM      2  C   UNL     1      -7.726   5.836 131.084  0.00  0.00    +0.000 A 
ATOM      3  C   UNL     1      -7.218   4.834 130.246  0.00  0.00    +0.000 A 
ATOM      4  C   UNL     1      -5.879   4.783 129.893  0.00  0.00    +0.000 A 
ATOM      5  C   UNL     1      -5.098   5.901 130.105  0.00  0.00    +0.000 A 
ATOM      6 BR   UNL     1      -3.352   5.935 129.389  0.00  0.00    +0.000 Br
ATOM      7  C   UNL     1      -5.633   7.020 130.744  0.00  0.00    +0.000 A 
ATOM      8  C   UNL     1      -6.932   6.974 131.267  0.00  0.00    +0.000 A 
ENDBRANCH   1   2
BRANCH   1   9
ATOM      9  C   UNL     1     -10.273   6.373 131.044  0.00  0.00    +0.000 A 
ATOM     10  C   UNL     1     -10.119   7.117 129.865  0.00  0.00    +0.000 A 
ATOM     11  C   UNL     1     -11.083   7.987 129.382  0.00  0.00    +0.000 A 
ATOM     12  C   UNL     1     -12.290   8.097 130.050  0.00  0.00    +0.000 A 
ATOM     13  C   UNL     1     -12.515   7.326 131.188  0.00  0.00    +0.000 A 
ATOM     14  C   UNL     1     -11.525   6.466 131.685  0.00  0.00    +0.000 A 
ENDBRANCH   1   9
BRANCH   1  15
ATOM     15  O   UNL     1      -8.947   6.197 133.118  0.00  0.00    +0.000 OA
BRANCH  15  16
ATOM     16  C   UNL     1      -8.445   5.187 133.996  0.00  0.00    +0.000 C 
BRANCH  16  17
ATOM     17  C   UNL     1      -9.194   3.866 133.850  0.00  0.00    +0.000 C 
BRANCH  17  19
ATOM     18  C   UNL     1      -8.614   1.938 132.539  0.00  0.00    +0.000 C 
ATOM     19  N   UNL     1      -8.266   2.720 133.725  0.00  0.00    +0.000 NA
ATOM     20  C   UNL     1      -6.864   3.148 133.628  0.00  0.00    +0.000 C 
ENDBRANCH  17  19
ENDBRANCH  16  17
ENDBRANCH  15  16
ENDBRANCH   1  15
TORSDOF 6
ENDMDL
MODEL 9
REMARK VINA RESULT:      -5.9      6.070      9.043
REMARK  Name = Bromodiphenhydramine
REMARK  8 active torsions:
REMARK  status: ('A' for Active; 'I' for Inactive)
REMARK    1  A    between atoms: C_1  and  N_2
REMARK    2  A    between atoms: N_2  and  C_3
REMARK    3  A    between atoms: N_2  and  C_4
REMARK    4  A    between atoms: C_4  and  C_5
REMARK    5  A    between atoms: C_5  and  O_6
REMARK    6  A    between atoms: O_6  and  C_7
REMARK    7  A    between atoms: C_7  and  C_8
REMARK    8  A    between atoms: C_7  and  C_14
REMARK                            x       y       z     vdW  Elec       q    Type
REMARK                         _______ _______ _______ _____ _____    ______ ____
ROOT
ATOM      1  C   UNL     1      -7.144  -2.117 129.949  0.00  0.00    +0.000 C 
ENDROOT
BRANCH   1   2
ATOM      2  C   UNL     1      -7.548  -2.544 128.541  0.00  0.00    +0.000 A 
ATOM      3  C   UNL     1      -6.861  -2.090 127.407  0.00  0.00    +0.000 A 
ATOM      4  C   UNL     1      -7.402  -2.186 126.135  0.00  0.00    +0.000 A 
ATOM      5  C   UNL     1      -8.483  -3.021 125.940  0.00  0.00    +0.000 A 
ATOM      6 BR   UNL     1      -9.057  -3.363 124.175  0.00  0.00    +0.000 Br
ATOM      7  C   UNL     1      -9.068  -3.676 127.023  0.00  0.00    +0.000 A 
ATOM      8  C   UNL     1      -8.626  -3.409 128.326  0.00  0.00    +0.000 A 
ENDBRANCH   1   2
BRANCH   1   9
ATOM      9  C   UNL     1      -6.761  -3.266 130.915  0.00  0.00    +0.000 A 
ATOM     10  C   UNL     1      -6.988  -3.202 132.299  0.00  0.00    +0.000 A 
ATOM     11  C   UNL     1      -6.376  -4.047 133.210  0.00  0.00    +0.000 A 
ATOM     12  C   UNL     1      -5.542  -5.050 132.749  0.00  0.00    +0.000 A 
ATOM     13  C   UNL     1      -5.341  -5.196 131.379  0.00  0.00    +0.000 A 
ATOM     14  C   UNL     1      -5.944  -4.322 130.463  0.00  0.00    +0.000 A 
ENDBRANCH   1   9
BRANCH   1  15
ATOM     15  O   UNL     1      -8.218  -1.320 130.493  0.00  0.00    +0.000 OA
BRANCH  15  16
ATOM     16  C   UNL     1      -7.980   0.075 130.293  0.00  0.00    +0.000 C 
BRANCH  16  17
ATOM     17  C   UNL     1      -7.380   0.745 131.525  0.00  0.00    +0.000 C 
BRANCH  17  19
ATOM     18  C   UNL     1      -9.602   1.553 131.955  0.00  0.00    +0.000 C 
ATOM     19  N   UNL     1      -8.183   1.909 131.963  0.00  0.00    +0.000 NA
ATOM     20  C   UNL     1      -7.807   2.367 133.307  0.00  0.00    +0.000 C 
ENDBRANCH  17  19
ENDBRANCH  16  17
ENDBRANCH  15  16
ENDBRANCH   1  15
TORSDOF 6
ENDMDL
