MODEL 1
REMARK VINA RESULT:      -6.2      0.000      0.000
REMARK  Name = Brompheniramine
REMARK  7 active torsions:
REMARK  status: ('A' for Active; 'I' for Inactive)
REMARK    1  A    between atoms: C_1  and  N_2
REMARK    2  A    between atoms: N_2  and  C_3
REMARK    3  A    between atoms: N_2  and  C_4
REMARK    4  A    between atoms: C_4  and  C_5
REMARK    5  A    between atoms: C_5  and  C_6
REMARK    6  A    between atoms: C_6  and  C_7
REMARK    7  A    between atoms: C_6  and  C_14
REMARK                            x       y       z     vdW  Elec       q    Type
REMARK                         _______ _______ _______ _____ _____    ______ ____
ROOT
ATOM      1  C   UNL     1      -6.942   2.699 123.733  0.00  0.00    +0.000 C 
ENDROOT
BRANCH   1   2
ATOM      2  C   UNL     1      -7.475   1.288 123.962  0.00  0.00    +0.000 A 
ATOM      3  C   UNL     1      -6.950   0.211 123.237  0.00  0.00    +0.000 A 
ATOM      4  C   UNL     1      -7.458  -1.073 123.434  0.00  0.00    +0.000 A 
ATOM      5  C   UNL     1      -8.484  -1.284 124.354  0.00  0.00    +0.000 A 
ATOM      6 BR   UNL     1      -9.172  -3.022 124.617  0.00  0.00    +0.000 Br
ATOM      7  C   UNL     1      -9.020  -0.224 125.077  0.00  0.00    +0.000 A 
ATOM      8  C   UNL     1      -8.524   1.057 124.871  0.00  0.00    +0.000 A 
ENDBRANCH   1   2
BRANCH   1   9
ATOM      9  C   UNL     1      -7.200   3.194 122.312  0.00  0.00    +0.000 A 
ATOM     10  C   UNL     1      -6.131   3.526 121.479  0.00  0.00    +0.000 A 
ATOM     11  C   UNL     1      -6.408   4.016 120.204  0.00  0.00    +0.000 A 
ATOM     12  C   UNL     1      -7.727   4.150 119.792  0.00  0.00    +0.000 A 
ATOM     13  C   UNL     1      -8.728   3.797 120.675  0.00  0.00    +0.000 A 
ATOM     14  N   UNL     1      -8.486   3.341 121.917  0.00  0.00    +0.000 NA
ENDBRANCH   1   9
BRANCH   1  15
ATOM     15  C   UNL     1      -7.520   3.701 124.749  0.00  0.00    +0.000 C 
BRANCH  15  16
ATOM     16  C   UNL     1      -6.552   4.858 125.033  0.00  0.00    +0.000 C 
BRANCH  16  18
ATOM     17  C   UNL     1      -6.868   3.957 127.231  0.00  0.00    +0.000 C 
ATOM     18  N   UNL     1      -6.017   4.814 126.403  0.00  0.00    +0.000 NA
ATOM     19  C   UNL     1      -4.639   4.330 126.433  0.00  0.00    +0.000 C 
ENDBRANCH  16  18
ENDBRANCH  15  16
ENDBRANCH   1  15
TORSDOF 5
ENDMDL
MODEL 2
REMARK VINA RESULT:      -6.2      7.908      9.763
REMARK  Name = Brompheniramine
REMARK  7 active torsions:
REMARK  status: ('A' for Active; 'I' for Inactive)
REMARK    1  A    between atoms: C_1  and  N_2
REMARK    2  A    between atoms: N_2  and  C_3
REMARK    3  A    between atoms: N_2  and  C_4
REMARK    4  A    between atoms: C_4  and  C_5
REMARK    5  A    between atoms: C_5  and  C_6
REMARK    6  A    between atoms: C_6  and  C_7
REMARK    7  A    between atoms: C_6  and  C_14
REMARK                            x       y       z     vdW  Elec       q    Type
REMARK                         _______ _______ _______ _____ _____    ______ ____
ROOT
ATOM      1  C   UNL     1      -8.977   6.334 131.697  0.00  0.00    +0.000 C 
ENDROOT
BRANCH   1   2
ATOM      2  C   UNL     1     -10.090   6.894 130.818  0.00  0.00    +0.000 A 
ATOM      3  C   UNL     1      -9.777   7.566 129.630  0.00  0.00    +0.000 A 
ATOM      4  C   UNL     1     -10.798   8.098 128.842  0.00  0.00    +0.000 A 
ATOM      5  C   UNL     1     -12.129   7.956 129.236  0.00  0.00    +0.000 A 
ATOM      6 BR   UNL     1     -13.509   8.678 128.169  0.00  0.00    +0.000 Br
ATOM      7  C   UNL     1     -12.454   7.296 130.415  0.00  0.00    +0.000 A 
ATOM      8  C   UNL     1     -11.437   6.780 131.207  0.00  0.00    +0.000 A 
ENDBRANCH   1   2
BRANCH   1   9
ATOM      9  C   UNL     1      -9.116   4.831 131.924  0.00  0.00    +0.000 A 
ATOM     10  C   UNL     1      -9.205   4.321 133.219  0.00  0.00    +0.000 A 
ATOM     11  C   UNL     1      -9.288   2.940 133.388  0.00  0.00    +0.000 A 
ATOM     12  C   UNL     1      -9.291   2.112 132.273  0.00  0.00    +0.000 A 
ATOM     13  C   UNL     1      -9.203   2.694 131.024  0.00  0.00    +0.000 A 
ATOM     14  N   UNL     1      -9.102   4.023 130.838  0.00  0.00    +0.000 NA
ENDBRANCH   1   9
BRANCH   1  15
ATOM     15  C   UNL     1      -7.582   6.649 131.126  0.00  0.00    +0.000 C 
BRANCH  15  16
ATOM     16  C   UNL     1      -6.458   6.229 132.083  0.00  0.00    +0.000 C 
BRANCH  16  18
ATOM     17  C   UNL     1      -5.552   4.010 132.115  0.00  0.00    +0.000 C 
ATOM     18  N   UNL     1      -5.497   5.314 131.449  0.00  0.00    +0.000 NA
ATOM     19  C   UNL     1      -5.757   5.157 130.020  0.00  0.00    +0.000 C 
ENDBRANCH  16  18
ENDBRANCH  15  16
ENDBRANCH   1  15
TORSDOF 5
ENDMDL
MODEL 3
REMARK VINA RESULT:      -6.2      2.812      4.921
REMARK  Name = Brompheniramine
REMARK  7 active torsions:
REMARK  status: ('A' for Active; 'I' for Inactive)
REMARK    1  A    between atoms: C_1  and  N_2
REMARK    2  A    between atoms: N_2  and  C_3
REMARK    3  A    between atoms: N_2  and  C_4
REMARK    4  A    between atoms: C_4  and  C_5
REMARK    5  A    between atoms: C_5  and  C_6
REMARK    6  A    between atoms: C_6  and  C_7
REMARK    7  A    between atoms: C_6  and  C_14
REMARK                            x       y       z     vdW  Elec       q    Type
REMARK                         _______ _______ _______ _____ _____    ______ ____
ROOT
ATOM      1  C   UNL     1      -7.650   2.473 123.765  0.00  0.00    +0.000 C 
ENDROOT
BRANCH   1   2
ATOM      2  C   UNL     1      -6.598   3.050 124.707  0.00  0.00    +0.000 A 
ATOM      3  C   UNL     1      -6.532   4.431 124.928  0.00  0.00    +0.000 A 
ATOM      4  C   UNL     1      -5.553   4.955 125.772  0.00  0.00    +0.000 A 
ATOM      5  C   UNL     1      -4.643   4.102 126.397  0.00  0.00    +0.000 A 
ATOM      6 BR   UNL     1      -3.316   4.813 127.536  0.00  0.00    +0.000 Br
ATOM      7  C   UNL     1      -4.691   2.730 126.182  0.00  0.00    +0.000 A 
ATOM      8  C   UNL     1      -5.658   2.210 125.332  0.00  0.00    +0.000 A 
ENDBRANCH   1   2
BRANCH   1   9
ATOM      9  C   UNL     1      -7.538   3.038 122.352  0.00  0.00    +0.000 A 
ATOM     10  C   UNL     1      -6.287   3.212 121.761  0.00  0.00    +0.000 A 
ATOM     11  C   UNL     1      -6.224   3.771 120.486  0.00  0.00    +0.000 A 
ATOM     12  C   UNL     1      -7.397   4.128 119.834  0.00  0.00    +0.000 A 
ATOM     13  C   UNL     1      -8.597   3.921 120.485  0.00  0.00    +0.000 A 
ATOM     14  N   UNL     1      -8.681   3.401 121.724  0.00  0.00    +0.000 NA
ENDBRANCH   1   9
BRANCH   1  15
ATOM     15  C   UNL     1      -7.596   0.935 123.718  0.00  0.00    +0.000 C 
BRANCH  15  16
ATOM     16  C   UNL     1      -8.809   0.293 124.406  0.00  0.00    +0.000 C 
BRANCH  16  18
ATOM     17  C   UNL     1     -10.180   0.194 122.443  0.00  0.00    +0.000 C 
ATOM     18  N   UNL     1      -9.555  -0.599 123.505  0.00  0.00    +0.000 NA
ATOM     19  C   UNL     1      -8.695  -1.626 122.922  0.00  0.00    +0.000 C 
ENDBRANCH  16  18
ENDBRANCH  15  16
ENDBRANCH   1  15
TORSDOF 5
ENDMDL
MODEL 4
REMARK VINA RESULT:      -6.1      2.967      5.063
REMARK  Name = Brompheniramine
REMARK  7 active torsions:
REMARK  status: ('A' for Active; 'I' for Inactive)
REMARK    1  A    between atoms: C_1  and  N_2
REMARK    2  A    between atoms: N_2  and  C_3
REMARK    3  A    between atoms: N_2  and  C_4
REMARK    4  A    between atoms: C_4  and  C_5
REMARK    5  A    between atoms: C_5  and  C_6
REMARK    6  A    between atoms: C_6  and  C_7
REMARK    7  A    between atoms: C_6  and  C_14
REMARK                            x       y       z     vdW  Elec       q    Type
REMARK                         _______ _______ _______ _____ _____    ______ ____
ROOT
ATOM      1  C   UNL     1      -8.068   2.020 123.639  0.00  0.00    +0.000 C 
ENDROOT
BRANCH   1   2
ATOM      2  C   UNL     1      -7.645   2.786 122.390  0.00  0.00    +0.000 A 
ATOM      3  C   UNL     1      -6.291   3.058 122.155  0.00  0.00    +0.000 A 
ATOM      4  C   UNL     1      -5.913   3.779 121.022  0.00  0.00    +0.000 A 
ATOM      5  C   UNL     1      -6.882   4.225 120.124  0.00  0.00    +0.000 A 
ATOM      6 BR   UNL     1      -6.368   5.203 118.593  0.00  0.00    +0.000 Br
ATOM      7  C   UNL     1      -8.230   3.968 120.346  0.00  0.00    +0.000 A 
ATOM      8  C   UNL     1      -8.608   3.262 121.481  0.00  0.00    +0.000 A 
ENDBRANCH   1   2
BRANCH   1   9
ATOM      9  C   UNL     1      -8.065   0.509 123.425  0.00  0.00    +0.000 A 
ATOM     10  C   UNL     1      -9.245  -0.155 123.087  0.00  0.00    +0.000 A 
ATOM     11  C   UNL     1      -9.212  -1.540 122.942  0.00  0.00    +0.000 A 
ATOM     12  C   UNL     1      -8.015  -2.220 123.122  0.00  0.00    +0.000 A 
ATOM     13  C   UNL     1      -6.890  -1.490 123.452  0.00  0.00    +0.000 A 
ATOM     14  N   UNL     1      -6.902  -0.155 123.617  0.00  0.00    +0.000 NA
ENDBRANCH   1   9
BRANCH   1  15
ATOM     15  C   UNL     1      -7.190   2.377 124.854  0.00  0.00    +0.000 C 
BRANCH  15  16
ATOM     16  C   UNL     1      -7.993   2.390 126.162  0.00  0.00    +0.000 C 
BRANCH  16  18
ATOM     17  C   UNL     1      -7.786   3.973 127.949  0.00  0.00    +0.000 C 
ATOM     18  N   UNL     1      -8.321   3.754 126.603  0.00  0.00    +0.000 NA
ATOM     19  C   UNL     1      -7.795   4.763 125.686  0.00  0.00    +0.000 C 
ENDBRANCH  16  18
ENDBRANCH  15  16
ENDBRANCH   1  15
TORSDOF 5
ENDMDL
MODEL 5
REMARK VINA RESULT:      -5.9      6.517      9.207
REMARK  Name = Brompheniramine
REMARK  7 active torsions:
REMARK  status: ('A' for Active; 'I' for Inactive)
REMARK    1  A    between atoms: C_1  and  N_2
REMARK    2  A    between atoms: N_2  and  C_3
REMARK    3  A    between atoms: N_2  and  C_4
REMARK    4  A    between atoms: C_4  and  C_5
REMARK    5  A    between atoms: C_5  and  C_6
REMARK    6  A    between atoms: C_6  and  C_7
REMARK    7  A    between atoms: C_6  and  C_14
REMARK                            x       y       z     vdW  Elec       q    Type
REMARK                         _______ _______ _______ _____ _____    ______ ____
ROOT
ATOM      1  C   UNL     1      -7.839  -2.224 130.540  0.00  0.00    +0.000 C 
ENDROOT
BRANCH   1   2
ATOM      2  C   UNL     1      -8.010  -2.517 129.053  0.00  0.00    +0.000 A 
ATOM      3  C   UNL     1      -8.804  -3.591 128.634  0.00  0.00    +0.000 A 
ATOM      4  C   UNL     1      -8.938  -3.869 127.274  0.00  0.00    +0.000 A 
ATOM      5  C   UNL     1      -8.284  -3.075 126.332  0.00  0.00    +0.000 A 
ATOM      6 BR   UNL     1      -8.463  -3.454 124.492  0.00  0.00    +0.000 Br
ATOM      7  C   UNL     1      -7.487  -2.008 126.733  0.00  0.00    +0.000 A 
ATOM      8  C   UNL     1      -7.343  -1.741 128.088  0.00  0.00    +0.000 A 
ENDBRANCH   1   2
BRANCH   1   9
ATOM      9  C   UNL     1      -6.923  -3.232 131.230  0.00  0.00    +0.000 A 
ATOM     10  C   UNL     1      -6.143  -4.107 130.473  0.00  0.00    +0.000 A 
ATOM     11  C   UNL     1      -5.353  -5.041 131.140  0.00  0.00    +0.000 A 
ATOM     12  C   UNL     1      -5.351  -5.072 132.528  0.00  0.00    +0.000 A 
ATOM     13  C   UNL     1      -6.148  -4.171 133.205  0.00  0.00    +0.000 A 
ATOM     14  N   UNL     1      -6.934  -3.273 132.583  0.00  0.00    +0.000 NA
ENDBRANCH   1   9
BRANCH   1  15
ATOM     15  C   UNL     1      -7.322  -0.795 130.786  0.00  0.00    +0.000 C 
BRANCH  15  16
ATOM     16  C   UNL     1      -8.401   0.112 131.395  0.00  0.00    +0.000 C 
BRANCH  16  18
ATOM     17  C   UNL     1      -6.580   0.388 132.929  0.00  0.00    +0.000 C 
ATOM     18  N   UNL     1      -8.005   0.648 132.707  0.00  0.00    +0.000 NA
ATOM     19  C   UNL     1      -8.274   2.080 132.813  0.00  0.00    +0.000 C 
ENDBRANCH  16  18
ENDBRANCH  15  16
ENDBRANCH   1  15
TORSDOF 5
ENDMDL
MODEL 6
REMARK VINA RESULT:      -5.8      7.887      9.908
REMARK  Name = Brompheniramine
REMARK  7 active torsions:
REMARK  status: ('A' for Active; 'I' for Inactive)
REMARK    1  A    between atoms: C_1  and  N_2
REMARK    2  A    between atoms: N_2  and  C_3
REMARK    3  A    between atoms: N_2  and  C_4
REMARK    4  A    between atoms: C_4  and  C_5
REMARK    5  A    between atoms: C_5  and  C_6
REMARK    6  A    between atoms: C_6  and  C_7
REMARK    7  A    between atoms: C_6  and  C_14
REMARK                            x       y       z     vdW  Elec       q    Type
REMARK                         _______ _______ _______ _____ _____    ______ ____
ROOT
ATOM      1  C   UNL     1      -9.371   5.354 131.484  0.00  0.00    +0.000 C 
ENDROOT
BRANCH   1   2
ATOM      2  C   UNL     1     -10.312   6.370 130.846  0.00  0.00    +0.000 A 
ATOM      3  C   UNL     1     -11.579   6.599 131.397  0.00  0.00    +0.000 A 
ATOM      4  C   UNL     1     -12.445   7.512 130.794  0.00  0.00    +0.000 A 
ATOM      5  C   UNL     1     -12.047   8.199 129.647  0.00  0.00    +0.000 A 
ATOM      6 BR   UNL     1     -13.221   9.432 128.832  0.00  0.00    +0.000 Br
ATOM      7  C   UNL     1     -10.794   7.977 129.085  0.00  0.00    +0.000 A 
ATOM      8  C   UNL     1      -9.938   7.058 129.677  0.00  0.00    +0.000 A 
ENDBRANCH   1   2
BRANCH   1   9
ATOM      9  C   UNL     1      -7.918   5.567 131.070  0.00  0.00    +0.000 A 
ATOM     10  C   UNL     1      -7.207   6.672 131.540  0.00  0.00    +0.000 A 
ATOM     11  C   UNL     1      -5.896   6.855 131.106  0.00  0.00    +0.000 A 
ATOM     12  C   UNL     1      -5.328   5.937 130.233  0.00  0.00    +0.000 A 
ATOM     13  C   UNL     1      -6.095   4.867 129.817  0.00  0.00    +0.000 A 
ATOM     14  N   UNL     1      -7.369   4.680 130.207  0.00  0.00    +0.000 NA
ENDBRANCH   1   9
BRANCH   1  15
ATOM     15  C   UNL     1      -9.483   5.356 133.020  0.00  0.00    +0.000 C 
BRANCH  15  16
ATOM     16  C   UNL     1      -9.187   3.975 133.622  0.00  0.00    +0.000 C 
BRANCH  16  18
ATOM     17  C   UNL     1      -6.873   3.435 133.932  0.00  0.00    +0.000 C 
ATOM     18  N   UNL     1      -8.061   4.008 134.568  0.00  0.00    +0.000 NA
ATOM     19  C   UNL     1      -7.777   5.365 135.029  0.00  0.00    +0.000 C 
ENDBRANCH  16  18
ENDBRANCH  15  16
ENDBRANCH   1  15
TORSDOF 5
ENDMDL
MODEL 7
REMARK VINA RESULT:      -5.8      4.082      5.887
REMARK  Name = Brompheniramine
REMARK  7 active torsions:
REMARK  status: ('A' for Active; 'I' for Inactive)
REMARK    1  A    between atoms: C_1  and  N_2
REMARK    2  A    between atoms: N_2  and  C_3
REMARK    3  A    between atoms: N_2  and  C_4
REMARK    4  A    between atoms: C_4  and  C_5
REMARK    5  A    between atoms: C_5  and  C_6
REMARK    6  A    between atoms: C_6  and  C_7
REMARK    7  A    between atoms: C_6  and  C_14
REMARK                            x       y       z     vdW  Elec       q    Type
REMARK                         _______ _______ _______ _____ _____    ______ ____
ROOT
ATOM      1  C   UNL     1      -6.841  -0.892 126.519  0.00  0.00    +0.000 C 
ENDROOT
BRANCH   1   2
ATOM      2  C   UNL     1      -6.509  -1.853 127.656  0.00  0.00    +0.000 A 
ATOM      3  C   UNL     1      -7.511  -2.653 128.217  0.00  0.00    +0.000 A 
ATOM      4  C   UNL     1      -7.206  -3.513 129.273  0.00  0.00    +0.000 A 
ATOM      5  C   UNL     1      -5.902  -3.577 129.765  0.00  0.00    +0.000 A 
ATOM      6 BR   UNL     1      -5.492  -4.738 131.196  0.00  0.00    +0.000 Br
ATOM      7  C   UNL     1      -4.898  -2.784 129.222  0.00  0.00    +0.000 A 
ATOM      8  C   UNL     1      -5.205  -1.918 128.181  0.00  0.00    +0.000 A 
ENDBRANCH   1   2
BRANCH   1   9
ATOM      9  C   UNL     1      -6.474  -1.460 125.151  0.00  0.00    +0.000 A 
ATOM     10  C   UNL     1      -5.669  -2.596 125.054  0.00  0.00    +0.000 A 
ATOM     11  C   UNL     1      -5.320  -3.059 123.787  0.00  0.00    +0.000 A 
ATOM     12  C   UNL     1      -5.787  -2.394 122.661  0.00  0.00    +0.000 A 
ATOM     13  C   UNL     1      -6.582  -1.279 122.841  0.00  0.00    +0.000 A 
ATOM     14  N   UNL     1      -6.915  -0.802 124.054  0.00  0.00    +0.000 NA
ENDBRANCH   1   9
BRANCH   1  15
ATOM     15  C   UNL     1      -8.325  -0.480 126.533  0.00  0.00    +0.000 C 
BRANCH  15  16
ATOM     16  C   UNL     1      -8.517   0.970 126.997  0.00  0.00    +0.000 C 
BRANCH  16  18
ATOM     17  C   UNL     1      -7.883   2.500 125.265  0.00  0.00    +0.000 C 
ATOM     18  N   UNL     1      -9.015   1.840 125.919  0.00  0.00    +0.000 NA
ATOM     19  C   UNL     1      -9.796   1.094 124.935  0.00  0.00    +0.000 C 
ENDBRANCH  16  18
ENDBRANCH  15  16
ENDBRANCH   1  15
TORSDOF 5
ENDMDL
MODEL 8
REMARK VINA RESULT:      -5.7      7.611      9.272
REMARK  Name = Brompheniramine
REMARK  7 active torsions:
REMARK  status: ('A' for Active; 'I' for Inactive)
REMARK    1  A    between atoms: C_1  and  N_2
REMARK    2  A    between atoms: N_2  and  C_3
REMARK    3  A    between atoms: N_2  and  C_4
REMARK    4  A    between atoms: C_4  and  C_5
REMARK    5  A    between atoms: C_5  and  C_6
REMARK    6  A    between atoms: C_6  and  C_7
REMARK    7  A    between atoms: C_6  and  C_14
REMARK                            x       y       z     vdW  Elec       q    Type
REMARK                         _______ _______ _______ _____ _____    ______ ____
ROOT
ATOM      1  C   UNL     1      -9.061   6.095 131.660  0.00  0.00    +0.000 C 
ENDROOT
BRANCH   1   2
ATOM      2  C   UNL     1      -7.672   5.943 131.048  0.00  0.00    +0.000 A 
ATOM      3  C   UNL     1      -7.381   4.846 130.227  0.00  0.00    +0.000 A 
ATOM      4  C   UNL     1      -6.102   4.700 129.689  0.00  0.00    +0.000 A 
ATOM      5  C   UNL     1      -5.117   5.648 129.965  0.00  0.00    +0.000 A 
ATOM      6 BR   UNL     1      -3.386   5.447 129.239  0.00  0.00    +0.000 Br
ATOM      7  C   UNL     1      -5.389   6.739 130.783  0.00  0.00    +0.000 A 
ATOM      8  C   UNL     1      -6.658   6.877 131.330  0.00  0.00    +0.000 A 
ENDBRANCH   1   2
BRANCH   1   9
ATOM      9  C   UNL     1     -10.020   6.852 130.746  0.00  0.00    +0.000 A 
ATOM     10  C   UNL     1     -11.393   6.830 130.995  0.00  0.00    +0.000 A 
ATOM     11  C   UNL     1     -12.241   7.497 130.113  0.00  0.00    +0.000 A 
ATOM     12  C   UNL     1     -11.705   8.172 129.025  0.00  0.00    +0.000 A 
ATOM     13  C   UNL     1     -10.335   8.150 128.850  0.00  0.00    +0.000 A 
ATOM     14  N   UNL     1      -9.499   7.496 129.676  0.00  0.00    +0.000 NA
ENDBRANCH   1   9
BRANCH   1  15
ATOM     15  C   UNL     1      -9.669   4.733 132.045  0.00  0.00    +0.000 C 
BRANCH  15  16
ATOM     16  C   UNL     1      -9.201   4.262 133.429  0.00  0.00    +0.000 C 
BRANCH  16  18
ATOM     17  C   UNL     1      -9.621   2.172 132.335  0.00  0.00    +0.000 C 
ATOM     18  N   UNL     1      -8.953   2.813 133.471  0.00  0.00    +0.000 NA
ATOM     19  C   UNL     1      -7.525   2.504 133.450  0.00  0.00    +0.000 C 
ENDBRANCH  16  18
ENDBRANCH  15  16
ENDBRANCH   1  15
TORSDOF 5
ENDMDL
MODEL 9
REMARK VINA RESULT:      -5.6      6.239      9.968
REMARK  Name = Brompheniramine
REMARK  7 active torsions:
REMARK  status: ('A' for Active; 'I' for Inactive)
REMARK    1  A    between atoms: C_1  and  N_2
REMARK    2  A    between atoms: N_2  and  C_3
REMARK    3  A    between atoms: N_2  and  C_4
REMARK    4  A    between atoms: C_4  and  C_5
REMARK    5  A    between atoms: C_5  and  C_6
REMARK    6  A    between atoms: C_6  and  C_7
REMARK    7  A    between atoms: C_6  and  C_14
REMARK                            x       y       z     vdW  Elec       q    Type
REMARK                         _______ _______ _______ _____ _____    ______ ____
ROOT
ATOM      1  C   UNL     1      -9.137   4.821 130.563  0.00  0.00    +0.000 C 
ENDROOT
BRANCH   1   2
ATOM      2  C   UNL     1     -10.107   5.957 130.254  0.00  0.00    +0.000 A 
ATOM      3  C   UNL     1      -9.807   6.887 129.251  0.00  0.00    +0.000 A 
ATOM      4  C   UNL     1     -10.686   7.937 128.990  0.00  0.00    +0.000 A 
ATOM      5  C   UNL     1     -11.866   8.059 129.724  0.00  0.00    +0.000 A 
ATOM      6 BR   UNL     1     -13.054   9.483 129.371  0.00  0.00    +0.000 Br
ATOM      7  C   UNL     1     -12.175   7.147 130.728  0.00  0.00    +0.000 A 
ATOM      8  C   UNL     1     -11.293   6.109 130.997  0.00  0.00    +0.000 A 
ENDBRANCH   1   2
BRANCH   1   9
ATOM      9  C   UNL     1      -8.769   4.757 132.043  0.00  0.00    +0.000 A 
ATOM     10  C   UNL     1      -9.230   3.706 132.837  0.00  0.00    +0.000 A 
ATOM     11  C   UNL     1      -8.908   3.705 134.193  0.00  0.00    +0.000 A 
ATOM     12  C   UNL     1      -8.135   4.732 134.715  0.00  0.00    +0.000 A 
ATOM     13  C   UNL     1      -7.714   5.734 133.863  0.00  0.00    +0.000 A 
ATOM     14  N   UNL     1      -8.029   5.767 132.555  0.00  0.00    +0.000 NA
ENDBRANCH   1   9
BRANCH   1  15
ATOM     15  C   UNL     1      -9.686   3.458 130.101  0.00  0.00    +0.000 C 
BRANCH  15  16
ATOM     16  C   UNL     1      -8.612   2.611 129.404  0.00  0.00    +0.000 C 
BRANCH  16  18
ATOM     17  C   UNL     1      -7.672   3.563 127.415  0.00  0.00    +0.000 C 
ATOM     18  N   UNL     1      -8.714   2.675 127.938  0.00  0.00    +0.000 NA
ATOM     19  C   UNL     1      -8.599   1.354 127.326  0.00  0.00    +0.000 C 
ENDBRANCH  16  18
ENDBRANCH  15  16
ENDBRANCH   1  15
TORSDOF 5
ENDMDL
