MODEL 1
REMARK VINA RESULT:     -10.7      0.000      0.000
REMARK  Name = Bromocriptine
REMARK  11 active torsions:
REMARK  status: ('A' for Active; 'I' for Inactive)
REMARK    1  A    between atoms: C_9  and  C_10
REMARK    2  A    between atoms: C_10  and  C_11
REMARK    3  A    between atoms: C_11  and  C_12
REMARK    4  A    between atoms: C_11  and  C_13
REMARK    5  A    between atoms: C_17  and  N_18
REMARK    6  A    between atoms: C_17  and  C_43
REMARK    7  A    between atoms: C_19  and  C_21
REMARK    8  A    between atoms: N_23  and  C_24
REMARK    9  A    between atoms: C_41  and  O_42
REMARK   10  A    between atoms: C_43  and  C_44
REMARK   11  A    between atoms: C_43  and  C_45
REMARK                            x       y       z     vdW  Elec       q    Type
REMARK                         _______ _______ _______ _____ _____    ______ ____
ROOT
ATOM      1  C   UNL     1      -9.962   6.680 129.125  0.00  0.00    +0.000 C 
ATOM      2  C   UNL     1     -10.866   7.293 127.993  0.00  0.00    +0.000 C 
ATOM      3  C   UNL     1     -11.934   8.198 128.658  0.00  0.00    +0.000 C 
ATOM      4  C   UNL     1     -11.578   8.264 130.119  0.00  0.00    +0.000 C 
ATOM      5  N   UNL     1     -10.603   7.206 130.320  0.00  0.00    +0.000 N 
ATOM      6  C   UNL     1     -10.773   6.261 131.265  0.00  0.00    +0.000 C 
ATOM      7  O   UNL     1     -11.816   6.186 131.901  0.00  0.00    +0.000 OA
ATOM      8  C   UNL     1      -9.534   5.325 131.365  0.00  0.00    +0.000 C 
ATOM      9  N   UNL     1      -8.527   5.475 130.174  0.00  0.00    +0.000 N 
ATOM     10  C   UNL     1      -7.261   4.876 129.939  0.00  0.00    +0.000 C 
ATOM     11  O   UNL     1      -6.512   5.339 129.090  0.00  0.00    +0.000 OA
ATOM     12  C   UNL     1      -6.979   3.615 130.708  0.00  0.00    +0.000 C 
ATOM     13  O   UNL     1      -8.610   3.539 129.972  0.00  0.00    +0.000 OA
ATOM     14  C   UNL     1      -9.276   4.925 129.149  0.00  0.00    +0.000 C 
ENDROOT
BRANCH  12  15
ATOM     15  N   UNL     1      -5.955   2.367 130.524  0.00  0.00    +0.000 N 
ATOM     16  C   UNL     1      -6.598   1.076 130.270  0.00  0.00    +0.000 C 
ATOM     17  O   UNL     1      -7.419   0.866 131.232  0.00  0.00    +0.000 OA
ATOM     18  H   UNL     1      -5.156   2.745 129.960  0.00  0.00    +0.000 HD
BRANCH  16  19
ATOM     19  C   UNL     1      -6.704  -0.268 129.054  0.00  0.00    +0.000 C 
ATOM     20  C   UNL     1      -6.483  -2.093 129.523  0.00  0.00    +0.000 C 
ATOM     21  N   UNL     1      -5.494  -2.088 128.521  0.00  0.00    +0.000 NA
ATOM     22  C   UNL     1      -4.282  -1.910 129.194  0.00  0.00    +0.000 C 
ATOM     23  C   UNL     1      -6.179  -2.308 127.288  0.00  0.00    +0.000 C 
ATOM     24  C   UNL     1      -5.181  -2.980 126.374  0.00  0.00    +0.000 C 
ATOM     25  C   UNL     1      -5.607  -2.638 125.038  0.00  0.00    +0.000 A 
ATOM     26  C   UNL     1      -5.250  -3.142 123.827  0.00  0.00    +0.000 A 
ATOM     27 BR   UNL     1      -4.099  -4.578 123.554  0.00  0.00    +0.000 Br
ATOM     28  N   UNL     1      -5.889  -2.383 122.885  0.00  0.00    +0.000 N 
ATOM     29  C   UNL     1      -6.675  -1.412 123.477  0.00  0.00    +0.000 A 
ATOM     30  C   UNL     1      -7.504  -0.391 122.998  0.00  0.00    +0.000 A 
ATOM     31  C   UNL     1      -8.169   0.446 123.927  0.00  0.00    +0.000 A 
ATOM     32  C   UNL     1      -8.079   0.250 125.289  0.00  0.00    +0.000 A 
ATOM     33  C   UNL     1      -7.338  -0.824 125.728  0.00  0.00    +0.000 A 
ATOM     34  C   UNL     1      -6.567  -1.606 124.831  0.00  0.00    +0.000 A 
ATOM     35  C   UNL     1      -7.293  -1.241 127.108  0.00  0.00    +0.000 C 
ATOM     36  C   UNL     1      -7.888  -0.551 128.155  0.00  0.00    +0.000 C 
ATOM     37  H   UNL     1      -5.783  -2.529 121.898  0.00  0.00    +0.000 HD
ENDBRANCH  16  19
ENDBRANCH  12  15
BRANCH  12  38
ATOM     38  C   UNL     1      -6.031   4.138 132.053  0.00  0.00    +0.000 C 
ATOM     39  C   UNL     1      -5.085   5.308 132.167  0.00  0.00    +0.000 C 
ATOM     40  C   UNL     1      -5.814   3.093 133.169  0.00  0.00    +0.000 C 
ENDBRANCH  12  38
BRANCH  14  41
ATOM     41  O   UNL     1      -8.848   4.926 127.784  0.00  0.00    +0.000 OA
ATOM     42  H   UNL     1      -8.981   4.025 127.417  0.00  0.00    +0.000 HD
ENDBRANCH  14  41
BRANCH   8  43
ATOM     43  C   UNL     1      -8.671   5.439 132.551  0.00  0.00    +0.000 C 
BRANCH  43  44
ATOM     44  C   UNL     1      -9.128   4.836 133.833  0.00  0.00    +0.000 C 
ATOM     45  C   UNL     1      -9.305   3.350 133.633  0.00  0.00    +0.000 C 
ATOM     46  C   UNL     1      -8.097   5.053 134.931  0.00  0.00    +0.000 C 
ENDBRANCH  43  44
ENDBRANCH   8  43
TORSDOF 6
ENDMDL
MODEL 2
REMARK VINA RESULT:     -10.6      4.108      9.880
REMARK  Name = Bromocriptine
REMARK  11 active torsions:
REMARK  status: ('A' for Active; 'I' for Inactive)
REMARK    1  A    between atoms: C_9  and  C_10
REMARK    2  A    between atoms: C_10  and  C_11
REMARK    3  A    between atoms: C_11  and  C_12
REMARK    4  A    between atoms: C_11  and  C_13
REMARK    5  A    between atoms: C_17  and  N_18
REMARK    6  A    between atoms: C_17  and  C_43
REMARK    7  A    between atoms: C_19  and  C_21
REMARK    8  A    between atoms: N_23  and  C_24
REMARK    9  A    between atoms: C_41  and  O_42
REMARK   10  A    between atoms: C_43  and  C_44
REMARK   11  A    between atoms: C_43  and  C_45
REMARK                            x       y       z     vdW  Elec       q    Type
REMARK                         _______ _______ _______ _____ _____    ______ ____
ROOT
ATOM      1  C   UNL     1      -8.098  -1.075 124.949  0.00  0.00    +0.000 C 
ATOM      2  C   UNL     1      -8.533  -2.581 125.067  0.00  0.00    +0.000 C 
ATOM      3  C   UNL     1      -9.346  -2.954 123.802  0.00  0.00    +0.000 C 
ATOM      4  C   UNL     1      -9.257  -1.768 122.880  0.00  0.00    +0.000 C 
ATOM      5  N   UNL     1      -8.735  -0.689 123.700  0.00  0.00    +0.000 N 
ATOM      6  C   UNL     1      -9.373   0.494 123.797  0.00  0.00    +0.000 C 
ATOM      7  O   UNL     1     -10.479   0.658 123.299  0.00  0.00    +0.000 OA
ATOM      8  C   UNL     1      -8.548   1.521 124.626  0.00  0.00    +0.000 C 
ATOM      9  N   UNL     1      -7.350   0.886 125.412  0.00  0.00    +0.000 N 
ATOM     10  C   UNL     1      -6.329   1.479 126.202  0.00  0.00    +0.000 C 
ATOM     11  O   UNL     1      -5.330   0.837 126.496  0.00  0.00    +0.000 OA
ATOM     12  C   UNL     1      -6.619   2.862 126.716  0.00  0.00    +0.000 C 
ATOM     13  O   UNL     1      -8.025   1.789 127.001  0.00  0.00    +0.000 OA
ATOM     14  C   UNL     1      -8.040   0.163 126.370  0.00  0.00    +0.000 C 
ENDROOT
BRANCH  12  15
ATOM     15  N   UNL     1      -6.044   3.775 127.931  0.00  0.00    +0.000 N 
ATOM     16  C   UNL     1      -7.049   4.201 128.908  0.00  0.00    +0.000 C 
ATOM     17  O   UNL     1      -7.970   4.814 128.262  0.00  0.00    +0.000 OA
ATOM     18  H   UNL     1      -5.122   3.346 128.187  0.00  0.00    +0.000 HD
BRANCH  16  19
ATOM     19  C   UNL     1      -7.485   4.096 130.667  0.00  0.00    +0.000 C 
ATOM     20  C   UNL     1      -9.266   4.284 131.294  0.00  0.00    +0.000 C 
ATOM     21  N   UNL     1      -8.724   5.290 132.117  0.00  0.00    +0.000 NA
ATOM     22  C   UNL     1      -8.976   6.492 131.452  0.00  0.00    +0.000 C 
ATOM     23  C   UNL     1      -8.205   4.622 133.268  0.00  0.00    +0.000 C 
ATOM     24  C   UNL     1      -8.274   5.625 134.395  0.00  0.00    +0.000 C 
ATOM     25  C   UNL     1      -7.237   5.227 135.316  0.00  0.00    +0.000 A 
ATOM     26  C   UNL     1      -6.988   5.597 136.600  0.00  0.00    +0.000 A 
ATOM     27 BR   UNL     1      -8.052   6.731 137.621  0.00  0.00    +0.000 Br
ATOM     28  N   UNL     1      -5.820   4.984 136.963  0.00  0.00    +0.000 N 
ATOM     29  C   UNL     1      -5.328   4.202 135.935  0.00  0.00    +0.000 A 
ATOM     30  C   UNL     1      -4.196   3.396 135.769  0.00  0.00    +0.000 A 
ATOM     31  C   UNL     1      -4.004   2.727 134.535  0.00  0.00    +0.000 A 
ATOM     32  C   UNL     1      -4.928   2.792 133.513  0.00  0.00    +0.000 A 
ATOM     33  C   UNL     1      -6.079   3.510 133.743  0.00  0.00    +0.000 A 
ATOM     34  C   UNL     1      -6.245   4.285 134.919  0.00  0.00    +0.000 A 
ATOM     35  C   UNL     1      -7.195   3.526 132.828  0.00  0.00    +0.000 C 
ATOM     36  C   UNL     1      -7.194   2.924 131.578  0.00  0.00    +0.000 C 
ATOM     37  H   UNL     1      -5.393   5.105 137.864  0.00  0.00    +0.000 HD
ENDBRANCH  16  19
ENDBRANCH  12  15
BRANCH  12  38
ATOM     38  C   UNL     1      -5.810   3.908 125.606  0.00  0.00    +0.000 C 
ATOM     39  C   UNL     1      -4.348   3.978 125.240  0.00  0.00    +0.000 C 
ATOM     40  C   UNL     1      -6.582   5.183 125.200  0.00  0.00    +0.000 C 
ENDBRANCH  12  38
BRANCH  14  41
ATOM     41  O   UNL     1      -7.398  -0.718 127.294  0.00  0.00    +0.000 OA
ATOM     42  H   UNL     1      -6.642  -0.243 127.702  0.00  0.00    +0.000 HD
ENDBRANCH  14  41
BRANCH   8  43
ATOM     43  C   UNL     1      -7.922   2.647 123.916  0.00  0.00    +0.000 C 
BRANCH  43  44
ATOM     44  C   UNL     1      -7.629   2.504 122.462  0.00  0.00    +0.000 C 
ATOM     45  C   UNL     1      -8.647   3.303 121.684  0.00  0.00    +0.000 C 
ATOM     46  C   UNL     1      -6.244   3.043 122.134  0.00  0.00    +0.000 C 
ENDBRANCH  43  44
ENDBRANCH   8  43
TORSDOF 6
ENDMDL
MODEL 3
REMARK VINA RESULT:     -10.2      3.316      5.763
REMARK  Name = Bromocriptine
REMARK  11 active torsions:
REMARK  status: ('A' for Active; 'I' for Inactive)
REMARK    1  A    between atoms: C_9  and  C_10
REMARK    2  A    between atoms: C_10  and  C_11
REMARK    3  A    between atoms: C_11  and  C_12
REMARK    4  A    between atoms: C_11  and  C_13
REMARK    5  A    between atoms: C_17  and  N_18
REMARK    6  A    between atoms: C_17  and  C_43
REMARK    7  A    between atoms: C_19  and  C_21
REMARK    8  A    between atoms: N_23  and  C_24
REMARK    9  A    between atoms: C_41  and  O_42
REMARK   10  A    between atoms: C_43  and  C_44
REMARK   11  A    between atoms: C_43  and  C_45
REMARK                            x       y       z     vdW  Elec       q    Type
REMARK                         _______ _______ _______ _____ _____    ______ ____
ROOT
ATOM      1  C   UNL     1      -1.989   6.017 132.795  0.00  0.00    +0.000 C 
ATOM      2  C   UNL     1      -0.652   6.676 132.294  0.00  0.00    +0.000 C 
ATOM      3  C   UNL     1      -0.003   7.427 133.485  0.00  0.00    +0.000 C 
ATOM      4  C   UNL     1      -0.830   7.089 134.696  0.00  0.00    +0.000 C 
ATOM      5  N   UNL     1      -2.042   6.485 134.171  0.00  0.00    +0.000 N 
ATOM      6  C   UNL     1      -3.263   6.948 134.505  0.00  0.00    +0.000 C 
ATOM      7  O   UNL     1      -3.390   7.974 135.161  0.00  0.00    +0.000 OA
ATOM      8  C   UNL     1      -4.393   6.054 133.919  0.00  0.00    +0.000 C 
ATOM      9  N   UNL     1      -3.898   5.032 132.839  0.00  0.00    +0.000 N 
ATOM     10  C   UNL     1      -4.585   4.005 132.139  0.00  0.00    +0.000 C 
ATOM     11  O   UNL     1      -3.956   3.138 131.548  0.00  0.00    +0.000 OA
ATOM     12  C   UNL     1      -6.083   4.131 132.093  0.00  0.00    +0.000 C 
ATOM     13  O   UNL     1      -5.317   5.698 131.681  0.00  0.00    +0.000 OA
ATOM     14  C   UNL     1      -3.589   5.898 131.804  0.00  0.00    +0.000 C 
ENDROOT
BRANCH  12  15
ATOM     15  N   UNL     1      -7.253   3.532 131.139  0.00  0.00    +0.000 N 
ATOM     16  C   UNL     1      -6.843   3.262 129.758  0.00  0.00    +0.000 C 
ATOM     17  O   UNL     1      -6.369   4.354 129.283  0.00  0.00    +0.000 OA
ATOM     18  H   UNL     1      -7.777   2.850 131.738  0.00  0.00    +0.000 HD
BRANCH  16  19
ATOM     19  C   UNL     1      -6.694   1.931 128.533  0.00  0.00    +0.000 C 
ATOM     20  C   UNL     1      -5.807   2.163 126.871  0.00  0.00    +0.000 C 
ATOM     21  N   UNL     1      -7.019   1.705 126.318  0.00  0.00    +0.000 NA
ATOM     22  C   UNL     1      -7.720   2.856 125.950  0.00  0.00    +0.000 C 
ATOM     23  C   UNL     1      -6.954   0.279 126.351  0.00  0.00    +0.000 C 
ATOM     24  C   UNL     1      -7.819  -0.201 125.210  0.00  0.00    +0.000 C 
ATOM     25  C   UNL     1      -8.259  -1.520 125.600  0.00  0.00    +0.000 A 
ATOM     26  C   UNL     1      -8.847  -2.516 124.888  0.00  0.00    +0.000 A 
ATOM     27 BR   UNL     1      -9.185  -2.478 123.058  0.00  0.00    +0.000 Br
ATOM     28  N   UNL     1      -9.136  -3.514 125.778  0.00  0.00    +0.000 N 
ATOM     29  C   UNL     1      -8.716  -3.181 127.052  0.00  0.00    +0.000 A 
ATOM     30  C   UNL     1      -8.772  -3.810 128.301  0.00  0.00    +0.000 A 
ATOM     31  C   UNL     1      -8.230  -3.147 129.429  0.00  0.00    +0.000 A 
ATOM     32  C   UNL     1      -7.591  -1.929 129.329  0.00  0.00    +0.000 A 
ATOM     33  C   UNL     1      -7.461  -1.382 128.072  0.00  0.00    +0.000 A 
ATOM     34  C   UNL     1      -8.095  -1.962 126.944  0.00  0.00    +0.000 A 
ATOM     35  C   UNL     1      -6.678  -0.201 127.802  0.00  0.00    +0.000 C 
ATOM     36  C   UNL     1      -6.068   0.575 128.777  0.00  0.00    +0.000 C 
ATOM     37  H   UNL     1      -9.598  -4.366 125.516  0.00  0.00    +0.000 HD
ENDBRANCH  16  19
ENDBRANCH  12  15
BRANCH  12  38
ATOM     38  C   UNL     1      -6.637   3.089 133.352  0.00  0.00    +0.000 C 
ATOM     39  C   UNL     1      -6.332   1.632 133.601  0.00  0.00    +0.000 C 
ATOM     40  C   UNL     1      -7.890   3.568 134.119  0.00  0.00    +0.000 C 
ENDBRANCH  12  38
BRANCH  14  41
ATOM     41  O   UNL     1      -2.967   5.471 130.590  0.00  0.00    +0.000 OA
ATOM     42  H   UNL     1      -2.328   4.757 130.803  0.00  0.00    +0.000 HD
ENDBRANCH  14  41
BRANCH   8  43
ATOM     43  C   UNL     1      -5.167   5.214 134.845  0.00  0.00    +0.000 C 
BRANCH  43  44
ATOM     44  C   UNL     1      -4.535   4.786 136.124  0.00  0.00    +0.000 C 
ATOM     45  C   UNL     1      -5.574   4.837 137.218  0.00  0.00    +0.000 C 
ATOM     46  C   UNL     1      -4.018   3.358 136.020  0.00  0.00    +0.000 C 
ENDBRANCH  43  44
ENDBRANCH   8  43
TORSDOF 6
ENDMDL
MODEL 4
REMARK VINA RESULT:     -10.2      3.301      5.172
REMARK  Name = Bromocriptine
REMARK  11 active torsions:
REMARK  status: ('A' for Active; 'I' for Inactive)
REMARK    1  A    between atoms: C_9  and  C_10
REMARK    2  A    between atoms: C_10  and  C_11
REMARK    3  A    between atoms: C_11  and  C_12
REMARK    4  A    between atoms: C_11  and  C_13
REMARK    5  A    between atoms: C_17  and  N_18
REMARK    6  A    between atoms: C_17  and  C_43
REMARK    7  A    between atoms: C_19  and  C_21
REMARK    8  A    between atoms: N_23  and  C_24
REMARK    9  A    between atoms: C_41  and  O_42
REMARK   10  A    between atoms: C_43  and  C_44
REMARK   11  A    between atoms: C_43  and  C_45
REMARK                            x       y       z     vdW  Elec       q    Type
REMARK                         _______ _______ _______ _____ _____    ______ ____
ROOT
ATOM      1  C   UNL     1      -6.477   6.085 135.024  0.00  0.00    +0.000 C 
ATOM      2  C   UNL     1      -7.527   5.915 136.182  0.00  0.00    +0.000 C 
ATOM      3  C   UNL     1      -6.805   6.151 137.534  0.00  0.00    +0.000 C 
ATOM      4  C   UNL     1      -5.415   6.613 137.192  0.00  0.00    +0.000 C 
ATOM      5  N   UNL     1      -5.257   6.327 135.777  0.00  0.00    +0.000 N 
ATOM      6  C   UNL     1      -4.222   5.596 135.318  0.00  0.00    +0.000 C 
ATOM      7  O   UNL     1      -3.449   5.041 136.088  0.00  0.00    +0.000 OA
ATOM      8  C   UNL     1      -4.207   5.542 133.763  0.00  0.00    +0.000 C 
ATOM      9  N   UNL     1      -5.529   6.058 133.097  0.00  0.00    +0.000 N 
ATOM     10  C   UNL     1      -5.878   6.245 131.733  0.00  0.00    +0.000 C 
ATOM     11  O   UNL     1      -6.854   6.921 131.437  0.00  0.00    +0.000 OA
ATOM     12  C   UNL     1      -5.051   5.486 130.734  0.00  0.00    +0.000 C 
ATOM     13  O   UNL     1      -5.556   4.403 132.069  0.00  0.00    +0.000 OA
ATOM     14  C   UNL     1      -6.397   5.042 133.456  0.00  0.00    +0.000 C 
ENDROOT
BRANCH  12  15
ATOM     15  N   UNL     1      -5.262   5.016 129.193  0.00  0.00    +0.000 N 
ATOM     16  C   UNL     1      -5.451   3.575 129.010  0.00  0.00    +0.000 C 
ATOM     17  O   UNL     1      -4.441   2.990 129.540  0.00  0.00    +0.000 OA
ATOM     18  H   UNL     1      -5.879   5.747 128.763  0.00  0.00    +0.000 HD
BRANCH  16  19
ATOM     19  C   UNL     1      -6.629   2.343 128.385  0.00  0.00    +0.000 C 
ATOM     20  C   UNL     1      -7.286   0.919 129.453  0.00  0.00    +0.000 C 
ATOM     21  N   UNL     1      -6.815   0.101 128.408  0.00  0.00    +0.000 NA
ATOM     22  C   UNL     1      -5.559  -0.348 128.823  0.00  0.00    +0.000 C 
ATOM     23  C   UNL     1      -7.853   0.075 127.429  0.00  0.00    +0.000 C 
ATOM     24  C   UNL     1      -7.710  -1.246 126.709  0.00  0.00    +0.000 C 
ATOM     25  C   UNL     1      -8.276  -1.023 125.400  0.00  0.00    +0.000 A 
ATOM     26  C   UNL     1      -8.639  -1.893 124.421  0.00  0.00    +0.000 A 
ATOM     27 BR   UNL     1      -8.586  -3.748 124.553  0.00  0.00    +0.000 Br
ATOM     28  N   UNL     1      -9.028  -1.135 123.350  0.00  0.00    +0.000 N 
ATOM     29  C   UNL     1      -8.944   0.214 123.639  0.00  0.00    +0.000 A 
ATOM     30  C   UNL     1      -9.199   1.390 122.924  0.00  0.00    +0.000 A 
ATOM     31  C   UNL     1      -8.987   2.639 123.558  0.00  0.00    +0.000 A 
ATOM     32  C   UNL     1      -8.599   2.737 124.878  0.00  0.00    +0.000 A 
ATOM     33  C   UNL     1      -8.455   1.565 125.585  0.00  0.00    +0.000 A 
ATOM     34  C   UNL     1      -8.544   0.301 124.948  0.00  0.00    +0.000 A 
ATOM     35  C   UNL     1      -8.214   1.525 127.007  0.00  0.00    +0.000 C 
ATOM     36  C   UNL     1      -7.990   2.645 127.795  0.00  0.00    +0.000 C 
ATOM     37  H   UNL     1      -9.328  -1.530 122.478  0.00  0.00    +0.000 HD
ENDBRANCH  16  19
ENDBRANCH  12  15
BRANCH  12  38
ATOM     38  C   UNL     1      -3.890   6.637 130.178  0.00  0.00    +0.000 C 
ATOM     39  C   UNL     1      -4.044   8.118 129.934  0.00  0.00    +0.000 C 
ATOM     40  C   UNL     1      -2.644   6.051 129.479  0.00  0.00    +0.000 C 
ENDBRANCH  12  38
BRANCH  14  41
ATOM     41  O   UNL     1      -7.801   5.086 133.190  0.00  0.00    +0.000 OA
ATOM     42  H   UNL     1      -8.063   4.242 132.762  0.00  0.00    +0.000 HD
ENDBRANCH  14  41
BRANCH   8  43
ATOM     43  C   UNL     1      -3.160   6.290 133.050  0.00  0.00    +0.000 C 
BRANCH  43  44
ATOM     44  C   UNL     1      -1.741   5.865 133.208  0.00  0.00    +0.000 C 
ATOM     45  C   UNL     1      -1.586   4.475 132.637  0.00  0.00    +0.000 C 
ATOM     46  C   UNL     1      -0.809   6.800 132.452  0.00  0.00    +0.000 C 
ENDBRANCH  43  44
ENDBRANCH   8  43
TORSDOF 6
ENDMDL
MODEL 5
REMARK VINA RESULT:     -10.2      4.226      9.914
REMARK  Name = Bromocriptine
REMARK  11 active torsions:
REMARK  status: ('A' for Active; 'I' for Inactive)
REMARK    1  A    between atoms: C_9  and  C_10
REMARK    2  A    between atoms: C_10  and  C_11
REMARK    3  A    between atoms: C_11  and  C_12
REMARK    4  A    between atoms: C_11  and  C_13
REMARK    5  A    between atoms: C_17  and  N_18
REMARK    6  A    between atoms: C_17  and  C_43
REMARK    7  A    between atoms: C_19  and  C_21
REMARK    8  A    between atoms: N_23  and  C_24
REMARK    9  A    between atoms: C_41  and  O_42
REMARK   10  A    between atoms: C_43  and  C_44
REMARK   11  A    between atoms: C_43  and  C_45
REMARK                            x       y       z     vdW  Elec       q    Type
REMARK                         _______ _______ _______ _____ _____    ______ ____
ROOT
ATOM      1  C   UNL     1      -7.690  -1.410 125.874  0.00  0.00    +0.000 C 
ATOM      2  C   UNL     1      -8.175  -2.859 126.247  0.00  0.00    +0.000 C 
ATOM      3  C   UNL     1      -8.331  -3.673 124.938  0.00  0.00    +0.000 C 
ATOM      4  C   UNL     1      -7.795  -2.802 123.834  0.00  0.00    +0.000 C 
ATOM      5  N   UNL     1      -7.674  -1.479 124.421  0.00  0.00    +0.000 N 
ATOM      6  C   UNL     1      -8.249  -0.400 123.854  0.00  0.00    +0.000 C 
ATOM      7  O   UNL     1      -9.001  -0.517 122.895  0.00  0.00    +0.000 OA
ATOM      8  C   UNL     1      -7.864   0.910 124.599  0.00  0.00    +0.000 C 
ATOM      9  N   UNL     1      -7.178   0.673 125.987  0.00  0.00    +0.000 N 
ATOM     10  C   UNL     1      -6.613   1.583 126.920  0.00  0.00    +0.000 C 
ATOM     11  O   UNL     1      -5.879   1.175 127.809  0.00  0.00    +0.000 OA
ATOM     12  C   UNL     1      -7.064   3.013 126.796  0.00  0.00    +0.000 C 
ATOM     13  O   UNL     1      -8.477   1.911 126.746  0.00  0.00    +0.000 OA
ATOM     14  C   UNL     1      -8.251   0.183 126.711  0.00  0.00    +0.000 C 
ENDROOT
BRANCH  12  15
ATOM     15  N   UNL     1      -7.081   4.297 127.790  0.00  0.00    +0.000 N 
ATOM     16  C   UNL     1      -7.138   3.971 129.217  0.00  0.00    +0.000 C 
ATOM     17  O   UNL     1      -8.169   3.232 129.396  0.00  0.00    +0.000 OA
ATOM     18  H   UNL     1      -6.404   4.980 127.371  0.00  0.00    +0.000 HD
BRANCH  16  19
ATOM     19  C   UNL     1      -6.233   4.170 130.778  0.00  0.00    +0.000 C 
ATOM     20  C   UNL     1      -6.851   3.443 132.419  0.00  0.00    +0.000 C 
ATOM     21  N   UNL     1      -6.731   4.765 132.890  0.00  0.00    +0.000 NA
ATOM     22  C   UNL     1      -8.014   5.310 132.805  0.00  0.00    +0.000 C 
ATOM     23  C   UNL     1      -5.365   4.925 133.275  0.00  0.00    +0.000 C 
ATOM     24  C   UNL     1      -5.362   5.974 134.361  0.00  0.00    +0.000 C 
ATOM     25  C   UNL     1      -4.049   6.573 134.301  0.00  0.00    +0.000 A 
ATOM     26  C   UNL     1      -3.394   7.386 135.170  0.00  0.00    +0.000 A 
ATOM     27 BR   UNL     1      -4.026   7.911 136.840  0.00  0.00    +0.000 Br
ATOM     28  N   UNL     1      -2.216   7.733 134.568  0.00  0.00    +0.000 N 
ATOM     29  C   UNL     1      -2.093   7.129 133.330  0.00  0.00    +0.000 A 
ATOM     30  C   UNL     1      -1.126   7.149 132.319  0.00  0.00    +0.000 A 
ATOM     31  C   UNL     1      -1.346   6.389 131.144  0.00  0.00    +0.000 A 
ATOM     32  C   UNL     1      -2.451   5.579 130.989  0.00  0.00    +0.000 A 
ATOM     33  C   UNL     1      -3.334   5.501 132.042  0.00  0.00    +0.000 A 
ATOM     34  C   UNL     1      -3.204   6.338 133.179  0.00  0.00    +0.000 A 
ATOM     35  C   UNL     1      -4.438   4.573 132.080  0.00  0.00    +0.000 C 
ATOM     36  C   UNL     1      -4.803   3.745 131.028  0.00  0.00    +0.000 C 
ATOM     37  H   UNL     1      -1.545   8.349 134.988  0.00  0.00    +0.000 HD
ENDBRANCH  16  19
ENDBRANCH  12  15
BRANCH  12  38
ATOM     38  C   UNL     1      -5.807   3.780 125.896  0.00  0.00    +0.000 C 
ATOM     39  C   UNL     1      -4.310   3.631 126.014  0.00  0.00    +0.000 C 
ATOM     40  C   UNL     1      -6.214   5.056 125.127  0.00  0.00    +0.000 C 
ENDBRANCH  12  38
BRANCH  14  41
ATOM     41  O   UNL     1      -8.129  -0.313 128.046  0.00  0.00    +0.000 OA
ATOM     42  H   UNL     1      -8.320  -1.276 128.038  0.00  0.00    +0.000 HD
ENDBRANCH  14  41
BRANCH   8  43
ATOM     43  C   UNL     1      -6.950   1.848 123.929  0.00  0.00    +0.000 C 
BRANCH  43  44
ATOM     44  C   UNL     1      -7.256   2.278 122.536  0.00  0.00    +0.000 C 
ATOM     45  C   UNL     1      -8.569   3.023 122.538  0.00  0.00    +0.000 C 
ATOM     46  C   UNL     1      -6.176   3.211 122.009  0.00  0.00    +0.000 C 
ENDBRANCH  43  44
ENDBRANCH   8  43
TORSDOF 6
ENDMDL
MODEL 6
REMARK VINA RESULT:     -10.1      3.939      8.806
REMARK  Name = Bromocriptine
REMARK  11 active torsions:
REMARK  status: ('A' for Active; 'I' for Inactive)
REMARK    1  A    between atoms: C_9  and  C_10
REMARK    2  A    between atoms: C_10  and  C_11
REMARK    3  A    between atoms: C_11  and  C_12
REMARK    4  A    between atoms: C_11  and  C_13
REMARK    5  A    between atoms: C_17  and  N_18
REMARK    6  A    between atoms: C_17  and  C_43
REMARK    7  A    between atoms: C_19  and  C_21
REMARK    8  A    between atoms: N_23  and  C_24
REMARK    9  A    between atoms: C_41  and  O_42
REMARK   10  A    between atoms: C_43  and  C_44
REMARK   11  A    between atoms: C_43  and  C_45
REMARK                            x       y       z     vdW  Elec       q    Type
REMARK                         _______ _______ _______ _____ _____    ______ ____
ROOT
ATOM      1  C   UNL     1      -8.487  -1.149 124.698  0.00  0.00    +0.000 C 
ATOM      2  C   UNL     1      -8.843  -2.680 124.710  0.00  0.00    +0.000 C 
ATOM      3  C   UNL     1      -9.412  -3.060 123.318  0.00  0.00    +0.000 C 
ATOM      4  C   UNL     1      -9.244  -1.842 122.450  0.00  0.00    +0.000 C 
ATOM      5  N   UNL     1      -8.931  -0.761 123.368  0.00  0.00    +0.000 N 
ATOM      6  C   UNL     1      -9.646   0.381 123.382  0.00  0.00    +0.000 C 
ATOM      7  O   UNL     1     -10.662   0.497 122.710  0.00  0.00    +0.000 OA
ATOM      8  C   UNL     1      -9.033   1.426 124.358  0.00  0.00    +0.000 C 
ATOM      9  N   UNL     1      -7.946   0.835 125.320  0.00  0.00    +0.000 N 
ATOM     10  C   UNL     1      -7.108   1.460 126.281  0.00  0.00    +0.000 C 
ATOM     11  O   UNL     1      -6.134   0.867 126.725  0.00  0.00    +0.000 OA
ATOM     12  C   UNL     1      -7.561   2.808 126.769  0.00  0.00    +0.000 C 
ATOM     13  O   UNL     1      -8.928   1.650 126.792  0.00  0.00    +0.000 OA
ATOM     14  C   UNL     1      -8.740   0.046 126.134  0.00  0.00    +0.000 C 
ENDROOT
BRANCH  12  15
ATOM     15  N   UNL     1      -7.252   3.714 128.081  0.00  0.00    +0.000 N 
ATOM     16  C   UNL     1      -8.040   3.368 129.267  0.00  0.00    +0.000 C 
ATOM     17  O   UNL     1      -9.276   3.439 128.934  0.00  0.00    +0.000 OA
ATOM     18  H   UNL     1      -6.212   3.847 128.087  0.00  0.00    +0.000 HD
BRANCH  16  19
ATOM     19  C   UNL     1      -7.888   2.804 130.985  0.00  0.00    +0.000 C 
ATOM     20  C   UNL     1      -8.120   3.964 132.469  0.00  0.00    +0.000 C 
ATOM     21  N   UNL     1      -6.844   3.508 132.850  0.00  0.00    +0.000 NA
ATOM     22  C   UNL     1      -5.950   4.483 132.401  0.00  0.00    +0.000 C 
ATOM     23  C   UNL     1      -7.055   2.283 133.553  0.00  0.00    +0.000 C 
ATOM     24  C   UNL     1      -5.900   2.157 134.519  0.00  0.00    +0.000 C 
ATOM     25  C   UNL     1      -5.753   0.738 134.745  0.00  0.00    +0.000 A 
ATOM     26  C   UNL     1      -5.056   0.048 135.685  0.00  0.00    +0.000 A 
ATOM     27 BR   UNL     1      -4.106   0.805 137.094  0.00  0.00    +0.000 Br
ATOM     28  N   UNL     1      -5.189  -1.278 135.374  0.00  0.00    +0.000 N 
ATOM     29  C   UNL     1      -5.988  -1.449 134.258  0.00  0.00    +0.000 A 
ATOM     30  C   UNL     1      -6.426  -2.558 133.525  0.00  0.00    +0.000 A 
ATOM     31  C   UNL     1      -7.257  -2.349 132.397  0.00  0.00    +0.000 A 
ATOM     32  C   UNL     1      -7.700  -1.096 132.032  0.00  0.00    +0.000 A 
ATOM     33  C   UNL     1      -7.335  -0.036 132.831  0.00  0.00    +0.000 A 
ATOM     34  C   UNL     1      -6.411  -0.196 133.895  0.00  0.00    +0.000 A 
ATOM     35  C   UNL     1      -7.858   1.297 132.662  0.00  0.00    +0.000 C 
ATOM     36  C   UNL     1      -8.688   1.688 131.620  0.00  0.00    +0.000 C 
ATOM     37  H   UNL     1      -4.751  -2.012 135.900  0.00  0.00    +0.000 HD
ENDBRANCH  16  19
ENDBRANCH  12  15
BRANCH  12  38
ATOM     38  C   UNL     1      -6.645   3.932 125.831  0.00  0.00    +0.000 C 
ATOM     39  C   UNL     1      -5.152   4.032 125.639  0.00  0.00    +0.000 C 
ATOM     40  C   UNL     1      -7.380   5.229 125.431  0.00  0.00    +0.000 C 
ENDBRANCH  12  38
BRANCH  14  41
ATOM     41  O   UNL     1      -8.208  -0.826 127.134  0.00  0.00    +0.000 OA
ATOM     42  H   UNL     1      -7.348  -0.462 127.436  0.00  0.00    +0.000 HD
ENDBRANCH  14  41
BRANCH   8  43
ATOM     43  C   UNL     1      -8.368   2.606 123.786  0.00  0.00    +0.000 C 
BRANCH  43  44
ATOM     44  C   UNL     1      -7.844   2.530 122.394  0.00  0.00    +0.000 C 
ATOM     45  C   UNL     1      -8.729   3.363 121.498  0.00  0.00    +0.000 C 
ATOM     46  C   UNL     1      -6.429   3.085 122.318  0.00  0.00    +0.000 C 
ENDBRANCH  43  44
ENDBRANCH   8  43
TORSDOF 6
ENDMDL
MODEL 7
REMARK VINA RESULT:     -10.1      3.758      9.212
REMARK  Name = Bromocriptine
REMARK  11 active torsions:
REMARK  status: ('A' for Active; 'I' for Inactive)
REMARK    1  A    between atoms: C_9  and  C_10
REMARK    2  A    between atoms: C_10  and  C_11
REMARK    3  A    between atoms: C_11  and  C_12
REMARK    4  A    between atoms: C_11  and  C_13
REMARK    5  A    between atoms: C_17  and  N_18
REMARK    6  A    between atoms: C_17  and  C_43
REMARK    7  A    between atoms: C_19  and  C_21
REMARK    8  A    between atoms: N_23  and  C_24
REMARK    9  A    between atoms: C_41  and  O_42
REMARK   10  A    between atoms: C_43  and  C_44
REMARK   11  A    between atoms: C_43  and  C_45
REMARK                            x       y       z     vdW  Elec       q    Type
REMARK                         _______ _______ _______ _____ _____    ______ ____
ROOT
ATOM      1  C   UNL     1      -8.711   0.992 124.239  0.00  0.00    +0.000 C 
ATOM      2  C   UNL     1      -9.359   1.980 123.202  0.00  0.00    +0.000 C 
ATOM      3  C   UNL     1     -10.024   1.143 122.080  0.00  0.00    +0.000 C 
ATOM      4  C   UNL     1      -9.928  -0.294 122.516  0.00  0.00    +0.000 C 
ATOM      5  N   UNL     1      -8.981  -0.294 123.617  0.00  0.00    +0.000 N 
ATOM      6  C   UNL     1      -7.899  -1.098 123.616  0.00  0.00    +0.000 C 
ATOM      7  O   UNL     1      -7.607  -1.762 122.631  0.00  0.00    +0.000 OA
ATOM      8  C   UNL     1      -7.118  -1.005 124.959  0.00  0.00    +0.000 C 
ATOM      9  N   UNL     1      -7.557   0.195 125.867  0.00  0.00    +0.000 N 
ATOM     10  C   UNL     1      -7.157   0.572 127.176  0.00  0.00    +0.000 C 
ATOM     11  O   UNL     1      -7.823   1.377 127.813  0.00  0.00    +0.000 OA
ATOM     12  C   UNL     1      -5.846   0.010 127.650  0.00  0.00    +0.000 C 
ATOM     13  O   UNL     1      -5.673   0.675 125.995  0.00  0.00    +0.000 OA
ATOM     14  C   UNL     1      -7.067   1.256 125.125  0.00  0.00    +0.000 C 
ENDROOT
BRANCH  12  15
ATOM     15  N   UNL     1      -4.772   0.419 128.798  0.00  0.00    +0.000 N 
ATOM     16  C   UNL     1      -4.617   1.860 129.010  0.00  0.00    +0.000 C 
ATOM     17  O   UNL     1      -4.308   2.378 127.879  0.00  0.00    +0.000 OA
ATOM     18  H   UNL     1      -4.916  -0.274 129.571  0.00  0.00    +0.000 HD
BRANCH  16  19
ATOM     19  C   UNL     1      -4.788   3.160 130.265  0.00  0.00    +0.000 C 
ATOM     20  C   UNL     1      -3.302   3.892 131.190  0.00  0.00    +0.000 C 
ATOM     21  N   UNL     1      -4.020   3.532 132.347  0.00  0.00    +0.000 NA
ATOM     22  C   UNL     1      -3.490   2.302 132.747  0.00  0.00    +0.000 C 
ATOM     23  C   UNL     1      -4.926   4.605 132.600  0.00  0.00    +0.000 C 
ATOM     24  C   UNL     1      -5.167   4.601 134.091  0.00  0.00    +0.000 C 
ATOM     25  C   UNL     1      -6.471   5.195 134.263  0.00  0.00    +0.000 A 
ATOM     26  C   UNL     1      -7.103   5.667 135.370  0.00  0.00    +0.000 A 
ATOM     27 BR   UNL     1      -6.362   5.765 137.074  0.00  0.00    +0.000 Br
ATOM     28  N   UNL     1      -8.361   6.033 134.975  0.00  0.00    +0.000 N 
ATOM     29  C   UNL     1      -8.537   5.825 133.620  0.00  0.00    +0.000 A 
ATOM     30  C   UNL     1      -9.600   6.008 132.728  0.00  0.00    +0.000 A 
ATOM     31  C   UNL     1      -9.419   5.668 131.365  0.00  0.00    +0.000 A 
ATOM     32  C   UNL     1      -8.210   5.223 130.873  0.00  0.00    +0.000 A 
ATOM     33  C   UNL     1      -7.155   5.150 131.754  0.00  0.00    +0.000 A 
ATOM     34  C   UNL     1      -7.334   5.369 133.143  0.00  0.00    +0.000 A 
ATOM     35  C   UNL     1      -5.803   4.860 131.343  0.00  0.00    +0.000 C 
ATOM     36  C   UNL     1      -5.433   4.512 130.052  0.00  0.00    +0.000 C 
ATOM     37  H   UNL     1      -9.050   6.398 135.607  0.00  0.00    +0.000 HD
ENDBRANCH  16  19
ENDBRANCH  12  15
BRANCH  12  38
ATOM     38  C   UNL     1      -6.289  -1.354 128.612  0.00  0.00    +0.000 C 
ATOM     39  C   UNL     1      -7.274  -1.450 129.750  0.00  0.00    +0.000 C 
ATOM     40  C   UNL     1      -5.308  -2.546 128.579  0.00  0.00    +0.000 C 
ENDBRANCH  12  38
BRANCH  14  41
ATOM     41  O   UNL     1      -7.312   2.623 125.464  0.00  0.00    +0.000 OA
ATOM     42  H   UNL     1      -6.996   3.187 124.725  0.00  0.00    +0.000 HD
ENDBRANCH  14  41
BRANCH   8  43
ATOM     43  C   UNL     1      -7.172  -2.154 125.876  0.00  0.00    +0.000 C 
BRANCH  43  44
ATOM     44  C   UNL     1      -8.332  -3.084 125.793  0.00  0.00    +0.000 C 
ATOM     45  C   UNL     1      -7.932  -4.285 124.970  0.00  0.00    +0.000 C 
ATOM     46  C   UNL     1      -8.738  -3.567 127.179  0.00  0.00    +0.000 C 
ENDBRANCH  43  44
ENDBRANCH   8  43
TORSDOF 6
ENDMDL
MODEL 8
REMARK VINA RESULT:     -10.0      5.433     10.440
REMARK  Name = Bromocriptine
REMARK  11 active torsions:
REMARK  status: ('A' for Active; 'I' for Inactive)
REMARK    1  A    between atoms: C_9  and  C_10
REMARK    2  A    between atoms: C_10  and  C_11
REMARK    3  A    between atoms: C_11  and  C_12
REMARK    4  A    between atoms: C_11  and  C_13
REMARK    5  A    between atoms: C_17  and  N_18
REMARK    6  A    between atoms: C_17  and  C_43
REMARK    7  A    between atoms: C_19  and  C_21
REMARK    8  A    between atoms: N_23  and  C_24
REMARK    9  A    between atoms: C_41  and  O_42
REMARK   10  A    between atoms: C_43  and  C_44
REMARK   11  A    between atoms: C_43  and  C_45
REMARK                            x       y       z     vdW  Elec       q    Type
REMARK                         _______ _______ _______ _____ _____    ______ ____
ROOT
ATOM      1  C   UNL     1     -11.211   6.117 131.276  0.00  0.00    +0.000 C 
ATOM      2  C   UNL     1     -12.323   7.214 131.457  0.00  0.00    +0.000 C 
ATOM      3  C   UNL     1     -13.039   7.411 130.096  0.00  0.00    +0.000 C 
ATOM      4  C   UNL     1     -12.493   6.351 129.177  0.00  0.00    +0.000 C 
ATOM      5  N   UNL     1     -11.321   5.828 129.855  0.00  0.00    +0.000 N 
ATOM      6  C   UNL     1     -10.117   5.785 129.249  0.00  0.00    +0.000 C 
ATOM      7  O   UNL     1      -9.943   6.302 128.154  0.00  0.00    +0.000 OA
ATOM      8  C   UNL     1      -9.059   5.066 130.134  0.00  0.00    +0.000 C 
ATOM      9  N   UNL     1      -9.517   4.839 131.616  0.00  0.00    +0.000 N 
ATOM     10  C   UNL     1      -8.892   4.161 132.696  0.00  0.00    +0.000 C 
ATOM     11  O   UNL     1      -9.541   3.858 133.687  0.00  0.00    +0.000 OA
ATOM     12  C   UNL     1      -7.408   3.957 132.570  0.00  0.00    +0.000 C 
ATOM     13  O   UNL     1      -7.835   5.650 132.171  0.00  0.00    +0.000 OA
ATOM     14  C   UNL     1      -9.505   6.143 132.079  0.00  0.00    +0.000 C 
ENDROOT
BRANCH  12  15
ATOM     15  N   UNL     1      -6.201   3.657 133.616  0.00  0.00    +0.000 N 
ATOM     16  C   UNL     1      -5.167   4.693 133.674  0.00  0.00    +0.000 C 
ATOM     17  O   UNL     1      -4.721   4.851 132.483  0.00  0.00    +0.000 OA
ATOM     18  H   UNL     1      -6.664   3.243 134.461  0.00  0.00    +0.000 HD
BRANCH  16  19
ATOM     19  C   UNL     1      -4.366   5.870 134.801  0.00  0.00    +0.000 C 
ATOM     20  C   UNL     1      -4.354   5.638 136.685  0.00  0.00    +0.000 C 
ATOM     21  N   UNL     1      -4.909   6.932 136.709  0.00  0.00    +0.000 NA
ATOM     22  C   UNL     1      -6.288   6.744 136.832  0.00  0.00    +0.000 C 
ATOM     23  C   UNL     1      -3.806   7.836 136.639  0.00  0.00    +0.000 C 
ATOM     24  C   UNL     1      -4.259   9.096 137.338  0.00  0.00    +0.000 C 
ATOM     25  C   UNL     1      -3.474  10.155 136.749  0.00  0.00    +0.000 A 
ATOM     26  C   UNL     1      -3.273  11.442 137.135  0.00  0.00    +0.000 A 
ATOM     27 BR   UNL     1      -3.931  12.216 138.694  0.00  0.00    +0.000 Br
ATOM     28  N   UNL     1      -2.516  12.029 136.157  0.00  0.00    +0.000 N 
ATOM     29  C   UNL     1      -2.206  11.125 135.158  0.00  0.00    +0.000 A 
ATOM     30  C   UNL     1      -1.493  11.195 133.956  0.00  0.00    +0.000 A 
ATOM     31  C   UNL     1      -1.383  10.033 133.154  0.00  0.00    +0.000 A 
ATOM     32  C   UNL     1      -1.901   8.817 133.547  0.00  0.00    +0.000 A 
ATOM     33  C   UNL     1      -2.509   8.755 134.781  0.00  0.00    +0.000 A 
ATOM     34  C   UNL     1      -2.738   9.923 135.552  0.00  0.00    +0.000 A 
ATOM     35  C   UNL     1      -2.947   7.520 135.384  0.00  0.00    +0.000 C 
ATOM     36  C   UNL     1      -2.912   6.284 134.754  0.00  0.00    +0.000 C 
ATOM     37  H   UNL     1      -2.238  12.993 136.182  0.00  0.00    +0.000 HD
ENDBRANCH  16  19
ENDBRANCH  12  15
BRANCH  12  38
ATOM     38  C   UNL     1      -7.247   2.339 131.989  0.00  0.00    +0.000 C 
ATOM     39  C   UNL     1      -8.028   1.102 132.357  0.00  0.00    +0.000 C 
ATOM     40  C   UNL     1      -5.912   2.007 131.287  0.00  0.00    +0.000 C 
ENDBRANCH  12  38
BRANCH  14  41
ATOM     41  O   UNL     1      -9.971   6.514 133.379  0.00  0.00    +0.000 OA
ATOM     42  H   UNL     1     -10.179   5.694 133.878  0.00  0.00    +0.000 HD
ENDBRANCH  14  41
BRANCH   8  43
ATOM     43  C   UNL     1      -8.596   3.732 129.720  0.00  0.00    +0.000 C 
BRANCH  43  44
ATOM     44  C   UNL     1      -7.914   3.586 128.404  0.00  0.00    +0.000 C 
ATOM     45  C   UNL     1      -6.549   4.224 128.493  0.00  0.00    +0.000 C 
ATOM     46  C   UNL     1      -7.735   2.117 128.048  0.00  0.00    +0.000 C 
ENDBRANCH  43  44
ENDBRANCH   8  43
TORSDOF 6
ENDMDL
MODEL 9
REMARK VINA RESULT:      -9.9      4.600      9.479
REMARK  Name = Bromocriptine
REMARK  11 active torsions:
REMARK  status: ('A' for Active; 'I' for Inactive)
REMARK    1  A    between atoms: C_9  and  C_10
REMARK    2  A    between atoms: C_10  and  C_11
REMARK    3  A    between atoms: C_11  and  C_12
REMARK    4  A    between atoms: C_11  and  C_13
REMARK    5  A    between atoms: C_17  and  N_18
REMARK    6  A    between atoms: C_17  and  C_43
REMARK    7  A    between atoms: C_19  and  C_21
REMARK    8  A    between atoms: N_23  and  C_24
REMARK    9  A    between atoms: C_41  and  O_42
REMARK   10  A    between atoms: C_43  and  C_44
REMARK   11  A    between atoms: C_43  and  C_45
REMARK                            x       y       z     vdW  Elec       q    Type
REMARK                         _______ _______ _______ _____ _____    ______ ____
ROOT
ATOM      1  C   UNL     1      -8.149   1.328 124.941  0.00  0.00    +0.000 C 
ATOM      2  C   UNL     1      -8.618   2.540 124.056  0.00  0.00    +0.000 C 
ATOM      3  C   UNL     1      -9.400   1.982 122.840  0.00  0.00    +0.000 C 
ATOM      4  C   UNL     1      -9.544   0.502 123.076  0.00  0.00    +0.000 C 
ATOM      5  N   UNL     1      -8.620   0.199 124.155  0.00  0.00    +0.000 N 
ATOM      6  C   UNL     1      -7.683  -0.762 124.031  0.00  0.00    +0.000 C 
ATOM      7  O   UNL     1      -7.494  -1.325 122.961  0.00  0.00    +0.000 OA
ATOM      8  C   UNL     1      -6.910  -0.980 125.364  0.00  0.00    +0.000 C 
ATOM      9  N   UNL     1      -7.155   0.141 126.431  0.00  0.00    +0.000 N 
ATOM     10  C   UNL     1      -6.712   0.267 127.774  0.00  0.00    +0.000 C 
ATOM     11  O   UNL     1      -7.244   1.075 128.523  0.00  0.00    +0.000 OA
ATOM     12  C   UNL     1      -5.514  -0.560 128.150  0.00  0.00    +0.000 C 
ATOM     13  O   UNL     1      -5.220   0.286 126.599  0.00  0.00    +0.000 OA
ATOM     14  C   UNL     1      -6.493   1.199 125.833  0.00  0.00    +0.000 C 
ENDROOT
BRANCH  12  15
ATOM     15  N   UNL     1      -4.399  -0.490 129.329  0.00  0.00    +0.000 N 
ATOM     16  C   UNL     1      -4.352   0.780 130.056  0.00  0.00    +0.000 C 
ATOM     17  O   UNL     1      -4.170   1.707 129.189  0.00  0.00    +0.000 OA
ATOM     18  H   UNL     1      -4.428  -1.430 129.793  0.00  0.00    +0.000 HD
BRANCH  16  19
ATOM     19  C   UNL     1      -4.540   1.503 131.711  0.00  0.00    +0.000 C 
ATOM     20  C   UNL     1      -5.589   0.692 133.069  0.00  0.00    +0.000 C 
ATOM     21  N   UNL     1      -6.240   1.940 133.119  0.00  0.00    +0.000 NA
ATOM     22  C   UNL     1      -7.387   1.793 132.336  0.00  0.00    +0.000 C 
ATOM     23  C   UNL     1      -5.451   2.763 133.978  0.00  0.00    +0.000 C 
ATOM     24  C   UNL     1      -6.407   3.762 134.586  0.00  0.00    +0.000 C 
ATOM     25  C   UNL     1      -5.595   4.911 134.909  0.00  0.00    +0.000 A 
ATOM     26  C   UNL     1      -5.849   6.000 135.680  0.00  0.00    +0.000 A 
ATOM     27 BR   UNL     1      -7.396   6.279 136.676  0.00  0.00    +0.000 Br
ATOM     28  N   UNL     1      -4.764   6.825 135.562  0.00  0.00    +0.000 N 
ATOM     29  C   UNL     1      -3.801   6.265 134.742  0.00  0.00    +0.000 A 
ATOM     30  C   UNL     1      -2.543   6.672 134.284  0.00  0.00    +0.000 A 
ATOM     31  C   UNL     1      -1.817   5.816 133.421  0.00  0.00    +0.000 A 
ATOM     32  C   UNL     1      -2.278   4.566 133.066  0.00  0.00    +0.000 A 
ATOM     33  C   UNL     1      -3.471   4.151 133.614  0.00  0.00    +0.000 A 
ATOM     34  C   UNL     1      -4.276   5.029 134.383  0.00  0.00    +0.000 A 
ATOM     35  C   UNL     1      -3.988   2.813 133.460  0.00  0.00    +0.000 C 
ATOM     36  C   UNL     1      -3.410   1.837 132.660  0.00  0.00    +0.000 C 
ATOM     37  H   UNL     1      -4.699   7.717 136.017  0.00  0.00    +0.000 HD
ENDBRANCH  16  19
ENDBRANCH  12  15
BRANCH  12  38
ATOM     38  C   UNL     1      -6.182  -1.951 128.924  0.00  0.00    +0.000 C 
ATOM     39  C   UNL     1      -7.312  -2.050 129.919  0.00  0.00    +0.000 C 
ATOM     40  C   UNL     1      -5.299  -3.219 128.908  0.00  0.00    +0.000 C 
ENDBRANCH  12  38
BRANCH  14  41
ATOM     41  O   UNL     1      -6.515   2.529 126.357  0.00  0.00    +0.000 OA
ATOM     42  H   UNL     1      -7.344   2.646 126.870  0.00  0.00    +0.000 HD
ENDBRANCH  14  41
BRANCH   8  43
ATOM     43  C   UNL     1      -7.158  -2.219 126.117  0.00  0.00    +0.000 C 
BRANCH  43  44
ATOM     44  C   UNL     1      -8.416  -2.974 125.861  0.00  0.00    +0.000 C 
ATOM     45  C   UNL     1      -8.133  -4.055 124.845  0.00  0.00    +0.000 C 
ATOM     46  C   UNL     1      -8.919  -3.635 127.137  0.00  0.00    +0.000 C 
ENDBRANCH  43  44
ENDBRANCH   8  43
TORSDOF 6
ENDMDL
