MODEL 1
REMARK VINA RESULT:      -4.5      0.000      0.000
REMARK  Name = Bromothalonil
REMARK  5 active torsions:
REMARK  status: ('A' for Active; 'I' for Inactive)
REMARK    1  A    between atoms: C_2  and  C_3
REMARK    2  A    between atoms: C_3  and  C_5
REMARK    3  A    between atoms: C_3  and  C_9
REMARK    4  A    between atoms: C_5  and  C_6
REMARK    5  A    between atoms: C_6  and  C_7
REMARK                            x       y       z     vdW  Elec       q    Type
REMARK                         _______ _______ _______ _____ _____    ______ ____
ROOT
ATOM      1  C   UNL     1     -12.554   8.197 129.335  0.00  0.00    +0.000 C 
ATOM      2 BR   UNL     1     -13.797   7.394 128.000  0.00  0.00    +0.000 Br
ENDROOT
BRANCH   1   4
ATOM      3 BR   UNL     1     -10.844   7.655 126.911  0.00  0.00    +0.000 Br
ATOM      4  C   UNL     1     -11.142   8.338 128.715  0.00  0.00    +0.000 C 
ENDBRANCH   1   4
BRANCH   1   5
ATOM      5  C   UNL     1     -13.040   9.630 129.479  0.00  0.00    +0.000 C 
ATOM      6  N   UNL     1     -13.444  10.819 129.599  0.00  0.00    +0.000 NA
ENDBRANCH   1   5
BRANCH   1   7
ATOM      7  C   UNL     1     -12.665   7.472 130.653  0.00  0.00    +0.000 C 
BRANCH   7   8
ATOM      8  C   UNL     1     -11.820   6.228 130.655  0.00  0.00    +0.000 C 
BRANCH   8   9
ATOM      9  C   UNL     1     -10.806   6.286 131.787  0.00  0.00    +0.000 C 
ATOM     10  N   UNL     1      -9.966   6.334 132.725  0.00  0.00    +0.000 NA
ENDBRANCH   8   9
ENDBRANCH   7   8
ENDBRANCH   1   7
TORSDOF 5
ENDMDL
MODEL 2
REMARK VINA RESULT:      -4.3      3.376      4.847
REMARK  Name = Bromothalonil
REMARK  5 active torsions:
REMARK  status: ('A' for Active; 'I' for Inactive)
REMARK    1  A    between atoms: C_2  and  C_3
REMARK    2  A    between atoms: C_3  and  C_5
REMARK    3  A    between atoms: C_3  and  C_9
REMARK    4  A    between atoms: C_5  and  C_6
REMARK    5  A    between atoms: C_6  and  C_7
REMARK                            x       y       z     vdW  Elec       q    Type
REMARK                         _______ _______ _______ _____ _____    ______ ____
ROOT
ATOM      1  C   UNL     1     -10.811   6.381 130.966  0.00  0.00    +0.000 C 
ATOM      2 BR   UNL     1     -12.608   7.244 130.982  0.00  0.00    +0.000 Br
ENDROOT
BRANCH   1   4
ATOM      3 BR   UNL     1      -8.407   5.853 132.709  0.00  0.00    +0.000 Br
ATOM      4  C   UNL     1     -10.307   6.198 132.419  0.00  0.00    +0.000 C 
ENDBRANCH   1   4
BRANCH   1   5
ATOM      5  C   UNL     1     -11.085   4.965 130.487  0.00  0.00    +0.000 C 
ATOM      6  N   UNL     1     -11.311   3.790 130.089  0.00  0.00    +0.000 NA
ENDBRANCH   1   5
BRANCH   1   7
ATOM      7  C   UNL     1      -9.900   7.095 129.998  0.00  0.00    +0.000 C 
BRANCH   7   8
ATOM      8  C   UNL     1     -10.693   7.914 129.019  0.00  0.00    +0.000 C 
BRANCH   8   9
ATOM      9  C   UNL     1     -10.596   7.308 127.628  0.00  0.00    +0.000 C 
ATOM     10  N   UNL     1     -10.516   6.805 126.475  0.00  0.00    +0.000 NA
ENDBRANCH   8   9
ENDBRANCH   7   8
ENDBRANCH   1   7
TORSDOF 5
ENDMDL
MODEL 3
REMARK VINA RESULT:      -4.2      3.595      4.457
REMARK  Name = Bromothalonil
REMARK  5 active torsions:
REMARK  status: ('A' for Active; 'I' for Inactive)
REMARK    1  A    between atoms: C_2  and  C_3
REMARK    2  A    between atoms: C_3  and  C_5
REMARK    3  A    between atoms: C_3  and  C_9
REMARK    4  A    between atoms: C_5  and  C_6
REMARK    5  A    between atoms: C_6  and  C_7
REMARK                            x       y       z     vdW  Elec       q    Type
REMARK                         _______ _______ _______ _____ _____    ______ ____
ROOT
ATOM      1  C   UNL     1     -10.726   6.214 130.868  0.00  0.00    +0.000 C 
ATOM      2 BR   UNL     1      -9.743   5.909 132.575  0.00  0.00    +0.000 Br
ENDROOT
BRANCH   1   4
ATOM      3 BR   UNL     1     -10.100   3.269 130.706  0.00  0.00    +0.000 Br
ATOM      4  C   UNL     1     -11.146   4.855 130.257  0.00  0.00    +0.000 C 
ENDBRANCH   1   4
BRANCH   1   5
ATOM      5  C   UNL     1     -12.038   6.846 131.304  0.00  0.00    +0.000 C 
ATOM      6  N   UNL     1     -13.127   7.370 131.666  0.00  0.00    +0.000 NA
ENDBRANCH   1   5
BRANCH   1   7
ATOM      7  C   UNL     1      -9.955   7.165 129.987  0.00  0.00    +0.000 C 
BRANCH   7   8
ATOM      8  C   UNL     1     -10.867   7.841 129.001  0.00  0.00    +0.000 C 
BRANCH   8   9
ATOM      9  C   UNL     1     -10.644   7.275 127.607  0.00  0.00    +0.000 C 
ATOM     10  N   UNL     1     -10.459   6.807 126.452  0.00  0.00    +0.000 NA
ENDBRANCH   8   9
ENDBRANCH   7   8
ENDBRANCH   1   7
TORSDOF 5
ENDMDL
MODEL 4
REMARK VINA RESULT:      -4.1     12.317     13.253
REMARK  Name = Bromothalonil
REMARK  5 active torsions:
REMARK  status: ('A' for Active; 'I' for Inactive)
REMARK    1  A    between atoms: C_2  and  C_3
REMARK    2  A    between atoms: C_3  and  C_5
REMARK    3  A    between atoms: C_3  and  C_9
REMARK    4  A    between atoms: C_5  and  C_6
REMARK    5  A    between atoms: C_6  and  C_7
REMARK                            x       y       z     vdW  Elec       q    Type
REMARK                         _______ _______ _______ _____ _____    ______ ____
ROOT
ATOM      1  C   UNL     1      -8.133  -2.576 124.961  0.00  0.00    +0.000 C 
ATOM      2 BR   UNL     1      -7.075  -1.134 125.842  0.00  0.00    +0.000 Br
ENDROOT
BRANCH   1   4
ATOM      3 BR   UNL     1      -8.707  -3.699 127.700  0.00  0.00    +0.000 Br
ATOM      4  C   UNL     1      -9.234  -3.079 125.925  0.00  0.00    +0.000 C 
ENDBRANCH   1   4
BRANCH   1   5
ATOM      5  C   UNL     1      -8.901  -1.854 123.865  0.00  0.00    +0.000 C 
ATOM      6  N   UNL     1      -9.538  -1.256 122.956  0.00  0.00    +0.000 NA
ENDBRANCH   1   5
BRANCH   1   7
ATOM      7  C   UNL     1      -7.209  -3.607 124.361  0.00  0.00    +0.000 C 
BRANCH   7   8
ATOM      8  C   UNL     1      -5.786  -3.121 124.366  0.00  0.00    +0.000 C 
BRANCH   8   9
ATOM      9  C   UNL     1      -4.868  -4.183 123.782  0.00  0.00    +0.000 C 
ATOM     10  N   UNL     1      -4.107  -5.063 123.297  0.00  0.00    +0.000 NA
ENDBRANCH   8   9
ENDBRANCH   7   8
ENDBRANCH   1   7
TORSDOF 5
ENDMDL
MODEL 5
REMARK VINA RESULT:      -4.0     12.236     13.249
REMARK  Name = Bromothalonil
REMARK  5 active torsions:
REMARK  status: ('A' for Active; 'I' for Inactive)
REMARK    1  A    between atoms: C_2  and  C_3
REMARK    2  A    between atoms: C_3  and  C_5
REMARK    3  A    between atoms: C_3  and  C_9
REMARK    4  A    between atoms: C_5  and  C_6
REMARK    5  A    between atoms: C_6  and  C_7
REMARK                            x       y       z     vdW  Elec       q    Type
REMARK                         _______ _______ _______ _____ _____    ______ ____
ROOT
ATOM      1  C   UNL     1      -7.598  -2.192 124.476  0.00  0.00    +0.000 C 
ATOM      2 BR   UNL     1      -6.946  -0.827 123.177  0.00  0.00    +0.000 Br
ENDROOT
BRANCH   1   4
ATOM      3 BR   UNL     1      -9.223   0.098 125.576  0.00  0.00    +0.000 Br
ATOM      4  C   UNL     1      -8.104  -1.491 125.761  0.00  0.00    +0.000 C 
ENDBRANCH   1   4
BRANCH   1   5
ATOM      5  C   UNL     1      -8.860  -2.743 123.832  0.00  0.00    +0.000 C 
ATOM      6  N   UNL     1      -9.907  -3.200 123.298  0.00  0.00    +0.000 NA
ENDBRANCH   1   5
BRANCH   1   7
ATOM      7  C   UNL     1      -6.574  -3.287 124.639  0.00  0.00    +0.000 C 
BRANCH   7   8
ATOM      8  C   UNL     1      -5.261  -2.890 124.023  0.00  0.00    +0.000 C 
BRANCH   8   9
ATOM      9  C   UNL     1      -4.491  -4.127 123.588  0.00  0.00    +0.000 C 
ATOM     10  N   UNL     1      -3.853  -5.152 123.228  0.00  0.00    +0.000 NA
ENDBRANCH   8   9
ENDBRANCH   7   8
ENDBRANCH   1   7
TORSDOF 5
ENDMDL
MODEL 6
REMARK VINA RESULT:      -3.9     12.317     13.259
REMARK  Name = Bromothalonil
REMARK  5 active torsions:
REMARK  status: ('A' for Active; 'I' for Inactive)
REMARK    1  A    between atoms: C_2  and  C_3
REMARK    2  A    between atoms: C_3  and  C_5
REMARK    3  A    between atoms: C_3  and  C_9
REMARK    4  A    between atoms: C_5  and  C_6
REMARK    5  A    between atoms: C_6  and  C_7
REMARK                            x       y       z     vdW  Elec       q    Type
REMARK                         _______ _______ _______ _____ _____    ______ ____
ROOT
ATOM      1  C   UNL     1      -7.170  -2.528 125.422  0.00  0.00    +0.000 C 
ATOM      2 BR   UNL     1      -7.536  -2.404 127.377  0.00  0.00    +0.000 Br
ENDROOT
BRANCH   1   4
ATOM      3 BR   UNL     1      -9.353  -3.169 123.441  0.00  0.00    +0.000 Br
ATOM      4  C   UNL     1      -8.036  -3.651 124.799  0.00  0.00    +0.000 C 
ENDBRANCH   1   4
BRANCH   1   5
ATOM      5  C   UNL     1      -7.759  -1.248 124.852  0.00  0.00    +0.000 C 
ATOM      6  N   UNL     1      -8.247  -0.185 124.380  0.00  0.00    +0.000 NA
ENDBRANCH   1   5
BRANCH   1   7
ATOM      7  C   UNL     1      -5.683  -2.577 125.172  0.00  0.00    +0.000 C 
BRANCH   7   8
ATOM      8  C   UNL     1      -5.390  -2.767 123.710  0.00  0.00    +0.000 C 
BRANCH   8   9
ATOM      9  C   UNL     1      -4.588  -4.042 123.497  0.00  0.00    +0.000 C 
ATOM     10  N   UNL     1      -3.923  -5.098 123.322  0.00  0.00    +0.000 NA
ENDBRANCH   8   9
ENDBRANCH   7   8
ENDBRANCH   1   7
TORSDOF 5
ENDMDL
MODEL 7
REMARK VINA RESULT:      -3.8     12.188     13.292
REMARK  Name = Bromothalonil
REMARK  5 active torsions:
REMARK  status: ('A' for Active; 'I' for Inactive)
REMARK    1  A    between atoms: C_2  and  C_3
REMARK    2  A    between atoms: C_3  and  C_5
REMARK    3  A    between atoms: C_3  and  C_9
REMARK    4  A    between atoms: C_5  and  C_6
REMARK    5  A    between atoms: C_6  and  C_7
REMARK                            x       y       z     vdW  Elec       q    Type
REMARK                         _______ _______ _______ _____ _____    ______ ____
ROOT
ATOM      1  C   UNL     1      -7.397  -2.438 125.280  0.00  0.00    +0.000 C 
ATOM      2 BR   UNL     1      -8.798  -3.267 126.430  0.00  0.00    +0.000 Br
ENDROOT
BRANCH   1   4
ATOM      3 BR   UNL     1      -8.991  -1.371 122.952  0.00  0.00    +0.000 Br
ATOM      4  C   UNL     1      -7.963  -1.167 124.600  0.00  0.00    +0.000 C 
ENDBRANCH   1   4
BRANCH   1   5
ATOM      5  C   UNL     1      -6.373  -1.905 126.269  0.00  0.00    +0.000 C 
ATOM      6  N   UNL     1      -5.524  -1.462 127.089  0.00  0.00    +0.000 NA
ENDBRANCH   1   5
BRANCH   1   7
ATOM      7  C   UNL     1      -6.770  -3.482 124.389  0.00  0.00    +0.000 C 
BRANCH   7   8
ATOM      8  C   UNL     1      -5.439  -3.014 123.869  0.00  0.00    +0.000 C 
BRANCH   8   9
ATOM      9  C   UNL     1      -4.560  -4.208 123.531  0.00  0.00    +0.000 C 
ATOM     10  N   UNL     1      -3.831  -5.198 123.251  0.00  0.00    +0.000 NA
ENDBRANCH   8   9
ENDBRANCH   7   8
ENDBRANCH   1   7
TORSDOF 5
ENDMDL
MODEL 8
REMARK VINA RESULT:      -3.8     11.170     12.341
REMARK  Name = Bromothalonil
REMARK  5 active torsions:
REMARK  status: ('A' for Active; 'I' for Inactive)
REMARK    1  A    between atoms: C_2  and  C_3
REMARK    2  A    between atoms: C_3  and  C_5
REMARK    3  A    between atoms: C_3  and  C_9
REMARK    4  A    between atoms: C_5  and  C_6
REMARK    5  A    between atoms: C_6  and  C_7
REMARK                            x       y       z     vdW  Elec       q    Type
REMARK                         _______ _______ _______ _____ _____    ______ ____
ROOT
ATOM      1  C   UNL     1      -6.625  -1.688 124.234  0.00  0.00    +0.000 C 
ATOM      2 BR   UNL     1      -5.247  -2.952 123.543  0.00  0.00    +0.000 Br
ENDROOT
BRANCH   1   4
ATOM      3 BR   UNL     1      -9.146  -3.338 124.110  0.00  0.00    +0.000 Br
ATOM      4  C   UNL     1      -7.680  -2.464 125.059  0.00  0.00    +0.000 C 
ENDBRANCH   1   4
BRANCH   1   5
ATOM      5  C   UNL     1      -5.882  -0.859 125.269  0.00  0.00    +0.000 C 
ATOM      6  N   UNL     1      -5.265  -0.171 126.128  0.00  0.00    +0.000 NA
ENDBRANCH   1   5
BRANCH   1   7
ATOM      7  C   UNL     1      -7.127  -0.804 123.119  0.00  0.00    +0.000 C 
BRANCH   7   8
ATOM      8  C   UNL     1      -7.980   0.310 123.659  0.00  0.00    +0.000 C 
BRANCH   8   9
ATOM      9  C   UNL     1      -9.362   0.264 123.029  0.00  0.00    +0.000 C 
ATOM     10  N   UNL     1     -10.509   0.226 122.505  0.00  0.00    +0.000 NA
ENDBRANCH   8   9
ENDBRANCH   7   8
ENDBRANCH   1   7
TORSDOF 5
ENDMDL
MODEL 9
REMARK VINA RESULT:      -3.7     11.442     12.672
REMARK  Name = Bromothalonil
REMARK  5 active torsions:
REMARK  status: ('A' for Active; 'I' for Inactive)
REMARK    1  A    between atoms: C_2  and  C_3
REMARK    2  A    between atoms: C_3  and  C_5
REMARK    3  A    between atoms: C_3  and  C_9
REMARK    4  A    between atoms: C_5  and  C_6
REMARK    5  A    between atoms: C_6  and  C_7
REMARK                            x       y       z     vdW  Elec       q    Type
REMARK                         _______ _______ _______ _____ _____    ______ ____
ROOT
ATOM      1  C   UNL     1      -7.567  -2.158 124.246  0.00  0.00    +0.000 C 
ATOM      2 BR   UNL     1      -9.137  -3.301 123.795  0.00  0.00    +0.000 Br
ENDROOT
BRANCH   1   4
ATOM      3 BR   UNL     1      -8.557  -3.013 126.964  0.00  0.00    +0.000 Br
ATOM      4  C   UNL     1      -7.579  -1.828 125.759  0.00  0.00    +0.000 C 
ENDBRANCH   1   4
BRANCH   1   5
ATOM      5  C   UNL     1      -6.374  -3.084 124.078  0.00  0.00    +0.000 C 
ATOM      6  N   UNL     1      -5.384  -3.853 123.938  0.00  0.00    +0.000 NA
ENDBRANCH   1   5
BRANCH   1   7
ATOM      7  C   UNL     1      -7.471  -1.001 123.283  0.00  0.00    +0.000 C 
BRANCH   7   8
ATOM      8  C   UNL     1      -8.228   0.191 123.799  0.00  0.00    +0.000 C 
BRANCH   8   9
ATOM      9  C   UNL     1      -9.563   0.315 123.081  0.00  0.00    +0.000 C 
ATOM     10  N   UNL     1     -10.670   0.417 122.487  0.00  0.00    +0.000 NA
ENDBRANCH   8   9
ENDBRANCH   7   8
ENDBRANCH   1   7
TORSDOF 5
ENDMDL
