MODEL 1
REMARK VINA RESULT:      -7.1      0.000      0.000
REMARK  Name = Bromazepam
REMARK  1 active torsions:
REMARK  status: ('A' for Active; 'I' for Inactive)
REMARK    1  A    between atoms: C_11  and  C_12
REMARK                            x       y       z     vdW  Elec       q    Type
REMARK                         _______ _______ _______ _____ _____    ______ ____
ROOT
ATOM      1 BR   UNL     1      -7.209   4.210 118.629  0.00  0.00    +0.000 Br
ATOM      2  C   UNL     1      -6.533   4.183 120.393  0.00  0.00    +0.000 A 
ATOM      3  C   UNL     1      -7.286   3.599 121.405  0.00  0.00    +0.000 A 
ATOM      4  C   UNL     1      -6.799   3.572 122.722  0.00  0.00    +0.000 A 
ATOM      5  C   UNL     1      -5.543   4.125 123.009  0.00  0.00    +0.000 A 
ATOM      6  N   UNL     1      -4.967   4.149 124.286  0.00  0.00    +0.000 N 
ATOM      7  C   UNL     1      -5.634   4.326 125.468  0.00  0.00    +0.000 C 
ATOM      8  O   UNL     1      -4.988   4.426 126.517  0.00  0.00    +0.000 OA
ATOM      9  C   UNL     1      -7.138   4.541 125.404  0.00  0.00    +0.000 C 
ATOM     10  N   UNL     1      -7.824   3.326 124.960  0.00  0.00    +0.000 NA
ATOM     11  C   UNL     1      -7.641   2.898 123.753  0.00  0.00    +0.000 C 
ATOM     12  C   UNL     1      -4.787   4.691 121.973  0.00  0.00    +0.000 A 
ATOM     13  C   UNL     1      -5.289   4.739 120.671  0.00  0.00    +0.000 A 
ATOM     14  H   UNL     1      -3.960   4.202 124.377  0.00  0.00    +0.000 HD
ENDROOT
BRANCH  11  15
ATOM     15  C   UNL     1      -8.326   1.629 123.340  0.00  0.00    +0.000 A 
ATOM     16  C   UNL     1      -9.609   1.667 122.811  0.00  0.00    +0.000 A 
ATOM     17  C   UNL     1     -10.240   0.456 122.531  0.00  0.00    +0.000 A 
ATOM     18  C   UNL     1      -9.549  -0.734 122.733  0.00  0.00    +0.000 A 
ATOM     19  C   UNL     1      -8.236  -0.665 123.171  0.00  0.00    +0.000 A 
ATOM     20  N   UNL     1      -7.607   0.488 123.492  0.00  0.00    +0.000 NA
ENDBRANCH  11  15
TORSDOF 1
ENDMDL
MODEL 2
REMARK VINA RESULT:      -7.1      2.387      4.497
REMARK  Name = Bromazepam
REMARK  1 active torsions:
REMARK  status: ('A' for Active; 'I' for Inactive)
REMARK    1  A    between atoms: C_11  and  C_12
REMARK                            x       y       z     vdW  Elec       q    Type
REMARK                         _______ _______ _______ _____ _____    ______ ____
ROOT
ATOM      1 BR   UNL     1      -8.032  -1.959 122.725  0.00  0.00    +0.000 Br
ATOM      2  C   UNL     1      -7.875  -0.448 123.848  0.00  0.00    +0.000 A 
ATOM      3  C   UNL     1      -7.332   0.727 123.341  0.00  0.00    +0.000 A 
ATOM      4  C   UNL     1      -7.207   1.860 124.162  0.00  0.00    +0.000 A 
ATOM      5  C   UNL     1      -7.645   1.803 125.494  0.00  0.00    +0.000 A 
ATOM      6  N   UNL     1      -7.565   2.873 126.394  0.00  0.00    +0.000 N 
ATOM      7  C   UNL     1      -6.555   3.795 126.464  0.00  0.00    +0.000 C 
ATOM      8  O   UNL     1      -6.562   4.630 127.375  0.00  0.00    +0.000 OA
ATOM      9  C   UNL     1      -5.392   3.642 125.496  0.00  0.00    +0.000 C 
ATOM     10  N   UNL     1      -5.817   3.906 124.119  0.00  0.00    +0.000 NA
ATOM     11  C   UNL     1      -6.650   3.099 123.546  0.00  0.00    +0.000 C 
ATOM     12  C   UNL     1      -8.209   0.617 125.983  0.00  0.00    +0.000 A 
ATOM     13  C   UNL     1      -8.306  -0.514 125.169  0.00  0.00    +0.000 A 
ATOM     14  H   UNL     1      -8.205   2.913 127.177  0.00  0.00    +0.000 HD
ENDROOT
BRANCH  11  15
ATOM     15  C   UNL     1      -7.097   3.416 122.150  0.00  0.00    +0.000 A 
ATOM     16  C   UNL     1      -6.160   3.627 121.146  0.00  0.00    +0.000 A 
ATOM     17  C   UNL     1      -6.622   4.012 119.889  0.00  0.00    +0.000 A 
ATOM     18  C   UNL     1      -7.991   4.115 119.668  0.00  0.00    +0.000 A 
ATOM     19  C   UNL     1      -8.850   3.789 120.705  0.00  0.00    +0.000 A 
ATOM     20  N   UNL     1      -8.438   3.452 121.948  0.00  0.00    +0.000 NA
ENDBRANCH  11  15
TORSDOF 1
ENDMDL
MODEL 3
REMARK VINA RESULT:      -6.7      1.731      2.328
REMARK  Name = Bromazepam
REMARK  1 active torsions:
REMARK  status: ('A' for Active; 'I' for Inactive)
REMARK    1  A    between atoms: C_11  and  C_12
REMARK                            x       y       z     vdW  Elec       q    Type
REMARK                         _______ _______ _______ _____ _____    ______ ____
ROOT
ATOM      1 BR   UNL     1      -6.668   3.911 120.252  0.00  0.00    +0.000 Br
ATOM      2  C   UNL     1      -6.336   3.630 122.091  0.00  0.00    +0.000 A 
ATOM      3  C   UNL     1      -7.038   2.640 122.769  0.00  0.00    +0.000 A 
ATOM      4  C   UNL     1      -6.805   2.418 124.136  0.00  0.00    +0.000 A 
ATOM      5  C   UNL     1      -5.850   3.192 124.811  0.00  0.00    +0.000 A 
ATOM      6  N   UNL     1      -5.542   3.052 126.171  0.00  0.00    +0.000 N 
ATOM      7  C   UNL     1      -6.428   2.753 127.171  0.00  0.00    +0.000 C 
ATOM      8  O   UNL     1      -6.038   2.759 128.344  0.00  0.00    +0.000 OA
ATOM      9  C   UNL     1      -7.890   2.578 126.790  0.00  0.00    +0.000 C 
ATOM     10  N   UNL     1      -8.079   1.372 125.980  0.00  0.00    +0.000 NA
ATOM     11  C   UNL     1      -7.565   1.316 124.794  0.00  0.00    +0.000 C 
ATOM     12  C   UNL     1      -5.136   4.173 124.108  0.00  0.00    +0.000 A 
ATOM     13  C   UNL     1      -5.392   4.406 122.755  0.00  0.00    +0.000 A 
ATOM     14  H   UNL     1      -4.633   3.343 126.508  0.00  0.00    +0.000 HD
ENDROOT
BRANCH  11  15
ATOM     15  C   UNL     1      -7.743   0.055 124.003  0.00  0.00    +0.000 A 
ATOM     16  C   UNL     1      -6.651  -0.758 123.725  0.00  0.00    +0.000 A 
ATOM     17  C   UNL     1      -6.852  -1.868 122.907  0.00  0.00    +0.000 A 
ATOM     18  C   UNL     1      -8.133  -2.156 122.450  0.00  0.00    +0.000 A 
ATOM     19  C   UNL     1      -9.175  -1.341 122.862  0.00  0.00    +0.000 A 
ATOM     20  N   UNL     1      -9.013  -0.233 123.620  0.00  0.00    +0.000 NA
ENDBRANCH  11  15
TORSDOF 1
ENDMDL
MODEL 4
REMARK VINA RESULT:      -6.5      6.666      8.603
REMARK  Name = Bromazepam
REMARK  1 active torsions:
REMARK  status: ('A' for Active; 'I' for Inactive)
REMARK    1  A    between atoms: C_11  and  C_12
REMARK                            x       y       z     vdW  Elec       q    Type
REMARK                         _______ _______ _______ _____ _____    ______ ____
ROOT
ATOM      1 BR   UNL     1      -7.418   4.233 126.150  0.00  0.00    +0.000 Br
ATOM      2  C   UNL     1      -7.943   4.006 127.950  0.00  0.00    +0.000 A 
ATOM      3  C   UNL     1      -8.628   5.028 128.598  0.00  0.00    +0.000 A 
ATOM      4  C   UNL     1      -9.024   4.876 129.936  0.00  0.00    +0.000 A 
ATOM      5  C   UNL     1      -8.737   3.682 130.614  0.00  0.00    +0.000 A 
ATOM      6  N   UNL     1      -9.087   3.430 131.946  0.00  0.00    +0.000 N 
ATOM      7  C   UNL     1      -9.090   4.343 132.966  0.00  0.00    +0.000 C 
ATOM      8  O   UNL     1      -9.325   3.962 134.118  0.00  0.00    +0.000 OA
ATOM      9  C   UNL     1      -8.652   5.764 132.642  0.00  0.00    +0.000 C 
ATOM     10  N   UNL     1      -9.624   6.426 131.769  0.00  0.00    +0.000 NA
ATOM     11  C   UNL     1      -9.787   5.996 130.559  0.00  0.00    +0.000 C 
ATOM     12  C   UNL     1      -8.064   2.653 129.940  0.00  0.00    +0.000 A 
ATOM     13  C   UNL     1      -7.649   2.821 128.617  0.00  0.00    +0.000 A 
ATOM     14  H   UNL     1      -9.201   2.474 132.259  0.00  0.00    +0.000 HD
ENDROOT
BRANCH  11  15
ATOM     15  C   UNL     1     -10.816   6.670 129.701  0.00  0.00    +0.000 A 
ATOM     16  C   UNL     1     -10.578   7.937 129.186  0.00  0.00    +0.000 A 
ATOM     17  C   UNL     1     -11.602   8.559 128.474  0.00  0.00    +0.000 A 
ATOM     18  C   UNL     1     -12.793   7.876 128.257  0.00  0.00    +0.000 A 
ATOM     19  C   UNL     1     -12.900   6.577 128.727  0.00  0.00    +0.000 A 
ATOM     20  N   UNL     1     -11.945   5.957 129.455  0.00  0.00    +0.000 NA
ENDBRANCH  11  15
TORSDOF 1
ENDMDL
MODEL 5
REMARK VINA RESULT:      -6.5      5.265      7.179
REMARK  Name = Bromazepam
REMARK  1 active torsions:
REMARK  status: ('A' for Active; 'I' for Inactive)
REMARK    1  A    between atoms: C_11  and  C_12
REMARK                            x       y       z     vdW  Elec       q    Type
REMARK                         _______ _______ _______ _____ _____    ______ ____
ROOT
ATOM      1 BR   UNL     1      -4.013  -4.791 123.511  0.00  0.00    +0.000 Br
ATOM      2  C   UNL     1      -5.248  -3.388 123.782  0.00  0.00    +0.000 A 
ATOM      3  C   UNL     1      -5.901  -3.278 125.005  0.00  0.00    +0.000 A 
ATOM      4  C   UNL     1      -6.823  -2.242 125.223  0.00  0.00    +0.000 A 
ATOM      5  C   UNL     1      -7.074  -1.310 124.205  0.00  0.00    +0.000 A 
ATOM      6  N   UNL     1      -7.973  -0.242 124.321  0.00  0.00    +0.000 N 
ATOM      7  C   UNL     1      -9.166  -0.261 124.990  0.00  0.00    +0.000 C 
ATOM      8  O   UNL     1      -9.910   0.724 124.927  0.00  0.00    +0.000 OA
ATOM      9  C   UNL     1      -9.580  -1.564 125.657  0.00  0.00    +0.000 C 
ATOM     10  N   UNL     1      -8.703  -1.876 126.789  0.00  0.00    +0.000 NA
ATOM     11  C   UNL     1      -7.460  -2.160 126.569  0.00  0.00    +0.000 C 
ATOM     12  C   UNL     1      -6.392  -1.423 122.986  0.00  0.00    +0.000 A 
ATOM     13  C   UNL     1      -5.496  -2.471 122.766  0.00  0.00    +0.000 A 
ATOM     14  H   UNL     1      -7.845   0.581 123.745  0.00  0.00    +0.000 HD
ENDROOT
BRANCH  11  15
ATOM     15  C   UNL     1      -6.578  -2.437 127.750  0.00  0.00    +0.000 A 
ATOM     16  C   UNL     1      -5.295  -1.909 127.805  0.00  0.00    +0.000 A 
ATOM     17  C   UNL     1      -4.481  -2.273 128.877  0.00  0.00    +0.000 A 
ATOM     18  C   UNL     1      -4.994  -3.095 129.874  0.00  0.00    +0.000 A 
ATOM     19  C   UNL     1      -6.319  -3.491 129.781  0.00  0.00    +0.000 A 
ATOM     20  N   UNL     1      -7.125  -3.192 128.736  0.00  0.00    +0.000 NA
ENDBRANCH  11  15
TORSDOF 1
ENDMDL
MODEL 6
REMARK VINA RESULT:      -6.4      7.129      9.277
REMARK  Name = Bromazepam
REMARK  1 active torsions:
REMARK  status: ('A' for Active; 'I' for Inactive)
REMARK    1  A    between atoms: C_11  and  C_12
REMARK                            x       y       z     vdW  Elec       q    Type
REMARK                         _______ _______ _______ _____ _____    ______ ____
ROOT
ATOM      1 BR   UNL     1      -4.850   5.168 132.809  0.00  0.00    +0.000 Br
ATOM      2  C   UNL     1      -6.720   5.411 132.695  0.00  0.00    +0.000 A 
ATOM      3  C   UNL     1      -7.352   5.287 131.463  0.00  0.00    +0.000 A 
ATOM      4  C   UNL     1      -8.741   5.466 131.360  0.00  0.00    +0.000 A 
ATOM      5  C   UNL     1      -9.490   5.756 132.509  0.00  0.00    +0.000 A 
ATOM      6  N   UNL     1     -10.877   5.953 132.515  0.00  0.00    +0.000 N 
ATOM      7  C   UNL     1     -11.609   6.565 131.534  0.00  0.00    +0.000 C 
ATOM      8  O   UNL     1     -12.816   6.761 131.714  0.00  0.00    +0.000 OA
ATOM      9  C   UNL     1     -10.857   7.111 130.330  0.00  0.00    +0.000 C 
ATOM     10  N   UNL     1     -10.300   6.023 129.522  0.00  0.00    +0.000 NA
ATOM     11  C   UNL     1      -9.360   5.283 130.016  0.00  0.00    +0.000 C 
ATOM     12  C   UNL     1      -8.840   5.857 133.748  0.00  0.00    +0.000 A 
ATOM     13  C   UNL     1      -7.455   5.705 133.838  0.00  0.00    +0.000 A 
ATOM     14  H   UNL     1     -11.400   5.786 133.366  0.00  0.00    +0.000 HD
ENDROOT
BRANCH  11  15
ATOM     15  C   UNL     1      -8.837   4.152 129.180  0.00  0.00    +0.000 A 
ATOM     16  C   UNL     1      -9.013   2.838 129.591  0.00  0.00    +0.000 A 
ATOM     17  C   UNL     1      -8.427   1.828 128.830  0.00  0.00    +0.000 A 
ATOM     18  C   UNL     1      -7.742   2.162 127.667  0.00  0.00    +0.000 A 
ATOM     19  C   UNL     1      -7.704   3.494 127.287  0.00  0.00    +0.000 A 
ATOM     20  N   UNL     1      -8.225   4.504 128.021  0.00  0.00    +0.000 NA
ENDBRANCH  11  15
TORSDOF 1
ENDMDL
MODEL 7
REMARK VINA RESULT:      -6.4      4.726      6.968
REMARK  Name = Bromazepam
REMARK  1 active torsions:
REMARK  status: ('A' for Active; 'I' for Inactive)
REMARK    1  A    between atoms: C_11  and  C_12
REMARK                            x       y       z     vdW  Elec       q    Type
REMARK                         _______ _______ _______ _____ _____    ______ ____
ROOT
ATOM      1 BR   UNL     1      -7.944  -3.286 128.667  0.00  0.00    +0.000 Br
ATOM      2  C   UNL     1      -8.350  -2.447 127.023  0.00  0.00    +0.000 A 
ATOM      3  C   UNL     1      -8.205  -1.070 126.904  0.00  0.00    +0.000 A 
ATOM      4  C   UNL     1      -8.503  -0.430 125.690  0.00  0.00    +0.000 A 
ATOM      5  C   UNL     1      -8.936  -1.190 124.593  0.00  0.00    +0.000 A 
ATOM      6  N   UNL     1      -9.259  -0.651 123.341  0.00  0.00    +0.000 N 
ATOM      7  C   UNL     1      -9.871   0.552 123.115  0.00  0.00    +0.000 C 
ATOM      8  O   UNL     1     -10.188   0.861 121.961  0.00  0.00    +0.000 OA
ATOM      9  C   UNL     1     -10.265   1.383 124.327  0.00  0.00    +0.000 C 
ATOM     10  N   UNL     1      -9.080   1.883 125.028  0.00  0.00    +0.000 NA
ATOM     11  C   UNL     1      -8.290   1.045 125.619  0.00  0.00    +0.000 C 
ATOM     12  C   UNL     1      -9.057  -2.580 124.724  0.00  0.00    +0.000 A 
ATOM     13  C   UNL     1      -8.784  -3.207 125.942  0.00  0.00    +0.000 A 
ATOM     14  H   UNL     1      -9.196  -1.235 122.517  0.00  0.00    +0.000 HD
ENDROOT
BRANCH  11  15
ATOM     15  C   UNL     1      -7.065   1.583 126.295  0.00  0.00    +0.000 A 
ATOM     16  C   UNL     1      -5.808   1.362 125.746  0.00  0.00    +0.000 A 
ATOM     17  C   UNL     1      -4.695   1.799 126.461  0.00  0.00    +0.000 A 
ATOM     18  C   UNL     1      -4.878   2.485 127.657  0.00  0.00    +0.000 A 
ATOM     19  C   UNL     1      -6.174   2.743 128.073  0.00  0.00    +0.000 A 
ATOM     20  N   UNL     1      -7.277   2.299 127.428  0.00  0.00    +0.000 NA
ENDBRANCH  11  15
TORSDOF 1
ENDMDL
MODEL 8
REMARK VINA RESULT:      -6.4      8.830     10.734
REMARK  Name = Bromazepam
REMARK  1 active torsions:
REMARK  status: ('A' for Active; 'I' for Inactive)
REMARK    1  A    between atoms: C_11  and  C_12
REMARK                            x       y       z     vdW  Elec       q    Type
REMARK                         _______ _______ _______ _____ _____    ______ ____
ROOT
ATOM      1 BR   UNL     1      -6.023   5.466 135.951  0.00  0.00    +0.000 Br
ATOM      2  C   UNL     1      -7.263   5.156 134.560  0.00  0.00    +0.000 A 
ATOM      3  C   UNL     1      -7.091   5.792 133.335  0.00  0.00    +0.000 A 
ATOM      4  C   UNL     1      -8.004   5.574 132.291  0.00  0.00    +0.000 A 
ATOM      5  C   UNL     1      -9.083   4.699 132.484  0.00  0.00    +0.000 A 
ATOM      6  N   UNL     1     -10.048   4.413 131.510  0.00  0.00    +0.000 N 
ATOM      7  C   UNL     1     -10.555   5.294 130.594  0.00  0.00    +0.000 C 
ATOM      8  O   UNL     1     -11.477   4.933 129.854  0.00  0.00    +0.000 OA
ATOM      9  C   UNL     1     -10.051   6.729 130.641  0.00  0.00    +0.000 C 
ATOM     10  N   UNL     1      -8.643   6.803 130.242  0.00  0.00    +0.000 NA
ATOM     11  C   UNL     1      -7.741   6.259 130.993  0.00  0.00    +0.000 C 
ATOM     12  C   UNL     1      -9.230   4.049 133.718  0.00  0.00    +0.000 A 
ATOM     13  C   UNL     1      -8.334   4.292 134.761  0.00  0.00    +0.000 A 
ATOM     14  H   UNL     1     -10.555   3.538 131.553  0.00  0.00    +0.000 HD
ENDROOT
BRANCH  11  15
ATOM     15  C   UNL     1      -6.313   6.318 130.539  0.00  0.00    +0.000 A 
ATOM     16  C   UNL     1      -5.651   5.159 130.156  0.00  0.00    +0.000 A 
ATOM     17  C   UNL     1      -4.298   5.252 129.833  0.00  0.00    +0.000 A 
ATOM     18  C   UNL     1      -3.678   6.496 129.850  0.00  0.00    +0.000 A 
ATOM     19  C   UNL     1      -4.446   7.609 130.151  0.00  0.00    +0.000 A 
ATOM     20  N   UNL     1      -5.749   7.552 130.508  0.00  0.00    +0.000 NA
ENDBRANCH  11  15
TORSDOF 1
ENDMDL
MODEL 9
REMARK VINA RESULT:      -6.3      2.866      4.902
REMARK  Name = Bromazepam
REMARK  1 active torsions:
REMARK  status: ('A' for Active; 'I' for Inactive)
REMARK    1  A    between atoms: C_11  and  C_12
REMARK                            x       y       z     vdW  Elec       q    Type
REMARK                         _______ _______ _______ _____ _____    ______ ____
ROOT
ATOM      1 BR   UNL     1      -6.064  -2.344 122.852  0.00  0.00    +0.000 Br
ATOM      2  C   UNL     1      -6.883  -1.228 124.138  0.00  0.00    +0.000 A 
ATOM      3  C   UNL     1      -6.751   0.152 124.029  0.00  0.00    +0.000 A 
ATOM      4  C   UNL     1      -7.352   0.996 124.977  0.00  0.00    +0.000 A 
ATOM      5  C   UNL     1      -8.099   0.441 126.027  0.00  0.00    +0.000 A 
ATOM      6  N   UNL     1      -8.737   1.192 127.022  0.00  0.00    +0.000 N 
ATOM      7  C   UNL     1      -8.267   2.348 127.585  0.00  0.00    +0.000 C 
ATOM      8  O   UNL     1      -8.886   2.856 128.526  0.00  0.00    +0.000 OA
ATOM      9  C   UNL     1      -6.916   2.865 127.113  0.00  0.00    +0.000 C 
ATOM     10  N   UNL     1      -6.986   3.326 125.725  0.00  0.00    +0.000 NA
ATOM     11  C   UNL     1      -7.203   2.467 124.781  0.00  0.00    +0.000 C 
ATOM     12  C   UNL     1      -8.240  -0.952 126.109  0.00  0.00    +0.000 A 
ATOM     13  C   UNL     1      -7.616  -1.786 125.179  0.00  0.00    +0.000 A 
ATOM     14  H   UNL     1      -9.535   0.801 127.505  0.00  0.00    +0.000 HD
ENDROOT
BRANCH  11  15
ATOM     15  C   UNL     1      -7.307   2.974 123.373  0.00  0.00    +0.000 A 
ATOM     16  C   UNL     1      -8.534   2.986 122.723  0.00  0.00    +0.000 A 
ATOM     17  C   UNL     1      -8.564   3.376 121.385  0.00  0.00    +0.000 A 
ATOM     18  C   UNL     1      -7.388   3.792 120.771  0.00  0.00    +0.000 A 
ATOM     19  C   UNL     1      -6.231   3.839 121.531  0.00  0.00    +0.000 A 
ATOM     20  N   UNL     1      -6.156   3.429 122.818  0.00  0.00    +0.000 NA
ENDBRANCH  11  15
TORSDOF 1
ENDMDL
