MODEL 1
REMARK VINA RESULT:      -5.7      0.000      0.000
REMARK  Name = Bromotheophylline
REMARK  2 active torsions:
REMARK  status: ('A' for Active; 'I' for Inactive)
REMARK    1  A    between atoms: C_1  and  N_2
REMARK    2  A    between atoms: N_11  and  C_12
REMARK                            x       y       z     vdW  Elec       q    Type
REMARK                         _______ _______ _______ _____ _____    ______ ____
ROOT
ATOM      1  C   UNL     1     -13.082   7.915 131.486  0.00  0.00    +0.000 C 
ATOM      2  N   UNL     1     -12.088   7.420 130.554  0.00  0.00    +0.000 N 
ATOM      3  C   UNL     1     -10.963   6.746 130.971  0.00  0.00    +0.000 A 
ATOM      4  C   UNL     1     -10.049   6.293 130.073  0.00  0.00    +0.000 A 
ATOM      5  N   UNL     1      -9.079   5.683 130.810  0.00  0.00    +0.000 N 
ATOM      6  C   UNL     1      -9.453   5.797 132.123  0.00  0.00    +0.000 A 
ATOM      7 BR   UNL     1      -8.446   5.114 133.539  0.00  0.00    +0.000 Br
ATOM      8  N   UNL     1     -10.598   6.441 132.250  0.00  0.00    +0.000 NA
ATOM      9  C   UNL     1     -10.156   6.460 128.673  0.00  0.00    +0.000 A 
ATOM     10  O   UNL     1      -9.301   6.036 127.901  0.00  0.00    +0.000 OA
ATOM     11  N   UNL     1     -11.312   7.143 128.298  0.00  0.00    +0.000 N 
ATOM     12  C   UNL     1     -11.533   7.366 126.881  0.00  0.00    +0.000 C 
ATOM     13  C   UNL     1     -12.291   7.640 129.184  0.00  0.00    +0.000 A 
ATOM     14  O   UNL     1     -13.285   8.242 128.768  0.00  0.00    +0.000 OA
ATOM     15  H   UNL     1      -8.244   5.234 130.458  0.00  0.00    +0.000 HD
ENDROOT
TORSDOF 0
ENDMDL
MODEL 2
REMARK VINA RESULT:      -5.5      1.544      3.016
REMARK  Name = Bromotheophylline
REMARK  2 active torsions:
REMARK  status: ('A' for Active; 'I' for Inactive)
REMARK    1  A    between atoms: C_1  and  N_2
REMARK    2  A    between atoms: N_11  and  C_12
REMARK                            x       y       z     vdW  Elec       q    Type
REMARK                         _______ _______ _______ _____ _____    ______ ____
ROOT
ATOM      1  C   UNL     1      -8.639   5.209 128.721  0.00  0.00    +0.000 C 
ATOM      2  N   UNL     1      -9.713   5.712 129.554  0.00  0.00    +0.000 N 
ATOM      3  C   UNL     1      -9.737   5.519 130.917  0.00  0.00    +0.000 A 
ATOM      4  C   UNL     1     -10.758   6.002 131.672  0.00  0.00    +0.000 A 
ATOM      5  N   UNL     1     -10.472   5.641 132.954  0.00  0.00    +0.000 N 
ATOM      6  C   UNL     1      -9.288   4.954 132.914  0.00  0.00    +0.000 A 
ATOM      7 BR   UNL     1      -8.462   4.243 134.430  0.00  0.00    +0.000 Br
ATOM      8  N   UNL     1      -8.817   4.865 131.684  0.00  0.00    +0.000 NA
ATOM      9  C   UNL     1     -11.859   6.726 131.156  0.00  0.00    +0.000 A 
ATOM     10  O   UNL     1     -12.760   7.139 131.878  0.00  0.00    +0.000 OA
ATOM     11  N   UNL     1     -11.790   6.899 129.774  0.00  0.00    +0.000 N 
ATOM     12  C   UNL     1     -12.864   7.636 129.133  0.00  0.00    +0.000 C 
ATOM     13  C   UNL     1     -10.759   6.417 128.941  0.00  0.00    +0.000 A 
ATOM     14  O   UNL     1     -10.778   6.609 127.722  0.00  0.00    +0.000 OA
ATOM     15  H   UNL     1     -11.025   5.840 133.777  0.00  0.00    +0.000 HD
ENDROOT
TORSDOF 0
ENDMDL
MODEL 3
REMARK VINA RESULT:      -5.4      2.068      3.271
REMARK  Name = Bromotheophylline
REMARK  2 active torsions:
REMARK  status: ('A' for Active; 'I' for Inactive)
REMARK    1  A    between atoms: C_1  and  N_2
REMARK    2  A    between atoms: N_11  and  C_12
REMARK                            x       y       z     vdW  Elec       q    Type
REMARK                         _______ _______ _______ _____ _____    ______ ____
ROOT
ATOM      1  C   UNL     1     -10.946   7.692 126.990  0.00  0.00    +0.000 C 
ATOM      2  N   UNL     1     -10.996   7.284 128.381  0.00  0.00    +0.000 N 
ATOM      3  C   UNL     1     -10.127   6.354 128.904  0.00  0.00    +0.000 A 
ATOM      4  C   UNL     1     -10.197   5.992 130.212  0.00  0.00    +0.000 A 
ATOM      5  N   UNL     1      -9.211   5.070 130.393  0.00  0.00    +0.000 N 
ATOM      6  C   UNL     1      -8.588   4.917 129.183  0.00  0.00    +0.000 A 
ATOM      7 BR   UNL     1      -7.154   3.754 128.907  0.00  0.00    +0.000 Br
ATOM      8  N   UNL     1      -9.126   5.688 128.257  0.00  0.00    +0.000 NA
ATOM      9  C   UNL     1     -11.135   6.514 131.134  0.00  0.00    +0.000 A 
ATOM     10  O   UNL     1     -11.162   6.152 132.306  0.00  0.00    +0.000 OA
ATOM     11  N   UNL     1     -11.990   7.453 130.561  0.00  0.00    +0.000 N 
ATOM     12  C   UNL     1     -12.990   8.065 131.417  0.00  0.00    +0.000 C 
ATOM     13  C   UNL     1     -11.966   7.863 129.212  0.00  0.00    +0.000 A 
ATOM     14  O   UNL     1     -12.766   8.699 128.781  0.00  0.00    +0.000 OA
ATOM     15  H   UNL     1      -8.981   4.590 131.254  0.00  0.00    +0.000 HD
ENDROOT
TORSDOF 0
ENDMDL
MODEL 4
REMARK VINA RESULT:      -5.3      3.271      5.315
REMARK  Name = Bromotheophylline
REMARK  2 active torsions:
REMARK  status: ('A' for Active; 'I' for Inactive)
REMARK    1  A    between atoms: C_1  and  N_2
REMARK    2  A    between atoms: N_11  and  C_12
REMARK                            x       y       z     vdW  Elec       q    Type
REMARK                         _______ _______ _______ _____ _____    ______ ____
ROOT
ATOM      1  C   UNL     1      -8.238   3.308 128.883  0.00  0.00    +0.000 C 
ATOM      2  N   UNL     1      -8.769   4.143 129.943  0.00  0.00    +0.000 N 
ATOM      3  C   UNL     1      -9.428   5.324 129.686  0.00  0.00    +0.000 A 
ATOM      4  C   UNL     1      -9.915   6.086 130.700  0.00  0.00    +0.000 A 
ATOM      5  N   UNL     1     -10.497   7.164 130.105  0.00  0.00    +0.000 N 
ATOM      6  C   UNL     1     -10.334   7.004 128.755  0.00  0.00    +0.000 A 
ATOM      7 BR   UNL     1     -10.965   8.227 127.493  0.00  0.00    +0.000 Br
ATOM      8  N   UNL     1      -9.686   5.890 128.470  0.00  0.00    +0.000 NA
ATOM      9  C   UNL     1      -9.800   5.756 132.071  0.00  0.00    +0.000 A 
ATOM     10  O   UNL     1     -10.253   6.479 132.953  0.00  0.00    +0.000 OA
ATOM     11  N   UNL     1      -9.130   4.552 132.282  0.00  0.00    +0.000 N 
ATOM     12  C   UNL     1      -8.960   4.106 133.653  0.00  0.00    +0.000 C 
ATOM     13  C   UNL     1      -8.600   3.724 131.270  0.00  0.00    +0.000 A 
ATOM     14  O   UNL     1      -8.013   2.673 131.544  0.00  0.00    +0.000 OA
ATOM     15  H   UNL     1     -10.960   7.935 130.569  0.00  0.00    +0.000 HD
ENDROOT
TORSDOF 0
ENDMDL
MODEL 5
REMARK VINA RESULT:      -5.2      8.383      9.539
REMARK  Name = Bromotheophylline
REMARK  2 active torsions:
REMARK  status: ('A' for Active; 'I' for Inactive)
REMARK    1  A    between atoms: C_1  and  N_2
REMARK    2  A    between atoms: N_11  and  C_12
REMARK                            x       y       z     vdW  Elec       q    Type
REMARK                         _______ _______ _______ _____ _____    ______ ____
ROOT
ATOM      1  C   UNL     1      -5.052   3.817 125.228  0.00  0.00    +0.000 C 
ATOM      2  N   UNL     1      -6.210   3.371 124.478  0.00  0.00    +0.000 N 
ATOM      3  C   UNL     1      -6.370   3.649 123.140  0.00  0.00    +0.000 A 
ATOM      4  C   UNL     1      -7.467   3.218 122.464  0.00  0.00    +0.000 A 
ATOM      5  N   UNL     1      -7.309   3.659 121.185  0.00  0.00    +0.000 N 
ATOM      6  C   UNL     1      -6.121   4.338 121.147  0.00  0.00    +0.000 A 
ATOM      7 BR   UNL     1      -5.447   5.141 119.602  0.00  0.00    +0.000 Br
ATOM      8  N   UNL     1      -5.526   4.348 122.325  0.00  0.00    +0.000 NA
ATOM      9  C   UNL     1      -8.516   2.467 123.044  0.00  0.00    +0.000 A 
ATOM     10  O   UNL     1      -9.491   2.103 122.393  0.00  0.00    +0.000 OA
ATOM     11  N   UNL     1      -8.310   2.207 124.398  0.00  0.00    +0.000 N 
ATOM     12  C   UNL     1      -9.320   1.434 125.097  0.00  0.00    +0.000 C 
ATOM     13  C   UNL     1      -7.195   2.633 125.150  0.00  0.00    +0.000 A 
ATOM     14  O   UNL     1      -7.092   2.364 126.351  0.00  0.00    +0.000 OA
ATOM     15  H   UNL     1      -7.945   3.513 120.411  0.00  0.00    +0.000 HD
ENDROOT
TORSDOF 0
ENDMDL
MODEL 6
REMARK VINA RESULT:      -5.1      9.153     10.325
REMARK  Name = Bromotheophylline
REMARK  2 active torsions:
REMARK  status: ('A' for Active; 'I' for Inactive)
REMARK    1  A    between atoms: C_1  and  N_2
REMARK    2  A    between atoms: N_11  and  C_12
REMARK                            x       y       z     vdW  Elec       q    Type
REMARK                         _______ _______ _______ _____ _____    ______ ____
ROOT
ATOM      1  C   UNL     1      -5.669   1.190 125.929  0.00  0.00    +0.000 C 
ATOM      2  N   UNL     1      -6.699   0.557 125.128  0.00  0.00    +0.000 N 
ATOM      3  C   UNL     1      -6.535  -0.693 124.577  0.00  0.00    +0.000 A 
ATOM      4  C   UNL     1      -7.519  -1.261 123.831  0.00  0.00    +0.000 A 
ATOM      5  N   UNL     1      -7.037  -2.475 123.447  0.00  0.00    +0.000 N 
ATOM      6  C   UNL     1      -5.780  -2.586 123.980  0.00  0.00    +0.000 A 
ATOM      7 BR   UNL     1      -4.692  -4.084 123.739  0.00  0.00    +0.000 Br
ATOM      8  N   UNL     1      -5.448  -1.514 124.674  0.00  0.00    +0.000 NA
ATOM      9  C   UNL     1      -8.764  -0.648 123.556  0.00  0.00    +0.000 A 
ATOM     10  O   UNL     1      -9.622  -1.199 122.872  0.00  0.00    +0.000 OA
ATOM     11  N   UNL     1      -8.886   0.613 124.137  0.00  0.00    +0.000 N 
ATOM     12  C   UNL     1     -10.128   1.334 123.928  0.00  0.00    +0.000 C 
ATOM     13  C   UNL     1      -7.898   1.252 124.915  0.00  0.00    +0.000 A 
ATOM     14  O   UNL     1      -8.084   2.377 125.389  0.00  0.00    +0.000 OA
ATOM     15  H   UNL     1      -7.513  -3.164 122.878  0.00  0.00    +0.000 HD
ENDROOT
TORSDOF 0
ENDMDL
MODEL 7
REMARK VINA RESULT:      -4.9      8.902      9.882
REMARK  Name = Bromotheophylline
REMARK  2 active torsions:
REMARK  status: ('A' for Active; 'I' for Inactive)
REMARK    1  A    between atoms: C_1  and  N_2
REMARK    2  A    between atoms: N_11  and  C_12
REMARK                            x       y       z     vdW  Elec       q    Type
REMARK                         _______ _______ _______ _____ _____    ______ ____
ROOT
ATOM      1  C   UNL     1      -9.190   1.929 123.014  0.00  0.00    +0.000 C 
ATOM      2  N   UNL     1      -8.626   0.701 123.539  0.00  0.00    +0.000 N 
ATOM      3  C   UNL     1      -7.523   0.693 124.363  0.00  0.00    +0.000 A 
ATOM      4  C   UNL     1      -7.017  -0.475 124.839  0.00  0.00    +0.000 A 
ATOM      5  N   UNL     1      -5.948  -0.127 125.608  0.00  0.00    +0.000 N 
ATOM      6  C   UNL     1      -5.856   1.238 125.560  0.00  0.00    +0.000 A 
ATOM      7 BR   UNL     1      -4.541   2.211 126.460  0.00  0.00    +0.000 Br
ATOM      8  N   UNL     1      -6.805   1.765 124.808  0.00  0.00    +0.000 NA
ATOM      9  C   UNL     1      -7.552  -1.752 124.550  0.00  0.00    +0.000 A 
ATOM     10  O   UNL     1      -7.057  -2.781 125.001  0.00  0.00    +0.000 OA
ATOM     11  N   UNL     1      -8.668  -1.694 123.717  0.00  0.00    +0.000 N 
ATOM     12  C   UNL     1      -9.308  -2.947 123.359  0.00  0.00    +0.000 C 
ATOM     13  C   UNL     1      -9.233  -0.514 123.190  0.00  0.00    +0.000 A 
ATOM     14  O   UNL     1     -10.221  -0.551 122.451  0.00  0.00    +0.000 OA
ATOM     15  H   UNL     1      -5.338  -0.754 126.116  0.00  0.00    +0.000 HD
ENDROOT
TORSDOF 0
ENDMDL
MODEL 8
REMARK VINA RESULT:      -4.9      9.395     10.788
REMARK  Name = Bromotheophylline
REMARK  2 active torsions:
REMARK  status: ('A' for Active; 'I' for Inactive)
REMARK    1  A    between atoms: C_1  and  N_2
REMARK    2  A    between atoms: N_11  and  C_12
REMARK                            x       y       z     vdW  Elec       q    Type
REMARK                         _______ _______ _______ _____ _____    ______ ____
ROOT
ATOM      1  C   UNL     1      -5.726  -1.914 125.632  0.00  0.00    +0.000 C 
ATOM      2  N   UNL     1      -6.874  -1.578 124.813  0.00  0.00    +0.000 N 
ATOM      3  C   UNL     1      -7.138  -0.289 124.411  0.00  0.00    +0.000 A 
ATOM      4  C   UNL     1      -8.222  -0.005 123.643  0.00  0.00    +0.000 A 
ATOM      5  N   UNL     1      -8.183   1.340 123.432  0.00  0.00    +0.000 N 
ATOM      6  C   UNL     1      -7.074   1.809 124.085  0.00  0.00    +0.000 A 
ATOM      7 BR   UNL     1      -6.575   3.608 124.097  0.00  0.00    +0.000 Br
ATOM      8  N   UNL     1      -6.417   0.837 124.690  0.00  0.00    +0.000 NA
ATOM      9  C   UNL     1      -9.155  -0.969 123.194  0.00  0.00    +0.000 A 
ATOM     10  O   UNL     1     -10.123  -0.664 122.504  0.00  0.00    +0.000 OA
ATOM     11  N   UNL     1      -8.845  -2.259 123.621  0.00  0.00    +0.000 N 
ATOM     12  C   UNL     1      -9.730  -3.335 123.212  0.00  0.00    +0.000 C 
ATOM     13  C   UNL     1      -7.739  -2.611 124.421  0.00  0.00    +0.000 A 
ATOM     14  O   UNL     1      -7.540  -3.781 124.762  0.00  0.00    +0.000 OA
ATOM     15  H   UNL     1      -8.844   1.889 122.898  0.00  0.00    +0.000 HD
ENDROOT
TORSDOF 0
ENDMDL
MODEL 9
REMARK VINA RESULT:      -4.8      6.794      8.358
REMARK  Name = Bromotheophylline
REMARK  2 active torsions:
REMARK  status: ('A' for Active; 'I' for Inactive)
REMARK    1  A    between atoms: C_1  and  N_2
REMARK    2  A    between atoms: N_11  and  C_12
REMARK                            x       y       z     vdW  Elec       q    Type
REMARK                         _______ _______ _______ _____ _____    ______ ____
ROOT
ATOM      1  C   UNL     1      -8.905   1.116 124.730  0.00  0.00    +0.000 C 
ATOM      2  N   UNL     1      -8.071   2.235 125.123  0.00  0.00    +0.000 N 
ATOM      3  C   UNL     1      -7.299   2.928 124.218  0.00  0.00    +0.000 A 
ATOM      4  C   UNL     1      -6.527   3.974 124.617  0.00  0.00    +0.000 A 
ATOM      5  N   UNL     1      -5.907   4.424 123.491  0.00  0.00    +0.000 N 
ATOM      6  C   UNL     1      -6.333   3.628 122.461  0.00  0.00    +0.000 A 
ATOM      7 BR   UNL     1      -5.766   3.843 120.696  0.00  0.00    +0.000 Br
ATOM      8  N   UNL     1      -7.183   2.707 122.876  0.00  0.00    +0.000 NA
ATOM      9  C   UNL     1      -6.442   4.438 125.950  0.00  0.00    +0.000 A 
ATOM     10  O   UNL     1      -5.726   5.385 126.262  0.00  0.00    +0.000 OA
ATOM     11  N   UNL     1      -7.242   3.709 126.828  0.00  0.00    +0.000 N 
ATOM     12  C   UNL     1      -7.241   4.103 128.225  0.00  0.00    +0.000 C 
ATOM     13  C   UNL     1      -8.057   2.615 126.472  0.00  0.00    +0.000 A 
ATOM     14  O   UNL     1      -8.732   2.018 127.316  0.00  0.00    +0.000 OA
ATOM     15  H   UNL     1      -5.257   5.197 123.426  0.00  0.00    +0.000 HD
ENDROOT
TORSDOF 0
ENDMDL
