MODEL 1
REMARK VINA RESULT:      -7.8      0.000      0.000
REMARK  Name = Bromperidol
REMARK  7 active torsions:
REMARK  status: ('A' for Active; 'I' for Inactive)
REMARK    1  A    between atoms: O_1  and  C_2
REMARK    2  A    between atoms: C_2  and  C_20
REMARK    3  A    between atoms: N_5  and  C_6
REMARK    4  A    between atoms: C_6  and  C_7
REMARK    5  A    between atoms: C_7  and  C_8
REMARK    6  A    between atoms: C_8  and  C_9
REMARK    7  A    between atoms: C_9  and  C_11
REMARK                            x       y       z     vdW  Elec       q    Type
REMARK                         _______ _______ _______ _____ _____    ______ ____
ROOT
ATOM      1  C   UNL     1      -7.675   2.583 124.565  0.00  0.00    +0.000 C 
ATOM      2  C   UNL     1      -8.215   1.150 124.705  0.00  0.00    +0.000 C 
ATOM      3  C   UNL     1      -8.162   0.619 126.120  0.00  0.00    +0.000 C 
ATOM      4  N   UNL     1      -6.793   0.725 126.630  0.00  0.00    +0.000 NA
ATOM      5  C   UNL     1      -6.338   2.121 126.647  0.00  0.00    +0.000 C 
ATOM      6  C   UNL     1      -6.312   2.707 125.250  0.00  0.00    +0.000 C 
ENDROOT
BRANCH   1   7
ATOM      7  C   UNL     1      -7.539   3.004 123.106  0.00  0.00    +0.000 A 
ATOM      8  C   UNL     1      -8.673   3.067 122.281  0.00  0.00    +0.000 A 
ATOM      9  C   UNL     1      -8.575   3.531 120.969  0.00  0.00    +0.000 A 
ATOM     10  C   UNL     1      -7.339   3.928 120.467  0.00  0.00    +0.000 A 
ATOM     11 BR   UNL     1      -7.194   4.562 118.694  0.00  0.00    +0.000 Br
ATOM     12  C   UNL     1      -6.200   3.861 121.256  0.00  0.00    +0.000 A 
ATOM     13  C   UNL     1      -6.302   3.394 122.561  0.00  0.00    +0.000 A 
ENDBRANCH   1   7
BRANCH   1  14
ATOM     14  O   UNL     1      -8.595   3.494 125.183  0.00  0.00    +0.000 OA
ATOM     15  H   UNL     1      -8.136   4.337 125.331  0.00  0.00    +0.000 HD
ENDBRANCH   1  14
BRANCH   4  16
ATOM     16  C   UNL     1      -6.712   0.105 127.952  0.00  0.00    +0.000 C 
BRANCH  16  17
ATOM     17  C   UNL     1      -7.850  -0.884 128.166  0.00  0.00    +0.000 C 
BRANCH  17  18
ATOM     18  C   UNL     1      -7.343  -2.310 128.240  0.00  0.00    +0.000 C 
BRANCH  18  19
ATOM     19  C   UNL     1      -8.210  -3.199 127.376  0.00  0.00    +0.000 C 
ATOM     20  O   UNL     1      -8.976  -4.054 127.824  0.00  0.00    +0.000 OA
BRANCH  19  21
ATOM     21  C   UNL     1      -8.176  -2.979 125.919  0.00  0.00    +0.000 A 
ATOM     22  C   UNL     1      -9.356  -2.956 125.170  0.00  0.00    +0.000 A 
ATOM     23  C   UNL     1      -9.293  -2.716 123.799  0.00  0.00    +0.000 A 
ATOM     24  C   UNL     1      -8.057  -2.504 123.194  0.00  0.00    +0.000 A 
ATOM     25  F   UNL     1      -8.005  -2.267 121.877  0.00  0.00    +0.000 F 
ATOM     26  C   UNL     1      -6.879  -2.529 123.932  0.00  0.00    +0.000 A 
ATOM     27  C   UNL     1      -6.935  -2.765 125.304  0.00  0.00    +0.000 A 
ENDBRANCH  19  21
ENDBRANCH  18  19
ENDBRANCH  17  18
ENDBRANCH  16  17
ENDBRANCH   4  16
TORSDOF 7
ENDMDL
MODEL 2
REMARK VINA RESULT:      -7.4      1.563      2.239
REMARK  Name = Bromperidol
REMARK  7 active torsions:
REMARK  status: ('A' for Active; 'I' for Inactive)
REMARK    1  A    between atoms: O_1  and  C_2
REMARK    2  A    between atoms: C_2  and  C_20
REMARK    3  A    between atoms: N_5  and  C_6
REMARK    4  A    between atoms: C_6  and  C_7
REMARK    5  A    between atoms: C_7  and  C_8
REMARK    6  A    between atoms: C_8  and  C_9
REMARK    7  A    between atoms: C_9  and  C_11
REMARK                            x       y       z     vdW  Elec       q    Type
REMARK                         _______ _______ _______ _____ _____    ______ ____
ROOT
ATOM      1  C   UNL     1      -7.316   2.094 123.369  0.00  0.00    +0.000 C 
ATOM      2  C   UNL     1      -6.438   2.436 124.585  0.00  0.00    +0.000 C 
ATOM      3  C   UNL     1      -6.832   1.694 125.842  0.00  0.00    +0.000 C 
ATOM      4  N   UNL     1      -8.250   1.930 126.124  0.00  0.00    +0.000 NA
ATOM      5  C   UNL     1      -9.098   1.451 125.026  0.00  0.00    +0.000 C 
ATOM      6  C   UNL     1      -8.798   2.191 123.738  0.00  0.00    +0.000 C 
ENDROOT
BRANCH   1   7
ATOM      7  C   UNL     1      -7.038   3.013 122.184  0.00  0.00    +0.000 A 
ATOM      8  C   UNL     1      -5.745   3.521 121.973  0.00  0.00    +0.000 A 
ATOM      9  C   UNL     1      -5.458   4.294 120.848  0.00  0.00    +0.000 A 
ATOM     10  C   UNL     1      -6.463   4.574 119.927  0.00  0.00    +0.000 A 
ATOM     11 BR   UNL     1      -6.087   5.616 118.398  0.00  0.00    +0.000 Br
ATOM     12  C   UNL     1      -7.752   4.098 120.120  0.00  0.00    +0.000 A 
ATOM     13  C   UNL     1      -8.034   3.332 121.245  0.00  0.00    +0.000 A 
ENDBRANCH   1   7
BRANCH   1  14
ATOM     14  O   UNL     1      -7.025   0.756 122.941  0.00  0.00    +0.000 OA
ATOM     15  H   UNL     1      -7.386   0.140 123.600  0.00  0.00    +0.000 HD
ENDBRANCH   1  14
BRANCH   4  16
ATOM     16  C   UNL     1      -8.606   1.312 127.402  0.00  0.00    +0.000 C 
BRANCH  16  17
ATOM     17  C   UNL     1      -7.371   0.783 128.119  0.00  0.00    +0.000 C 
BRANCH  17  18
ATOM     18  C   UNL     1      -7.534  -0.671 128.511  0.00  0.00    +0.000 C 
BRANCH  18  19
ATOM     19  C   UNL     1      -6.811  -1.548 127.512  0.00  0.00    +0.000 C 
ATOM     20  O   UNL     1      -5.622  -1.859 127.608  0.00  0.00    +0.000 OA
BRANCH  19  21
ATOM     21  C   UNL     1      -7.597  -2.109 126.400  0.00  0.00    +0.000 A 
ATOM     22  C   UNL     1      -8.847  -2.692 126.629  0.00  0.00    +0.000 A 
ATOM     23  C   UNL     1      -9.581  -3.187 125.552  0.00  0.00    +0.000 A 
ATOM     24  C   UNL     1      -9.059  -3.095 124.264  0.00  0.00    +0.000 A 
ATOM     25  F   UNL     1      -9.772  -3.566 123.234  0.00  0.00    +0.000 F 
ATOM     26  C   UNL     1      -7.815  -2.518 124.029  0.00  0.00    +0.000 A 
ATOM     27  C   UNL     1      -7.079  -2.018 125.101  0.00  0.00    +0.000 A 
ENDBRANCH  19  21
ENDBRANCH  18  19
ENDBRANCH  17  18
ENDBRANCH  16  17
ENDBRANCH   4  16
TORSDOF 7
ENDMDL
MODEL 3
REMARK VINA RESULT:      -7.3      7.776      9.277
REMARK  Name = Bromperidol
REMARK  7 active torsions:
REMARK  status: ('A' for Active; 'I' for Inactive)
REMARK    1  A    between atoms: O_1  and  C_2
REMARK    2  A    between atoms: C_2  and  C_20
REMARK    3  A    between atoms: N_5  and  C_6
REMARK    4  A    between atoms: C_6  and  C_7
REMARK    5  A    between atoms: C_7  and  C_8
REMARK    6  A    between atoms: C_8  and  C_9
REMARK    7  A    between atoms: C_9  and  C_11
REMARK                            x       y       z     vdW  Elec       q    Type
REMARK                         _______ _______ _______ _____ _____    ______ ____
ROOT
ATOM      1  C   UNL     1      -9.012   5.810 132.350  0.00  0.00    +0.000 C 
ATOM      2  C   UNL     1      -9.134   4.277 132.331  0.00  0.00    +0.000 C 
ATOM      3  C   UNL     1      -8.038   3.575 133.102  0.00  0.00    +0.000 C 
ATOM      4  N   UNL     1      -6.733   4.012 132.603  0.00  0.00    +0.000 NA
ATOM      5  C   UNL     1      -6.556   5.459 132.773  0.00  0.00    +0.000 C 
ATOM      6  C   UNL     1      -7.588   6.235 131.981  0.00  0.00    +0.000 C 
ENDROOT
BRANCH   1   7
ATOM      7  C   UNL     1      -9.993   6.475 131.391  0.00  0.00    +0.000 A 
ATOM      8  C   UNL     1     -11.364   6.513 131.697  0.00  0.00    +0.000 A 
ATOM      9  C   UNL     1     -12.260   7.191 130.871  0.00  0.00    +0.000 A 
ATOM     10  C   UNL     1     -11.796   7.830 129.724  0.00  0.00    +0.000 A 
ATOM     11 BR   UNL     1     -12.998   8.753 128.600  0.00  0.00    +0.000 Br
ATOM     12  C   UNL     1     -10.450   7.794 129.391  0.00  0.00    +0.000 A 
ATOM     13  C   UNL     1      -9.561   7.114 130.215  0.00  0.00    +0.000 A 
ENDBRANCH   1   7
BRANCH   1  14
ATOM     14  O   UNL     1      -9.319   6.290 133.666  0.00  0.00    +0.000 OA
ATOM     15  H   UNL     1      -8.547   6.775 134.002  0.00  0.00    +0.000 HD
ENDBRANCH   1  14
BRANCH   4  16
ATOM     16  C   UNL     1      -5.674   3.248 133.263  0.00  0.00    +0.000 C 
BRANCH  16  17
ATOM     17  C   UNL     1      -5.296   2.017 132.450  0.00  0.00    +0.000 C 
BRANCH  17  18
ATOM     18  C   UNL     1      -4.006   2.228 131.686  0.00  0.00    +0.000 C 
BRANCH  18  19
ATOM     19  C   UNL     1      -4.321   2.568 130.245  0.00  0.00    +0.000 C 
ATOM     20  O   UNL     1      -5.120   1.938 129.552  0.00  0.00    +0.000 OA
BRANCH  19  21
ATOM     21  C   UNL     1      -3.676   3.761 129.668  0.00  0.00    +0.000 A 
ATOM     22  C   UNL     1      -3.519   4.926 130.425  0.00  0.00    +0.000 A 
ATOM     23  C   UNL     1      -2.878   6.028 129.861  0.00  0.00    +0.000 A 
ATOM     24  C   UNL     1      -2.405   5.954 128.553  0.00  0.00    +0.000 A 
ATOM     25  F   UNL     1      -1.784   7.014 128.020  0.00  0.00    +0.000 F 
ATOM     26  C   UNL     1      -2.560   4.799 127.794  0.00  0.00    +0.000 A 
ATOM     27  C   UNL     1      -3.197   3.692 128.353  0.00  0.00    +0.000 A 
ENDBRANCH  19  21
ENDBRANCH  18  19
ENDBRANCH  17  18
ENDBRANCH  16  17
ENDBRANCH   4  16
TORSDOF 7
ENDMDL
MODEL 4
REMARK VINA RESULT:      -7.3      6.051      7.089
REMARK  Name = Bromperidol
REMARK  7 active torsions:
REMARK  status: ('A' for Active; 'I' for Inactive)
REMARK    1  A    between atoms: O_1  and  C_2
REMARK    2  A    between atoms: C_2  and  C_20
REMARK    3  A    between atoms: N_5  and  C_6
REMARK    4  A    between atoms: C_6  and  C_7
REMARK    5  A    between atoms: C_7  and  C_8
REMARK    6  A    between atoms: C_8  and  C_9
REMARK    7  A    between atoms: C_9  and  C_11
REMARK                            x       y       z     vdW  Elec       q    Type
REMARK                         _______ _______ _______ _____ _____    ______ ____
ROOT
ATOM      1  C   UNL     1     -10.071   5.333 131.491  0.00  0.00    +0.000 C 
ATOM      2  C   UNL     1     -10.444   3.989 130.841  0.00  0.00    +0.000 C 
ATOM      3  C   UNL     1      -9.533   2.851 131.242  0.00  0.00    +0.000 C 
ATOM      4  N   UNL     1      -8.144   3.214 130.955  0.00  0.00    +0.000 NA
ATOM      5  C   UNL     1      -7.740   4.409 131.706  0.00  0.00    +0.000 C 
ATOM      6  C   UNL     1      -8.576   5.611 131.316  0.00  0.00    +0.000 C 
ENDROOT
BRANCH   1   7
ATOM      7  C   UNL     1     -10.865   6.494 130.902  0.00  0.00    +0.000 A 
ATOM      8  C   UNL     1     -10.368   7.197 129.791  0.00  0.00    +0.000 A 
ATOM      9  C   UNL     1     -11.122   8.206 129.191  0.00  0.00    +0.000 A 
ATOM     10  C   UNL     1     -12.376   8.529 129.702  0.00  0.00    +0.000 A 
ATOM     11 BR   UNL     1     -13.407   9.889 128.897  0.00  0.00    +0.000 Br
ATOM     12  C   UNL     1     -12.882   7.861 130.808  0.00  0.00    +0.000 A 
ATOM     13  C   UNL     1     -12.126   6.860 131.405  0.00  0.00    +0.000 A 
ENDBRANCH   1   7
BRANCH   1  14
ATOM     14  O   UNL     1     -10.378   5.279 132.891  0.00  0.00    +0.000 OA
ATOM     15  H   UNL     1      -9.585   5.539 133.387  0.00  0.00    +0.000 HD
ENDBRANCH   1  14
BRANCH   4  16
ATOM     16  C   UNL     1      -7.271   2.072 131.229  0.00  0.00    +0.000 C 
BRANCH  16  17
ATOM     17  C   UNL     1      -7.905   0.771 130.759  0.00  0.00    +0.000 C 
BRANCH  17  18
ATOM     18  C   UNL     1      -6.865  -0.203 130.246  0.00  0.00    +0.000 C 
BRANCH  18  19
ATOM     19  C   UNL     1      -7.427  -1.608 130.282  0.00  0.00    +0.000 C 
ATOM     20  O   UNL     1      -7.591  -2.254 131.318  0.00  0.00    +0.000 OA
BRANCH  19  21
ATOM     21  C   UNL     1      -7.859  -2.204 129.005  0.00  0.00    +0.000 A 
ATOM     22  C   UNL     1      -8.499  -3.447 128.975  0.00  0.00    +0.000 A 
ATOM     23  C   UNL     1      -8.922  -3.970 127.754  0.00  0.00    +0.000 A 
ATOM     24  C   UNL     1      -8.700  -3.250 126.583  0.00  0.00    +0.000 A 
ATOM     25  F   UNL     1      -9.116  -3.756 125.415  0.00  0.00    +0.000 F 
ATOM     26  C   UNL     1      -8.062  -2.015 126.606  0.00  0.00    +0.000 A 
ATOM     27  C   UNL     1      -7.640  -1.484 127.823  0.00  0.00    +0.000 A 
ENDBRANCH  19  21
ENDBRANCH  18  19
ENDBRANCH  17  18
ENDBRANCH  16  17
ENDBRANCH   4  16
TORSDOF 7
ENDMDL
MODEL 5
REMARK VINA RESULT:      -7.3      6.239      8.933
REMARK  Name = Bromperidol
REMARK  7 active torsions:
REMARK  status: ('A' for Active; 'I' for Inactive)
REMARK    1  A    between atoms: O_1  and  C_2
REMARK    2  A    between atoms: C_2  and  C_20
REMARK    3  A    between atoms: N_5  and  C_6
REMARK    4  A    between atoms: C_6  and  C_7
REMARK    5  A    between atoms: C_7  and  C_8
REMARK    6  A    between atoms: C_8  and  C_9
REMARK    7  A    between atoms: C_9  and  C_11
REMARK                            x       y       z     vdW  Elec       q    Type
REMARK                         _______ _______ _______ _____ _____    ______ ____
ROOT
ATOM      1  C   UNL     1      -3.742   6.464 129.563  0.00  0.00    +0.000 C 
ATOM      2  C   UNL     1      -3.003   5.781 128.399  0.00  0.00    +0.000 C 
ATOM      3  C   UNL     1      -3.928   5.136 127.392  0.00  0.00    +0.000 C 
ATOM      4  N   UNL     1      -4.822   4.201 128.079  0.00  0.00    +0.000 NA
ATOM      5  C   UNL     1      -5.645   4.890 129.079  0.00  0.00    +0.000 C 
ATOM      6  C   UNL     1      -4.787   5.517 130.159  0.00  0.00    +0.000 C 
ENDROOT
BRANCH   1   7
ATOM      7  C   UNL     1      -2.788   6.909 130.666  0.00  0.00    +0.000 A 
ATOM      8  C   UNL     1      -3.174   7.912 131.571  0.00  0.00    +0.000 A 
ATOM      9  C   UNL     1      -2.345   8.269 132.634  0.00  0.00    +0.000 A 
ATOM     10  C   UNL     1      -1.118   7.634 132.798  0.00  0.00    +0.000 A 
ATOM     11 BR   UNL     1       0.011   8.106 134.236  0.00  0.00    +0.000 Br
ATOM     12  C   UNL     1      -0.706   6.651 131.909  0.00  0.00    +0.000 A 
ATOM     13  C   UNL     1      -1.533   6.301 130.849  0.00  0.00    +0.000 A 
ENDBRANCH   1   7
BRANCH   1  14
ATOM     14  O   UNL     1      -4.400   7.641 129.074  0.00  0.00    +0.000 OA
ATOM     15  H   UNL     1      -3.723   8.307 128.868  0.00  0.00    +0.000 HD
ENDBRANCH   1  14
BRANCH   4  16
ATOM     16  C   UNL     1      -5.636   3.488 127.094  0.00  0.00    +0.000 C 
BRANCH  16  17
ATOM     17  C   UNL     1      -5.047   3.617 125.696  0.00  0.00    +0.000 C 
BRANCH  17  18
ATOM     18  C   UNL     1      -6.064   4.150 124.709  0.00  0.00    +0.000 C 
BRANCH  18  19
ATOM     19  C   UNL     1      -6.483   3.042 123.767  0.00  0.00    +0.000 C 
ATOM     20  O   UNL     1      -6.611   1.865 124.107  0.00  0.00    +0.000 OA
BRANCH  19  21
ATOM     21  C   UNL     1      -6.817   3.415 122.381  0.00  0.00    +0.000 A 
ATOM     22  C   UNL     1      -8.136   3.351 121.920  0.00  0.00    +0.000 A 
ATOM     23  C   UNL     1      -8.424   3.739 120.613  0.00  0.00    +0.000 A 
ATOM     24  C   UNL     1      -7.397   4.181 119.784  0.00  0.00    +0.000 A 
ATOM     25  F   UNL     1      -7.683   4.558 118.531  0.00  0.00    +0.000 F 
ATOM     26  C   UNL     1      -6.083   4.244 120.235  0.00  0.00    +0.000 A 
ATOM     27  C   UNL     1      -5.788   3.862 121.542  0.00  0.00    +0.000 A 
ENDBRANCH  19  21
ENDBRANCH  18  19
ENDBRANCH  17  18
ENDBRANCH  16  17
ENDBRANCH   4  16
TORSDOF 7
ENDMDL
MODEL 6
REMARK VINA RESULT:      -7.3      4.344      7.699
REMARK  Name = Bromperidol
REMARK  7 active torsions:
REMARK  status: ('A' for Active; 'I' for Inactive)
REMARK    1  A    between atoms: O_1  and  C_2
REMARK    2  A    between atoms: C_2  and  C_20
REMARK    3  A    between atoms: N_5  and  C_6
REMARK    4  A    between atoms: C_6  and  C_7
REMARK    5  A    between atoms: C_7  and  C_8
REMARK    6  A    between atoms: C_8  and  C_9
REMARK    7  A    between atoms: C_9  and  C_11
REMARK                            x       y       z     vdW  Elec       q    Type
REMARK                         _______ _______ _______ _____ _____    ______ ____
ROOT
ATOM      1  C   UNL     1      -6.844  -2.283 128.664  0.00  0.00    +0.000 C 
ATOM      2  C   UNL     1      -7.614  -0.966 128.856  0.00  0.00    +0.000 C 
ATOM      3  C   UNL     1      -7.771  -0.165 127.583  0.00  0.00    +0.000 C 
ATOM      4  N   UNL     1      -6.452   0.069 126.989  0.00  0.00    +0.000 NA
ATOM      5  C   UNL     1      -5.787  -1.196 126.655  0.00  0.00    +0.000 C 
ATOM      6  C   UNL     1      -5.544  -2.032 127.895  0.00  0.00    +0.000 C 
ENDROOT
BRANCH   1   7
ATOM      7  C   UNL     1      -6.514  -2.954 129.993  0.00  0.00    +0.000 A 
ATOM      8  C   UNL     1      -7.160  -2.543 131.171  0.00  0.00    +0.000 A 
ATOM      9  C   UNL     1      -6.930  -3.203 132.377  0.00  0.00    +0.000 A 
ATOM     10  C   UNL     1      -6.044  -4.276 132.421  0.00  0.00    +0.000 A 
ATOM     11 BR   UNL     1      -5.727  -5.180 134.047  0.00  0.00    +0.000 Br
ATOM     12  C   UNL     1      -5.381  -4.692 131.275  0.00  0.00    +0.000 A 
ATOM     13  C   UNL     1      -5.610  -4.028 130.076  0.00  0.00    +0.000 A 
ENDBRANCH   1   7
BRANCH   1  14
ATOM     14  O   UNL     1      -7.659  -3.199 127.920  0.00  0.00    +0.000 OA
ATOM     15  H   UNL     1      -8.377  -3.508 128.498  0.00  0.00    +0.000 HD
ENDBRANCH   1  14
BRANCH   4  16
ATOM     16  C   UNL     1      -6.588   0.942 125.823  0.00  0.00    +0.000 C 
BRANCH  16  17
ATOM     17  C   UNL     1      -8.023   0.963 125.316  0.00  0.00    +0.000 C 
BRANCH  17  18
ATOM     18  C   UNL     1      -8.084   0.845 123.807  0.00  0.00    +0.000 C 
BRANCH  18  19
ATOM     19  C   UNL     1      -8.583  -0.533 123.428  0.00  0.00    +0.000 C 
ATOM     20  O   UNL     1      -9.706  -0.753 122.971  0.00  0.00    +0.000 OA
BRANCH  19  21
ATOM     21  C   UNL     1      -7.643  -1.660 123.558  0.00  0.00    +0.000 A 
ATOM     22  C   UNL     1      -6.357  -1.586 123.014  0.00  0.00    +0.000 A 
ATOM     23  C   UNL     1      -5.480  -2.657 123.179  0.00  0.00    +0.000 A 
ATOM     24  C   UNL     1      -5.897  -3.785 123.882  0.00  0.00    +0.000 A 
ATOM     25  F   UNL     1      -5.046  -4.806 124.043  0.00  0.00    +0.000 F 
ATOM     26  C   UNL     1      -7.175  -3.865 124.424  0.00  0.00    +0.000 A 
ATOM     27  C   UNL     1      -8.055  -2.797 124.266  0.00  0.00    +0.000 A 
ENDBRANCH  19  21
ENDBRANCH  18  19
ENDBRANCH  17  18
ENDBRANCH  16  17
ENDBRANCH   4  16
TORSDOF 7
ENDMDL
MODEL 7
REMARK VINA RESULT:      -7.2      1.566      2.198
REMARK  Name = Bromperidol
REMARK  7 active torsions:
REMARK  status: ('A' for Active; 'I' for Inactive)
REMARK    1  A    between atoms: O_1  and  C_2
REMARK    2  A    between atoms: C_2  and  C_20
REMARK    3  A    between atoms: N_5  and  C_6
REMARK    4  A    between atoms: C_6  and  C_7
REMARK    5  A    between atoms: C_7  and  C_8
REMARK    6  A    between atoms: C_8  and  C_9
REMARK    7  A    between atoms: C_9  and  C_11
REMARK                            x       y       z     vdW  Elec       q    Type
REMARK                         _______ _______ _______ _____ _____    ______ ____
ROOT
ATOM      1  C   UNL     1      -6.393   2.199 126.587  0.00  0.00    +0.000 C 
ATOM      2  C   UNL     1      -7.799   1.760 127.028  0.00  0.00    +0.000 C 
ATOM      3  C   UNL     1      -7.827   1.100 128.388  0.00  0.00    +0.000 C 
ATOM      4  N   UNL     1      -6.888  -0.024 128.405  0.00  0.00    +0.000 NA
ATOM      5  C   UNL     1      -5.516   0.427 128.144  0.00  0.00    +0.000 C 
ATOM      6  C   UNL     1      -5.396   1.052 126.769  0.00  0.00    +0.000 C 
ENDROOT
BRANCH   1   7
ATOM      7  C   UNL     1      -6.365   2.656 125.132  0.00  0.00    +0.000 A 
ATOM      8  C   UNL     1      -5.671   3.823 124.773  0.00  0.00    +0.000 A 
ATOM      9  C   UNL     1      -5.567   4.207 123.436  0.00  0.00    +0.000 A 
ATOM     10  C   UNL     1      -6.163   3.431 122.445  0.00  0.00    +0.000 A 
ATOM     11 BR   UNL     1      -6.025   3.937 120.632  0.00  0.00    +0.000 Br
ATOM     12  C   UNL     1      -6.867   2.282 122.775  0.00  0.00    +0.000 A 
ATOM     13  C   UNL     1      -6.972   1.906 124.109  0.00  0.00    +0.000 A 
ENDBRANCH   1   7
BRANCH   1  14
ATOM     14  O   UNL     1      -5.976   3.314 127.387  0.00  0.00    +0.000 OA
ATOM     15  H   UNL     1      -5.068   3.150 127.690  0.00  0.00    +0.000 HD
ENDBRANCH   1  14
BRANCH   4  16
ATOM     16  C   UNL     1      -6.999  -0.737 129.678  0.00  0.00    +0.000 C 
BRANCH  16  17
ATOM     17  C   UNL     1      -7.861  -1.984 129.536  0.00  0.00    +0.000 C 
BRANCH  17  18
ATOM     18  C   UNL     1      -7.351  -2.892 128.436  0.00  0.00    +0.000 C 
BRANCH  18  19
ATOM     19  C   UNL     1      -8.516  -3.379 127.603  0.00  0.00    +0.000 C 
ATOM     20  O   UNL     1      -9.404  -4.118 128.032  0.00  0.00    +0.000 OA
BRANCH  19  21
ATOM     21  C   UNL     1      -8.620  -2.886 126.218  0.00  0.00    +0.000 A 
ATOM     22  C   UNL     1      -8.906  -1.542 125.956  0.00  0.00    +0.000 A 
ATOM     23  C   UNL     1      -8.968  -1.100 124.636  0.00  0.00    +0.000 A 
ATOM     24  C   UNL     1      -8.746  -2.000 123.598  0.00  0.00    +0.000 A 
ATOM     25  F   UNL     1      -8.800  -1.566 122.332  0.00  0.00    +0.000 F 
ATOM     26  C   UNL     1      -8.463  -3.338 123.851  0.00  0.00    +0.000 A 
ATOM     27  C   UNL     1      -8.396  -3.787 125.169  0.00  0.00    +0.000 A 
ENDBRANCH  19  21
ENDBRANCH  18  19
ENDBRANCH  17  18
ENDBRANCH  16  17
ENDBRANCH   4  16
TORSDOF 7
ENDMDL
MODEL 8
REMARK VINA RESULT:      -7.2      4.005      8.245
REMARK  Name = Bromperidol
REMARK  7 active torsions:
REMARK  status: ('A' for Active; 'I' for Inactive)
REMARK    1  A    between atoms: O_1  and  C_2
REMARK    2  A    between atoms: C_2  and  C_20
REMARK    3  A    between atoms: N_5  and  C_6
REMARK    4  A    between atoms: C_6  and  C_7
REMARK    5  A    between atoms: C_7  and  C_8
REMARK    6  A    between atoms: C_8  and  C_9
REMARK    7  A    between atoms: C_9  and  C_11
REMARK                            x       y       z     vdW  Elec       q    Type
REMARK                         _______ _______ _______ _____ _____    ______ ____
ROOT
ATOM      1  C   UNL     1      -7.412  -2.356 126.717  0.00  0.00    +0.000 C 
ATOM      2  C   UNL     1      -8.357  -1.157 126.903  0.00  0.00    +0.000 C 
ATOM      3  C   UNL     1      -8.989  -0.679 125.615  0.00  0.00    +0.000 C 
ATOM      4  N   UNL     1      -7.939  -0.383 124.638  0.00  0.00    +0.000 NA
ATOM      5  C   UNL     1      -7.138  -1.577 124.339  0.00  0.00    +0.000 C 
ATOM      6  C   UNL     1      -6.427  -2.084 125.577  0.00  0.00    +0.000 C 
ENDROOT
BRANCH   1   7
ATOM      7  C   UNL     1      -6.628  -2.671 127.986  0.00  0.00    +0.000 A 
ATOM      8  C   UNL     1      -7.297  -3.127 129.134  0.00  0.00    +0.000 A 
ATOM      9  C   UNL     1      -6.585  -3.499 130.274  0.00  0.00    +0.000 A 
ATOM     10  C   UNL     1      -5.196  -3.409 130.281  0.00  0.00    +0.000 A 
ATOM     11 BR   UNL     1      -4.219  -3.913 131.816  0.00  0.00    +0.000 Br
ATOM     12  C   UNL     1      -4.511  -2.947 129.166  0.00  0.00    +0.000 A 
ATOM     13  C   UNL     1      -5.226  -2.574 128.034  0.00  0.00    +0.000 A 
ENDBRANCH   1   7
BRANCH   1  14
ATOM     14  O   UNL     1      -8.186  -3.520 126.399  0.00  0.00    +0.000 OA
ATOM     15  H   UNL     1      -8.958  -3.544 126.989  0.00  0.00    +0.000 HD
ENDBRANCH   1  14
BRANCH   4  16
ATOM     16  C   UNL     1      -8.538   0.192 123.433  0.00  0.00    +0.000 C 
BRANCH  16  17
ATOM     17  C   UNL     1      -9.178   1.542 123.727  0.00  0.00    +0.000 C 
BRANCH  17  18
ATOM     18  C   UNL     1      -8.989   2.511 122.579  0.00  0.00    +0.000 C 
BRANCH  18  19
ATOM     19  C   UNL     1      -7.557   2.999 122.560  0.00  0.00    +0.000 C 
ATOM     20  O   UNL     1      -6.757   2.812 123.478  0.00  0.00    +0.000 OA
BRANCH  19  21
ATOM     21  C   UNL     1      -7.084   3.682 121.343  0.00  0.00    +0.000 A 
ATOM     22  C   UNL     1      -7.950   3.914 120.270  0.00  0.00    +0.000 A 
ATOM     23  C   UNL     1      -7.481   4.589 119.144  0.00  0.00    +0.000 A 
ATOM     24  C   UNL     1      -6.157   5.021 119.103  0.00  0.00    +0.000 A 
ATOM     25  F   UNL     1      -5.716   5.674 118.021  0.00  0.00    +0.000 F 
ATOM     26  C   UNL     1      -5.290   4.790 120.165  0.00  0.00    +0.000 A 
ATOM     27  C   UNL     1      -5.754   4.120 121.295  0.00  0.00    +0.000 A 
ENDBRANCH  19  21
ENDBRANCH  18  19
ENDBRANCH  17  18
ENDBRANCH  16  17
ENDBRANCH   4  16
TORSDOF 7
ENDMDL
MODEL 9
REMARK VINA RESULT:      -7.1      9.239     10.946
REMARK  Name = Bromperidol
REMARK  7 active torsions:
REMARK  status: ('A' for Active; 'I' for Inactive)
REMARK    1  A    between atoms: O_1  and  C_2
REMARK    2  A    between atoms: C_2  and  C_20
REMARK    3  A    between atoms: N_5  and  C_6
REMARK    4  A    between atoms: C_6  and  C_7
REMARK    5  A    between atoms: C_7  and  C_8
REMARK    6  A    between atoms: C_8  and  C_9
REMARK    7  A    between atoms: C_9  and  C_11
REMARK                            x       y       z     vdW  Elec       q    Type
REMARK                         _______ _______ _______ _____ _____    ______ ____
ROOT
ATOM      1  C   UNL     1      -8.976   5.955 131.991  0.00  0.00    +0.000 C 
ATOM      2  C   UNL     1      -8.973   4.427 131.810  0.00  0.00    +0.000 C 
ATOM      3  C   UNL     1      -7.801   3.742 132.477  0.00  0.00    +0.000 C 
ATOM      4  N   UNL     1      -6.552   4.339 132.000  0.00  0.00    +0.000 NA
ATOM      5  C   UNL     1      -6.488   5.769 132.321  0.00  0.00    +0.000 C 
ATOM      6  C   UNL     1      -7.603   6.535 131.640  0.00  0.00    +0.000 C 
ENDROOT
BRANCH   1   7
ATOM      7  C   UNL     1     -10.037   6.632 131.130  0.00  0.00    +0.000 A 
ATOM      8  C   UNL     1      -9.666   7.307 129.955  0.00  0.00    +0.000 A 
ATOM      9  C   UNL     1     -10.634   7.859 129.115  0.00  0.00    +0.000 A 
ATOM     10  C   UNL     1     -11.981   7.749 129.447  0.00  0.00    +0.000 A 
ATOM     11 BR   UNL     1     -13.301   8.487 128.316  0.00  0.00    +0.000 Br
ATOM     12  C   UNL     1     -12.373   7.100 130.609  0.00  0.00    +0.000 A 
ATOM     13  C   UNL     1     -11.405   6.556 131.445  0.00  0.00    +0.000 A 
ENDBRANCH   1   7
BRANCH   1  14
ATOM     14  O   UNL     1      -9.281   6.266 133.357  0.00  0.00    +0.000 OA
ATOM     15  H   UNL     1      -9.323   7.232 133.449  0.00  0.00    +0.000 HD
ENDBRANCH   1  14
BRANCH   4  16
ATOM     16  C   UNL     1      -5.414   3.601 132.551  0.00  0.00    +0.000 C 
BRANCH  16  17
ATOM     17  C   UNL     1      -4.415   3.238 131.462  0.00  0.00    +0.000 C 
BRANCH  17  18
ATOM     18  C   UNL     1      -3.069   3.892 131.698  0.00  0.00    +0.000 C 
BRANCH  18  19
ATOM     19  C   UNL     1      -3.021   5.222 130.980  0.00  0.00    +0.000 C 
ATOM     20  O   UNL     1      -3.545   5.430 129.885  0.00  0.00    +0.000 OA
BRANCH  19  21
ATOM     21  C   UNL     1      -2.360   6.346 131.668  0.00  0.00    +0.000 A 
ATOM     22  C   UNL     1      -3.057   7.527 131.942  0.00  0.00    +0.000 A 
ATOM     23  C   UNL     1      -2.414   8.560 132.621  0.00  0.00    +0.000 A 
ATOM     24  C   UNL     1      -1.087   8.404 133.015  0.00  0.00    +0.000 A 
ATOM     25  F   UNL     1      -0.478   9.398 133.672  0.00  0.00    +0.000 F 
ATOM     26  C   UNL     1      -0.388   7.233 132.743  0.00  0.00    +0.000 A 
ATOM     27  C   UNL     1      -1.026   6.194 132.068  0.00  0.00    +0.000 A 
ENDBRANCH  19  21
ENDBRANCH  18  19
ENDBRANCH  17  18
ENDBRANCH  16  17
ENDBRANCH   4  16
TORSDOF 7
ENDMDL
