MODEL 1
REMARK VINA RESULT:      -4.3      0.000      0.000
REMARK  Name = Bronopol
REMARK  5 active torsions:
REMARK  status: ('A' for Active; 'I' for Inactive)
REMARK    1  A    between atoms: O_1  and  C_2
REMARK    2  A    between atoms: C_2  and  C_3
REMARK    3  A    between atoms: C_3  and  C_5
REMARK    4  A    between atoms: C_3  and  N_7
REMARK    5  A    between atoms: C_5  and  O_6
REMARK                            x       y       z     vdW  Elec       q    Type
REMARK                         _______ _______ _______ _____ _____    ______ ____
ROOT
ATOM      1  C   UNL     1     -11.995   7.905 128.327  0.00  0.00    +0.000 C 
ATOM      2 BR   UNL     1     -13.124   9.400 128.940  0.00  0.00    +0.000 Br
ENDROOT
BRANCH   1   3
ATOM      3  N   UNL     1     -12.005   6.899 129.466  0.00  0.00    +0.000 N 
ATOM      4  O   UNL     1     -12.237   7.318 130.612  0.00  0.00    +0.000 OA
ATOM      5  O   UNL     1     -11.749   5.717 129.199  0.00  0.00    +0.000 OA
ENDBRANCH   1   3
BRANCH   1   6
ATOM      6  C   UNL     1     -10.570   8.412 128.090  0.00  0.00    +0.000 C 
BRANCH   6   7
ATOM      7  O   UNL     1      -9.674   8.002 129.127  0.00  0.00    +0.000 OA
ATOM      8  H   UNL     1      -8.808   8.412 128.955  0.00  0.00    +0.000 HD
ENDBRANCH   6   7
ENDBRANCH   1   6
BRANCH   1   9
ATOM      9  C   UNL     1     -12.628   7.240 127.102  0.00  0.00    +0.000 C 
BRANCH   9  10
ATOM     10  O   UNL     1     -11.701   6.558 126.251  0.00  0.00    +0.000 OA
ATOM     11  H   UNL     1     -10.996   6.180 126.811  0.00  0.00    +0.000 HD
ENDBRANCH   9  10
ENDBRANCH   1   9
TORSDOF 5
ENDMDL
MODEL 2
REMARK VINA RESULT:      -4.3      1.375      2.702
REMARK  Name = Bronopol
REMARK  5 active torsions:
REMARK  status: ('A' for Active; 'I' for Inactive)
REMARK    1  A    between atoms: O_1  and  C_2
REMARK    2  A    between atoms: C_2  and  C_3
REMARK    3  A    between atoms: C_3  and  C_5
REMARK    4  A    between atoms: C_3  and  N_7
REMARK    5  A    between atoms: C_5  and  O_6
REMARK                            x       y       z     vdW  Elec       q    Type
REMARK                         _______ _______ _______ _____ _____    ______ ____
ROOT
ATOM      1  C   UNL     1     -12.078   7.350 128.567  0.00  0.00    +0.000 C 
ATOM      2 BR   UNL     1     -12.689   9.155 129.070  0.00  0.00    +0.000 Br
ENDROOT
BRANCH   1   3
ATOM      3  N   UNL     1     -10.593   7.494 128.275  0.00  0.00    +0.000 N 
ATOM      4  O   UNL     1     -10.136   8.639 128.131  0.00  0.00    +0.000 OA
ATOM      5  O   UNL     1      -9.921   6.459 128.161  0.00  0.00    +0.000 OA
ENDBRANCH   1   3
BRANCH   1   6
ATOM      6  C   UNL     1     -12.818   6.898 127.305  0.00  0.00    +0.000 C 
BRANCH   6   7
ATOM      7  O   UNL     1     -11.931   6.718 126.197  0.00  0.00    +0.000 OA
ATOM      8  H   UNL     1     -11.045   6.523 126.551  0.00  0.00    +0.000 HD
ENDBRANCH   6   7
ENDBRANCH   1   6
BRANCH   1   9
ATOM      9  C   UNL     1     -12.236   6.395 129.753  0.00  0.00    +0.000 C 
BRANCH   9  10
ATOM     10  O   UNL     1     -11.808   5.054 129.497  0.00  0.00    +0.000 OA
ATOM     11  H   UNL     1     -12.489   4.445 129.842  0.00  0.00    +0.000 HD
ENDBRANCH   9  10
ENDBRANCH   1   9
TORSDOF 5
ENDMDL
MODEL 3
REMARK VINA RESULT:      -4.3      1.674      2.537
REMARK  Name = Bronopol
REMARK  5 active torsions:
REMARK  status: ('A' for Active; 'I' for Inactive)
REMARK    1  A    between atoms: O_1  and  C_2
REMARK    2  A    between atoms: C_2  and  C_3
REMARK    3  A    between atoms: C_3  and  C_5
REMARK    4  A    between atoms: C_3  and  N_7
REMARK    5  A    between atoms: C_5  and  O_6
REMARK                            x       y       z     vdW  Elec       q    Type
REMARK                         _______ _______ _______ _____ _____    ______ ____
ROOT
ATOM      1  C   UNL     1     -12.446   7.786 128.125  0.00  0.00    +0.000 C 
ATOM      2 BR   UNL     1     -10.582   8.417 128.217  0.00  0.00    +0.000 Br
ENDROOT
BRANCH   1   3
ATOM      3  N   UNL     1     -12.599   6.811 129.282  0.00  0.00    +0.000 N 
ATOM      4  O   UNL     1     -13.164   7.212 130.311  0.00  0.00    +0.000 OA
ATOM      5  O   UNL     1     -12.123   5.675 129.149  0.00  0.00    +0.000 OA
ENDBRANCH   1   3
BRANCH   1   6
ATOM      6  C   UNL     1     -12.669   7.058 126.796  0.00  0.00    +0.000 C 
BRANCH   6   7
ATOM      7  O   UNL     1     -11.451   6.528 126.263  0.00  0.00    +0.000 OA
ATOM      8  H   UNL     1     -11.618   6.264 125.341  0.00  0.00    +0.000 HD
ENDBRANCH   6   7
ENDBRANCH   1   6
BRANCH   1   9
ATOM      9  C   UNL     1     -13.407   8.954 128.361  0.00  0.00    +0.000 C 
BRANCH   9  10
ATOM     10  O   UNL     1     -12.856  10.030 129.127  0.00  0.00    +0.000 OA
ATOM     11  H   UNL     1     -11.883   9.961 129.092  0.00  0.00    +0.000 HD
ENDBRANCH   9  10
ENDBRANCH   1   9
TORSDOF 5
ENDMDL
MODEL 4
REMARK VINA RESULT:      -4.1      2.130      2.507
REMARK  Name = Bronopol
REMARK  5 active torsions:
REMARK  status: ('A' for Active; 'I' for Inactive)
REMARK    1  A    between atoms: O_1  and  C_2
REMARK    2  A    between atoms: C_2  and  C_3
REMARK    3  A    between atoms: C_3  and  C_5
REMARK    4  A    between atoms: C_3  and  N_7
REMARK    5  A    between atoms: C_5  and  O_6
REMARK                            x       y       z     vdW  Elec       q    Type
REMARK                         _______ _______ _______ _____ _____    ______ ____
ROOT
ATOM      1  C   UNL     1     -11.956   7.307 128.681  0.00  0.00    +0.000 C 
ATOM      2 BR   UNL     1     -11.963   5.769 129.913  0.00  0.00    +0.000 Br
ENDROOT
BRANCH   1   3
ATOM      3  N   UNL     1     -10.507   7.471 128.250  0.00  0.00    +0.000 N 
ATOM      4  O   UNL     1     -10.081   8.622 128.063  0.00  0.00    +0.000 OA
ATOM      5  O   UNL     1      -9.835   6.446 128.075  0.00  0.00    +0.000 OA
ENDBRANCH   1   3
BRANCH   1   6
ATOM      6  C   UNL     1     -12.422   8.558 129.432  0.00  0.00    +0.000 C 
BRANCH   6   7
ATOM      7  O   UNL     1     -12.793   9.614 128.540  0.00  0.00    +0.000 OA
ATOM      8  H   UNL     1     -12.529   9.353 127.640  0.00  0.00    +0.000 HD
ENDBRANCH   6   7
ENDBRANCH   1   6
BRANCH   1   9
ATOM      9  C   UNL     1     -12.787   6.986 127.436  0.00  0.00    +0.000 C 
BRANCH   9  10
ATOM     10  O   UNL     1     -12.017   6.721 126.260  0.00  0.00    +0.000 OA
ATOM     11  H   UNL     1     -12.200   5.805 125.976  0.00  0.00    +0.000 HD
ENDBRANCH   9  10
ENDBRANCH   1   9
TORSDOF 5
ENDMDL
MODEL 5
REMARK VINA RESULT:      -4.0      1.890      3.019
REMARK  Name = Bronopol
REMARK  5 active torsions:
REMARK  status: ('A' for Active; 'I' for Inactive)
REMARK    1  A    between atoms: O_1  and  C_2
REMARK    2  A    between atoms: C_2  and  C_3
REMARK    3  A    between atoms: C_3  and  C_5
REMARK    4  A    between atoms: C_3  and  N_7
REMARK    5  A    between atoms: C_5  and  O_6
REMARK                            x       y       z     vdW  Elec       q    Type
REMARK                         _______ _______ _______ _____ _____    ______ ____
ROOT
ATOM      1  C   UNL     1     -12.218   7.361 128.824  0.00  0.00    +0.000 C 
ATOM      2 BR   UNL     1     -13.875   7.072 127.797  0.00  0.00    +0.000 Br
ENDROOT
BRANCH   1   3
ATOM      3  N   UNL     1     -11.120   7.514 127.784  0.00  0.00    +0.000 N 
ATOM      4  O   UNL     1     -11.192   6.823 126.755  0.00  0.00    +0.000 OA
ATOM      5  O   UNL     1     -10.192   8.296 128.031  0.00  0.00    +0.000 OA
ENDBRANCH   1   3
BRANCH   1   6
ATOM      6  C   UNL     1     -11.944   6.132 129.696  0.00  0.00    +0.000 C 
BRANCH   6   7
ATOM      7  O   UNL     1     -10.685   5.524 129.388  0.00  0.00    +0.000 OA
ATOM      8  H   UNL     1      -9.982   6.092 129.748  0.00  0.00    +0.000 HD
ENDBRANCH   6   7
ENDBRANCH   1   6
BRANCH   1   9
ATOM      9  C   UNL     1     -12.311   8.670 129.611  0.00  0.00    +0.000 C 
BRANCH   9  10
ATOM     10  O   UNL     1     -12.676   9.810 128.826  0.00  0.00    +0.000 OA
ATOM     11  H   UNL     1     -12.681   9.543 127.887  0.00  0.00    +0.000 HD
ENDBRANCH   9  10
ENDBRANCH   1   9
TORSDOF 5
ENDMDL
MODEL 6
REMARK VINA RESULT:      -4.0      1.496      2.488
REMARK  Name = Bronopol
REMARK  5 active torsions:
REMARK  status: ('A' for Active; 'I' for Inactive)
REMARK    1  A    between atoms: O_1  and  C_2
REMARK    2  A    between atoms: C_2  and  C_3
REMARK    3  A    between atoms: C_3  and  C_5
REMARK    4  A    between atoms: C_3  and  N_7
REMARK    5  A    between atoms: C_5  and  O_6
REMARK                            x       y       z     vdW  Elec       q    Type
REMARK                         _______ _______ _______ _____ _____    ______ ____
ROOT
ATOM      1  C   UNL     1     -11.888   7.561 128.761  0.00  0.00    +0.000 C 
ATOM      2 BR   UNL     1     -12.792   9.245 129.242  0.00  0.00    +0.000 Br
ENDROOT
BRANCH   1   3
ATOM      3  N   UNL     1     -12.747   6.939 127.671  0.00  0.00    +0.000 N 
ATOM      4  O   UNL     1     -13.887   6.556 127.975  0.00  0.00    +0.000 OA
ATOM      5  O   UNL     1     -12.252   6.817 126.542  0.00  0.00    +0.000 OA
ENDBRANCH   1   3
BRANCH   1   6
ATOM      6  C   UNL     1     -11.850   6.640 129.984  0.00  0.00    +0.000 C 
BRANCH   6   7
ATOM      7  O   UNL     1     -11.778   5.259 129.616  0.00  0.00    +0.000 OA
ATOM      8  H   UNL     1     -12.661   4.869 129.743  0.00  0.00    +0.000 HD
ENDBRANCH   6   7
ENDBRANCH   1   6
BRANCH   1   9
ATOM      9  C   UNL     1     -10.509   7.858 128.166  0.00  0.00    +0.000 C 
BRANCH   9  10
ATOM     10  O   UNL     1      -9.769   6.698 127.774  0.00  0.00    +0.000 OA
ATOM     11  H   UNL     1     -10.384   5.941 127.743  0.00  0.00    +0.000 HD
ENDBRANCH   9  10
ENDBRANCH   1   9
TORSDOF 5
ENDMDL
MODEL 7
REMARK VINA RESULT:      -3.9      3.145      3.716
REMARK  Name = Bronopol
REMARK  5 active torsions:
REMARK  status: ('A' for Active; 'I' for Inactive)
REMARK    1  A    between atoms: O_1  and  C_2
REMARK    2  A    between atoms: C_2  and  C_3
REMARK    3  A    between atoms: C_3  and  C_5
REMARK    4  A    between atoms: C_3  and  N_7
REMARK    5  A    between atoms: C_5  and  O_6
REMARK                            x       y       z     vdW  Elec       q    Type
REMARK                         _______ _______ _______ _____ _____    ______ ____
ROOT
ATOM      1  C   UNL     1     -10.312   6.002 130.525  0.00  0.00    +0.000 C 
ATOM      2 BR   UNL     1      -8.541   6.833 130.763  0.00  0.00    +0.000 Br
ENDROOT
BRANCH   1   3
ATOM      3  N   UNL     1     -11.085   6.330 131.791  0.00  0.00    +0.000 N 
ATOM      4  O   UNL     1     -10.446   6.460 132.847  0.00  0.00    +0.000 OA
ATOM      5  O   UNL     1     -12.318   6.418 131.712  0.00  0.00    +0.000 OA
ENDBRANCH   1   3
BRANCH   1   6
ATOM      6  C   UNL     1     -10.145   4.486 130.392  0.00  0.00    +0.000 C 
BRANCH   6   7
ATOM      7  O   UNL     1     -11.365   3.785 130.651  0.00  0.00    +0.000 OA
ATOM      8  H   UNL     1     -11.156   3.015 131.209  0.00  0.00    +0.000 HD
ENDBRANCH   6   7
ENDBRANCH   1   6
BRANCH   1   9
ATOM      9  C   UNL     1     -11.040   6.651 129.344  0.00  0.00    +0.000 C 
BRANCH   9  10
ATOM     10  O   UNL     1     -12.206   5.947 128.907  0.00  0.00    +0.000 OA
ATOM     11  H   UNL     1     -12.540   5.417 129.655  0.00  0.00    +0.000 HD
ENDBRANCH   9  10
ENDBRANCH   1   9
TORSDOF 5
ENDMDL
MODEL 8
REMARK VINA RESULT:      -3.9      2.277      2.844
REMARK  Name = Bronopol
REMARK  5 active torsions:
REMARK  status: ('A' for Active; 'I' for Inactive)
REMARK    1  A    between atoms: O_1  and  C_2
REMARK    2  A    between atoms: C_2  and  C_3
REMARK    3  A    between atoms: C_3  and  C_5
REMARK    4  A    between atoms: C_3  and  N_7
REMARK    5  A    between atoms: C_5  and  O_6
REMARK                            x       y       z     vdW  Elec       q    Type
REMARK                         _______ _______ _______ _____ _____    ______ ____
ROOT
ATOM      1  C   UNL     1     -12.276   7.794 129.264  0.00  0.00    +0.000 C 
ATOM      2 BR   UNL     1     -10.558   8.211 128.394  0.00  0.00    +0.000 Br
ENDROOT
BRANCH   1   3
ATOM      3  N   UNL     1     -13.050   9.102 129.277  0.00  0.00    +0.000 N 
ATOM      4  O   UNL     1     -13.007   9.795 130.306  0.00  0.00    +0.000 OA
ATOM      5  O   UNL     1     -13.711   9.394 128.271  0.00  0.00    +0.000 OA
ENDBRANCH   1   3
BRANCH   1   6
ATOM      6  C   UNL     1     -12.016   7.327 130.699  0.00  0.00    +0.000 C 
BRANCH   6   7
ATOM      7  O   UNL     1     -13.229   7.168 131.442  0.00  0.00    +0.000 OA
ATOM      8  H   UNL     1     -13.048   7.409 132.367  0.00  0.00    +0.000 HD
ENDBRANCH   6   7
ENDBRANCH   1   6
BRANCH   1   9
ATOM      9  C   UNL     1     -13.061   6.787 128.418  0.00  0.00    +0.000 C 
BRANCH   9  10
ATOM     10  O   UNL     1     -12.657   6.723 127.047  0.00  0.00    +0.000 OA
ATOM     11  H   UNL     1     -12.351   5.814 126.863  0.00  0.00    +0.000 HD
ENDBRANCH   9  10
ENDBRANCH   1   9
TORSDOF 5
ENDMDL
MODEL 9
REMARK VINA RESULT:      -3.8      3.407      4.122
REMARK  Name = Bronopol
REMARK  5 active torsions:
REMARK  status: ('A' for Active; 'I' for Inactive)
REMARK    1  A    between atoms: O_1  and  C_2
REMARK    2  A    between atoms: C_2  and  C_3
REMARK    3  A    between atoms: C_3  and  C_5
REMARK    4  A    between atoms: C_3  and  N_7
REMARK    5  A    between atoms: C_5  and  O_6
REMARK                            x       y       z     vdW  Elec       q    Type
REMARK                         _______ _______ _______ _____ _____    ______ ____
ROOT
ATOM      1  C   UNL     1      -9.967   5.871 130.847  0.00  0.00    +0.000 C 
ATOM      2 BR   UNL     1      -8.110   6.437 131.187  0.00  0.00    +0.000 Br
ENDROOT
BRANCH   1   3
ATOM      3  N   UNL     1     -10.401   6.635 129.607  0.00  0.00    +0.000 N 
ATOM      4  O   UNL     1      -9.772   7.662 129.306  0.00  0.00    +0.000 OA
ATOM      5  O   UNL     1     -11.381   6.212 128.978  0.00  0.00    +0.000 OA
ENDBRANCH   1   3
BRANCH   1   6
ATOM      6  C   UNL     1     -10.843   6.268 132.039  0.00  0.00    +0.000 C 
BRANCH   6   7
ATOM      7  O   UNL     1     -12.238   6.168 131.738  0.00  0.00    +0.000 OA
ATOM      8  H   UNL     1     -12.492   6.957 131.228  0.00  0.00    +0.000 HD
ENDBRANCH   6   7
ENDBRANCH   1   6
BRANCH   1   9
ATOM      9  C   UNL     1     -10.006   4.376 130.520  0.00  0.00    +0.000 C 
BRANCH   9  10
ATOM     10  O   UNL     1     -11.323   3.835 130.372  0.00  0.00    +0.000 OA
ATOM     11  H   UNL     1     -11.960   4.482 130.731  0.00  0.00    +0.000 HD
ENDBRANCH   9  10
ENDBRANCH   1   9
TORSDOF 5
ENDMDL
