MODEL 1
REMARK VINA RESULT:      -6.1      0.000      0.000
REMARK  Name = Bucetin
REMARK  8 active torsions:
REMARK  status: ('A' for Active; 'I' for Inactive)
REMARK    1  A    between atoms: C_1  and  C_2
REMARK    2  A    between atoms: C_2  and  O_3
REMARK    3  A    between atoms: O_3  and  C_4
REMARK    4  A    between atoms: C_7  and  N_8
REMARK    5  A    between atoms: C_9  and  C_11
REMARK    6  A    between atoms: C_11  and  C_12
REMARK    7  A    between atoms: C_12  and  C_13
REMARK    8  A    between atoms: C_12  and  O_14
REMARK                            x       y       z     vdW  Elec       q    Type
REMARK                         _______ _______ _______ _____ _____    ______ ____
ROOT
ATOM      1  C   UNL     1     -12.628   8.487 129.636  0.00  0.00    +0.000 A 
ATOM      2  C   UNL     1     -12.751   8.091 130.973  0.00  0.00    +0.000 A 
ATOM      3  C   UNL     1     -12.221   6.862 131.424  0.00  0.00    +0.000 A 
ATOM      4  C   UNL     1     -11.614   5.987 130.520  0.00  0.00    +0.000 A 
ATOM      5  C   UNL     1     -11.467   6.430 129.201  0.00  0.00    +0.000 A 
ATOM      6  C   UNL     1     -11.970   7.649 128.756  0.00  0.00    +0.000 A 
ENDROOT
BRANCH   4   7
ATOM      7  N   UNL     1     -11.181   4.688 130.930  0.00  0.00    +0.000 N 
ATOM      8  C   UNL     1      -9.867   4.402 131.267  0.00  0.00    +0.000 C 
ATOM      9  O   UNL     1      -8.945   5.223 131.208  0.00  0.00    +0.000 OA
ATOM     10  H   UNL     1     -11.838   3.922 130.829  0.00  0.00    +0.000 HD
BRANCH   8  11
ATOM     11  C   UNL     1      -9.537   2.992 131.702  0.00  0.00    +0.000 C 
BRANCH  11  12
ATOM     12  C   UNL     1      -9.358   2.978 133.238  0.00  0.00    +0.000 C 
ATOM     13  C   UNL     1      -7.887   2.894 133.667  0.00  0.00    +0.000 C 
BRANCH  12  14
ATOM     14  O   UNL     1      -9.938   4.157 133.799  0.00  0.00    +0.000 OA
ATOM     15  H   UNL     1      -9.481   4.349 134.635  0.00  0.00    +0.000 HD
ENDBRANCH  12  14
ENDBRANCH  11  12
ENDBRANCH   8  11
ENDBRANCH   4   7
BRANCH   1  16
ATOM     16  O   UNL     1     -13.077   9.734 129.298  0.00  0.00    +0.000 OA
BRANCH  16  18
ATOM     17  C   UNL     1     -13.833  11.941 129.846  0.00  0.00    +0.000 C 
ATOM     18  C   UNL     1     -13.339  10.615 130.397  0.00  0.00    +0.000 C 
ENDBRANCH  16  18
ENDBRANCH   1  16
TORSDOF 6
ENDMDL
MODEL 2
REMARK VINA RESULT:      -5.8      1.436      1.889
REMARK  Name = Bucetin
REMARK  8 active torsions:
REMARK  status: ('A' for Active; 'I' for Inactive)
REMARK    1  A    between atoms: C_1  and  C_2
REMARK    2  A    between atoms: C_2  and  O_3
REMARK    3  A    between atoms: O_3  and  C_4
REMARK    4  A    between atoms: C_7  and  N_8
REMARK    5  A    between atoms: C_9  and  C_11
REMARK    6  A    between atoms: C_11  and  C_12
REMARK    7  A    between atoms: C_12  and  C_13
REMARK    8  A    between atoms: C_12  and  O_14
REMARK                            x       y       z     vdW  Elec       q    Type
REMARK                         _______ _______ _______ _____ _____    ______ ____
ROOT
ATOM      1  C   UNL     1     -12.430   7.929 129.828  0.00  0.00    +0.000 A 
ATOM      2  C   UNL     1     -11.118   7.915 129.341  0.00  0.00    +0.000 A 
ATOM      3  C   UNL     1     -10.093   7.216 130.017  0.00  0.00    +0.000 A 
ATOM      4  C   UNL     1     -10.365   6.571 131.226  0.00  0.00    +0.000 A 
ATOM      5  C   UNL     1     -11.694   6.566 131.663  0.00  0.00    +0.000 A 
ATOM      6  C   UNL     1     -12.711   7.237 130.990  0.00  0.00    +0.000 A 
ENDROOT
BRANCH   4   7
ATOM      7  N   UNL     1      -9.320   5.962 131.987  0.00  0.00    +0.000 N 
ATOM      8  C   UNL     1      -8.981   4.624 131.868  0.00  0.00    +0.000 C 
ATOM      9  O   UNL     1      -9.569   3.826 131.129  0.00  0.00    +0.000 OA
ATOM     10  H   UNL     1      -8.914   6.505 132.742  0.00  0.00    +0.000 HD
BRANCH   8  11
ATOM     11  C   UNL     1      -7.844   4.101 132.717  0.00  0.00    +0.000 C 
BRANCH  11  12
ATOM     12  C   UNL     1      -8.355   3.908 134.164  0.00  0.00    +0.000 C 
ATOM     13  C   UNL     1      -7.788   4.947 135.140  0.00  0.00    +0.000 C 
BRANCH  12  14
ATOM     14  O   UNL     1      -9.781   3.985 134.182  0.00  0.00    +0.000 OA
ATOM     15  H   UNL     1     -10.086   3.715 135.064  0.00  0.00    +0.000 HD
ENDBRANCH  12  14
ENDBRANCH  11  12
ENDBRANCH   8  11
ENDBRANCH   4   7
BRANCH   1  16
ATOM     16  O   UNL     1     -13.385   8.543 129.065  0.00  0.00    +0.000 OA
BRANCH  16  18
ATOM     17  C   UNL     1     -13.498  10.716 130.070  0.00  0.00    +0.000 C 
ATOM     18  C   UNL     1     -13.170   9.936 128.809  0.00  0.00    +0.000 C 
ENDBRANCH  16  18
ENDBRANCH   1  16
TORSDOF 6
ENDMDL
MODEL 3
REMARK VINA RESULT:      -5.6      1.906      2.594
REMARK  Name = Bucetin
REMARK  8 active torsions:
REMARK  status: ('A' for Active; 'I' for Inactive)
REMARK    1  A    between atoms: C_1  and  C_2
REMARK    2  A    between atoms: C_2  and  O_3
REMARK    3  A    between atoms: O_3  and  C_4
REMARK    4  A    between atoms: C_7  and  N_8
REMARK    5  A    between atoms: C_9  and  C_11
REMARK    6  A    between atoms: C_11  and  C_12
REMARK    7  A    between atoms: C_12  and  C_13
REMARK    8  A    between atoms: C_12  and  O_14
REMARK                            x       y       z     vdW  Elec       q    Type
REMARK                         _______ _______ _______ _____ _____    ______ ____
ROOT
ATOM      1  C   UNL     1     -11.925   7.951 129.578  0.00  0.00    +0.000 A 
ATOM      2  C   UNL     1     -10.563   7.959 129.255  0.00  0.00    +0.000 A 
ATOM      3  C   UNL     1      -9.621   7.254 130.036  0.00  0.00    +0.000 A 
ATOM      4  C   UNL     1     -10.031   6.581 131.190  0.00  0.00    +0.000 A 
ATOM      5  C   UNL     1     -11.403   6.555 131.461  0.00  0.00    +0.000 A 
ATOM      6  C   UNL     1     -12.338   7.232 130.683  0.00  0.00    +0.000 A 
ENDROOT
BRANCH   4   7
ATOM      7  N   UNL     1      -9.079   5.964 132.060  0.00  0.00    +0.000 N 
ATOM      8  C   UNL     1      -8.718   4.631 131.959  0.00  0.00    +0.000 C 
ATOM      9  O   UNL     1      -9.206   3.843 131.140  0.00  0.00    +0.000 OA
ATOM     10  H   UNL     1      -8.771   6.495 132.868  0.00  0.00    +0.000 HD
BRANCH   8  11
ATOM     11  C   UNL     1      -7.686   4.099 132.928  0.00  0.00    +0.000 C 
BRANCH  11  12
ATOM     12  C   UNL     1      -8.337   3.977 134.326  0.00  0.00    +0.000 C 
ATOM     13  C   UNL     1      -7.840   5.043 135.311  0.00  0.00    +0.000 C 
BRANCH  12  14
ATOM     14  O   UNL     1      -9.757   4.085 134.203  0.00  0.00    +0.000 OA
ATOM     15  H   UNL     1     -10.154   3.289 134.593  0.00  0.00    +0.000 HD
ENDBRANCH  12  14
ENDBRANCH  11  12
ENDBRANCH   8  11
ENDBRANCH   4   7
BRANCH   1  16
ATOM     16  O   UNL     1     -12.787   8.574 128.718  0.00  0.00    +0.000 OA
BRANCH  16  18
ATOM     17  C   UNL     1     -12.867   7.075 126.850  0.00  0.00    +0.000 C 
ATOM     18  C   UNL     1     -13.658   7.707 127.981  0.00  0.00    +0.000 C 
ENDBRANCH  16  18
ENDBRANCH   1  16
TORSDOF 6
ENDMDL
MODEL 4
REMARK VINA RESULT:      -5.3     10.679     12.580
REMARK  Name = Bucetin
REMARK  8 active torsions:
REMARK  status: ('A' for Active; 'I' for Inactive)
REMARK    1  A    between atoms: C_1  and  C_2
REMARK    2  A    between atoms: C_2  and  O_3
REMARK    3  A    between atoms: O_3  and  C_4
REMARK    4  A    between atoms: C_7  and  N_8
REMARK    5  A    between atoms: C_9  and  C_11
REMARK    6  A    between atoms: C_11  and  C_12
REMARK    7  A    between atoms: C_12  and  C_13
REMARK    8  A    between atoms: C_12  and  O_14
REMARK                            x       y       z     vdW  Elec       q    Type
REMARK                         _______ _______ _______ _____ _____    ______ ____
ROOT
ATOM      1  C   UNL     1      -6.743  -3.056 129.500  0.00  0.00    +0.000 A 
ATOM      2  C   UNL     1      -8.010  -3.615 129.291  0.00  0.00    +0.000 A 
ATOM      3  C   UNL     1      -8.660  -3.509 128.041  0.00  0.00    +0.000 A 
ATOM      4  C   UNL     1      -8.067  -2.786 127.002  0.00  0.00    +0.000 A 
ATOM      5  C   UNL     1      -6.783  -2.278 127.228  0.00  0.00    +0.000 A 
ATOM      6  C   UNL     1      -6.131  -2.397 128.452  0.00  0.00    +0.000 A 
ENDROOT
BRANCH   4   7
ATOM      7  N   UNL     1      -8.759  -2.564 125.771  0.00  0.00    +0.000 N 
ATOM      8  C   UNL     1      -8.633  -3.400 124.674  0.00  0.00    +0.000 C 
ATOM      9  O   UNL     1      -7.889  -4.386 124.639  0.00  0.00    +0.000 OA
ATOM     10  H   UNL     1      -9.245  -1.680 125.661  0.00  0.00    +0.000 HD
BRANCH   8  11
ATOM     11  C   UNL     1      -9.432  -3.067 123.433  0.00  0.00    +0.000 C 
BRANCH  11  12
ATOM     12  C   UNL     1      -8.727  -1.910 122.687  0.00  0.00    +0.000 C 
ATOM     13  C   UNL     1      -9.484  -0.580 122.798  0.00  0.00    +0.000 C 
BRANCH  12  14
ATOM     14  O   UNL     1      -7.408  -1.737 123.209  0.00  0.00    +0.000 OA
ATOM     15  H   UNL     1      -7.425  -1.968 124.152  0.00  0.00    +0.000 HD
ENDBRANCH  12  14
ENDBRANCH  11  12
ENDBRANCH   8  11
ENDBRANCH   4   7
BRANCH   1  16
ATOM     16  O   UNL     1      -6.137  -3.287 130.704  0.00  0.00    +0.000 OA
BRANCH  16  18
ATOM     17  C   UNL     1      -5.380  -5.072 132.112  0.00  0.00    +0.000 C 
ATOM     18  C   UNL     1      -5.258  -4.418 130.747  0.00  0.00    +0.000 C 
ENDBRANCH  16  18
ENDBRANCH   1  16
TORSDOF 6
ENDMDL
MODEL 5
REMARK VINA RESULT:      -5.2      2.584      6.711
REMARK  Name = Bucetin
REMARK  8 active torsions:
REMARK  status: ('A' for Active; 'I' for Inactive)
REMARK    1  A    between atoms: C_1  and  C_2
REMARK    2  A    between atoms: C_2  and  O_3
REMARK    3  A    between atoms: O_3  and  C_4
REMARK    4  A    between atoms: C_7  and  N_8
REMARK    5  A    between atoms: C_9  and  C_11
REMARK    6  A    between atoms: C_11  and  C_12
REMARK    7  A    between atoms: C_12  and  C_13
REMARK    8  A    between atoms: C_12  and  O_14
REMARK                            x       y       z     vdW  Elec       q    Type
REMARK                         _______ _______ _______ _____ _____    ______ ____
ROOT
ATOM      1  C   UNL     1      -7.584   5.470 132.340  0.00  0.00    +0.000 A 
ATOM      2  C   UNL     1      -7.549   6.403 131.297  0.00  0.00    +0.000 A 
ATOM      3  C   UNL     1      -8.734   6.997 130.807  0.00  0.00    +0.000 A 
ATOM      4  C   UNL     1      -9.975   6.614 131.321  0.00  0.00    +0.000 A 
ATOM      5  C   UNL     1      -9.972   5.712 132.392  0.00  0.00    +0.000 A 
ATOM      6  C   UNL     1      -8.806   5.139 132.891  0.00  0.00    +0.000 A 
ENDROOT
BRANCH   4   7
ATOM      7  N   UNL     1     -11.191   7.111 130.758  0.00  0.00    +0.000 N 
ATOM      8  C   UNL     1     -11.662   6.720 129.515  0.00  0.00    +0.000 C 
ATOM      9  O   UNL     1     -11.064   5.942 128.764  0.00  0.00    +0.000 OA
ATOM     10  H   UNL     1     -11.643   7.886 131.232  0.00  0.00    +0.000 HD
BRANCH   8  11
ATOM     11  C   UNL     1     -12.972   7.305 129.036  0.00  0.00    +0.000 C 
BRANCH  11  12
ATOM     12  C   UNL     1     -12.698   8.703 128.433  0.00  0.00    +0.000 C 
ATOM     13  C   UNL     1     -13.172   9.847 129.338  0.00  0.00    +0.000 C 
BRANCH  12  14
ATOM     14  O   UNL     1     -11.298   8.853 128.190  0.00  0.00    +0.000 OA
ATOM     15  H   UNL     1     -11.108   8.512 127.301  0.00  0.00    +0.000 HD
ENDBRANCH  12  14
ENDBRANCH  11  12
ENDBRANCH   8  11
ENDBRANCH   4   7
BRANCH   1  16
ATOM     16  O   UNL     1      -6.389   5.015 132.826  0.00  0.00    +0.000 OA
BRANCH  16  18
ATOM     17  C   UNL     1      -5.158   6.091 134.578  0.00  0.00    +0.000 C 
ATOM     18  C   UNL     1      -5.402   6.022 133.081  0.00  0.00    +0.000 C 
ENDBRANCH  16  18
ENDBRANCH   1  16
TORSDOF 6
ENDMDL
MODEL 6
REMARK VINA RESULT:      -5.0     10.068     11.185
REMARK  Name = Bucetin
REMARK  8 active torsions:
REMARK  status: ('A' for Active; 'I' for Inactive)
REMARK    1  A    between atoms: C_1  and  C_2
REMARK    2  A    between atoms: C_2  and  O_3
REMARK    3  A    between atoms: O_3  and  C_4
REMARK    4  A    between atoms: C_7  and  N_8
REMARK    5  A    between atoms: C_9  and  C_11
REMARK    6  A    between atoms: C_11  and  C_12
REMARK    7  A    between atoms: C_12  and  C_13
REMARK    8  A    between atoms: C_12  and  O_14
REMARK                            x       y       z     vdW  Elec       q    Type
REMARK                         _______ _______ _______ _____ _____    ______ ____
ROOT
ATOM      1  C   UNL     1      -8.820  -2.349 126.534  0.00  0.00    +0.000 A 
ATOM      2  C   UNL     1      -8.950  -3.556 127.230  0.00  0.00    +0.000 A 
ATOM      3  C   UNL     1      -8.351  -3.738 128.497  0.00  0.00    +0.000 A 
ATOM      4  C   UNL     1      -7.563  -2.726 129.051  0.00  0.00    +0.000 A 
ATOM      5  C   UNL     1      -7.490  -1.516 128.351  0.00  0.00    +0.000 A 
ATOM      6  C   UNL     1      -8.095  -1.326 127.111  0.00  0.00    +0.000 A 
ENDROOT
BRANCH   4   7
ATOM      7  N   UNL     1      -6.851  -2.933 130.273  0.00  0.00    +0.000 N 
ATOM      8  C   UNL     1      -5.503  -3.252 130.315  0.00  0.00    +0.000 C 
ATOM      9  O   UNL     1      -4.803  -3.425 129.312  0.00  0.00    +0.000 OA
ATOM     10  H   UNL     1      -7.394  -2.987 131.128  0.00  0.00    +0.000 HD
BRANCH   8  11
ATOM     11  C   UNL     1      -4.858  -3.429 131.672  0.00  0.00    +0.000 C 
BRANCH  11  12
ATOM     12  C   UNL     1      -4.984  -4.913 132.089  0.00  0.00    +0.000 C 
ATOM     13  C   UNL     1      -5.770  -5.101 133.393  0.00  0.00    +0.000 C 
BRANCH  12  14
ATOM     14  O   UNL     1      -5.630  -5.649 131.048  0.00  0.00    +0.000 OA
ATOM     15  H   UNL     1      -4.954  -5.912 130.402  0.00  0.00    +0.000 HD
ENDBRANCH  12  14
ENDBRANCH  11  12
ENDBRANCH   8  11
ENDBRANCH   4   7
BRANCH   1  16
ATOM     16  O   UNL     1      -9.511  -2.215 125.360  0.00  0.00    +0.000 OA
BRANCH  16  18
ATOM     17  C   UNL     1      -9.682  -3.402 123.285  0.00  0.00    +0.000 C 
ATOM     18  C   UNL     1      -8.785  -2.558 124.173  0.00  0.00    +0.000 C 
ENDBRANCH  16  18
ENDBRANCH   1  16
TORSDOF 6
ENDMDL
MODEL 7
REMARK VINA RESULT:      -4.9      9.470     10.831
REMARK  Name = Bucetin
REMARK  8 active torsions:
REMARK  status: ('A' for Active; 'I' for Inactive)
REMARK    1  A    between atoms: C_1  and  C_2
REMARK    2  A    between atoms: C_2  and  O_3
REMARK    3  A    between atoms: O_3  and  C_4
REMARK    4  A    between atoms: C_7  and  N_8
REMARK    5  A    between atoms: C_9  and  C_11
REMARK    6  A    between atoms: C_11  and  C_12
REMARK    7  A    between atoms: C_12  and  C_13
REMARK    8  A    between atoms: C_12  and  O_14
REMARK                            x       y       z     vdW  Elec       q    Type
REMARK                         _______ _______ _______ _____ _____    ______ ____
ROOT
ATOM      1  C   UNL     1      -4.944   2.563 125.803  0.00  0.00    +0.000 A 
ATOM      2  C   UNL     1      -5.830   2.957 124.794  0.00  0.00    +0.000 A 
ATOM      3  C   UNL     1      -6.845   2.089 124.331  0.00  0.00    +0.000 A 
ATOM      4  C   UNL     1      -6.941   0.790 124.838  0.00  0.00    +0.000 A 
ATOM      5  C   UNL     1      -6.069   0.443 125.876  0.00  0.00    +0.000 A 
ATOM      6  C   UNL     1      -5.080   1.302 126.348  0.00  0.00    +0.000 A 
ENDROOT
BRANCH   4   7
ATOM      7  N   UNL     1      -7.880  -0.143 124.299  0.00  0.00    +0.000 N 
ATOM      8  C   UNL     1      -7.545  -1.078 123.333  0.00  0.00    +0.000 C 
ATOM      9  O   UNL     1      -6.424  -1.169 122.820  0.00  0.00    +0.000 OA
ATOM     10  H   UNL     1      -8.858  -0.011 124.536  0.00  0.00    +0.000 HD
BRANCH   8  11
ATOM     11  C   UNL     1      -8.625  -2.022 122.855  0.00  0.00    +0.000 C 
BRANCH  11  12
ATOM     12  C   UNL     1      -8.997  -2.976 124.014  0.00  0.00    +0.000 C 
ATOM     13  C   UNL     1      -7.789  -3.745 124.565  0.00  0.00    +0.000 C 
BRANCH  12  14
ATOM     14  O   UNL     1      -9.594  -2.229 125.076  0.00  0.00    +0.000 OA
ATOM     15  H   UNL     1      -9.555  -2.770 125.882  0.00  0.00    +0.000 HD
ENDBRANCH  12  14
ENDBRANCH  11  12
ENDBRANCH   8  11
ENDBRANCH   4   7
BRANCH   1  16
ATOM     16  O   UNL     1      -4.054   3.493 126.267  0.00  0.00    +0.000 OA
BRANCH  16  18
ATOM     17  C   UNL     1      -1.712   3.056 126.519  0.00  0.00    +0.000 C 
ATOM     18  C   UNL     1      -3.073   3.004 127.189  0.00  0.00    +0.000 C 
ENDBRANCH  16  18
ENDBRANCH   1  16
TORSDOF 6
ENDMDL
MODEL 8
REMARK VINA RESULT:      -4.9      8.445      9.829
REMARK  Name = Bucetin
REMARK  8 active torsions:
REMARK  status: ('A' for Active; 'I' for Inactive)
REMARK    1  A    between atoms: C_1  and  C_2
REMARK    2  A    between atoms: C_2  and  O_3
REMARK    3  A    between atoms: O_3  and  C_4
REMARK    4  A    between atoms: C_7  and  N_8
REMARK    5  A    between atoms: C_9  and  C_11
REMARK    6  A    between atoms: C_11  and  C_12
REMARK    7  A    between atoms: C_12  and  C_13
REMARK    8  A    between atoms: C_12  and  O_14
REMARK                            x       y       z     vdW  Elec       q    Type
REMARK                         _______ _______ _______ _____ _____    ______ ____
ROOT
ATOM      1  C   UNL     1      -2.872   5.049 127.767  0.00  0.00    +0.000 A 
ATOM      2  C   UNL     1      -4.217   5.426 127.694  0.00  0.00    +0.000 A 
ATOM      3  C   UNL     1      -5.126   4.738 126.859  0.00  0.00    +0.000 A 
ATOM      4  C   UNL     1      -4.677   3.697 126.042  0.00  0.00    +0.000 A 
ATOM      5  C   UNL     1      -3.337   3.316 126.171  0.00  0.00    +0.000 A 
ATOM      6  C   UNL     1      -2.442   3.979 127.007  0.00  0.00    +0.000 A 
ENDROOT
BRANCH   4   7
ATOM      7  N   UNL     1      -5.552   3.069 125.103  0.00  0.00    +0.000 N 
ATOM      8  C   UNL     1      -5.906   3.649 123.895  0.00  0.00    +0.000 C 
ATOM      9  O   UNL     1      -5.535   4.772 123.534  0.00  0.00    +0.000 OA
ATOM     10  H   UNL     1      -6.039   2.231 125.405  0.00  0.00    +0.000 HD
BRANCH   8  11
ATOM     11  C   UNL     1      -6.826   2.875 122.978  0.00  0.00    +0.000 C 
BRANCH  11  12
ATOM     12  C   UNL     1      -8.287   3.125 123.419  0.00  0.00    +0.000 C 
ATOM     13  C   UNL     1      -8.970   1.865 123.966  0.00  0.00    +0.000 C 
BRANCH  12  14
ATOM     14  O   UNL     1      -8.317   4.142 124.422  0.00  0.00    +0.000 OA
ATOM     15  H   UNL     1      -8.749   4.926 124.043  0.00  0.00    +0.000 HD
ENDBRANCH  12  14
ENDBRANCH  11  12
ENDBRANCH   8  11
ENDBRANCH   4   7
BRANCH   1  16
ATOM     16  O   UNL     1      -2.077   5.699 128.672  0.00  0.00    +0.000 OA
BRANCH  16  18
ATOM     17  C   UNL     1      -2.445   6.637 130.846  0.00  0.00    +0.000 C 
ATOM     18  C   UNL     1      -2.692   6.797 129.357  0.00  0.00    +0.000 C 
ENDBRANCH  16  18
ENDBRANCH   1  16
TORSDOF 6
ENDMDL
MODEL 9
REMARK VINA RESULT:      -4.9      9.194     11.427
REMARK  Name = Bucetin
REMARK  8 active torsions:
REMARK  status: ('A' for Active; 'I' for Inactive)
REMARK    1  A    between atoms: C_1  and  C_2
REMARK    2  A    between atoms: C_2  and  O_3
REMARK    3  A    between atoms: O_3  and  C_4
REMARK    4  A    between atoms: C_7  and  N_8
REMARK    5  A    between atoms: C_9  and  C_11
REMARK    6  A    between atoms: C_11  and  C_12
REMARK    7  A    between atoms: C_12  and  C_13
REMARK    8  A    between atoms: C_12  and  O_14
REMARK                            x       y       z     vdW  Elec       q    Type
REMARK                         _______ _______ _______ _____ _____    ______ ____
ROOT
ATOM      1  C   UNL     1      -8.148  -3.013 128.349  0.00  0.00    +0.000 A 
ATOM      2  C   UNL     1      -7.560  -1.749 128.222  0.00  0.00    +0.000 A 
ATOM      3  C   UNL     1      -7.729  -0.977 127.051  0.00  0.00    +0.000 A 
ATOM      4  C   UNL     1      -8.444  -1.494 125.968  0.00  0.00    +0.000 A 
ATOM      5  C   UNL     1      -9.057  -2.741 126.143  0.00  0.00    +0.000 A 
ATOM      6  C   UNL     1      -8.909  -3.496 127.303  0.00  0.00    +0.000 A 
ENDROOT
BRANCH   4   7
ATOM      7  N   UNL     1      -8.525  -0.782 124.732  0.00  0.00    +0.000 N 
ATOM      8  C   UNL     1      -9.478   0.192 124.483  0.00  0.00    +0.000 C 
ATOM      9  O   UNL     1     -10.366   0.510 125.283  0.00  0.00    +0.000 OA
ATOM     10  H   UNL     1      -7.950  -1.112 123.964  0.00  0.00    +0.000 HD
BRANCH   8  11
ATOM     11  C   UNL     1      -9.450   0.887 123.140  0.00  0.00    +0.000 C 
BRANCH  11  12
ATOM     12  C   UNL     1      -8.270   1.887 123.125  0.00  0.00    +0.000 C 
ATOM     13  C   UNL     1      -8.512   3.082 122.194  0.00  0.00    +0.000 C 
BRANCH  12  14
ATOM     14  O   UNL     1      -8.036   2.370 124.449  0.00  0.00    +0.000 OA
ATOM     15  H   UNL     1      -8.751   2.042 125.020  0.00  0.00    +0.000 HD
ENDBRANCH  12  14
ENDBRANCH  11  12
ENDBRANCH   8  11
ENDBRANCH   4   7
BRANCH   1  16
ATOM     16  O   UNL     1      -8.022  -3.655 129.550  0.00  0.00    +0.000 OA
BRANCH  16  18
ATOM     17  C   UNL     1      -5.970  -4.532 130.423  0.00  0.00    +0.000 C 
ATOM     18  C   UNL     1      -6.862  -3.308 130.318  0.00  0.00    +0.000 C 
ENDBRANCH  16  18
ENDBRANCH   1  16
TORSDOF 6
ENDMDL
