MODEL 1
REMARK VINA RESULT:      -9.2      0.000      0.000
REMARK  Name = Buclizine
REMARK  9 active torsions:
REMARK  status: ('A' for Active; 'I' for Inactive)
REMARK    1  A    between atoms: C_1  and  C_2
REMARK    2  A    between atoms: C_2  and  C_3
REMARK    3  A    between atoms: C_2  and  C_4
REMARK    4  A    between atoms: C_2  and  C_5
REMARK    5  A    between atoms: C_8  and  C_9
REMARK    6  A    between atoms: C_9  and  N_10
REMARK    7  A    between atoms: N_13  and  C_16
REMARK    8  A    between atoms: C_16  and  C_17
REMARK    9  A    between atoms: C_16  and  C_23
REMARK                            x       y       z     vdW  Elec       q    Type
REMARK                         _______ _______ _______ _____ _____    ______ ____
ROOT
ATOM      1  N   UNL     1      -9.313  -1.034 124.663  0.00  0.00    +0.000 NA
ATOM      2  C   UNL     1      -8.969  -0.042 125.703  0.00  0.00    +0.000 C 
ATOM      3  C   UNL     1      -7.535   0.453 125.579  0.00  0.00    +0.000 C 
ATOM      4  N   UNL     1      -7.167   0.906 124.129  0.00  0.00    +0.000 NA
ATOM      5  C   UNL     1      -7.753   0.042 122.987  0.00  0.00    +0.000 C 
ATOM      6  C   UNL     1      -9.170  -0.422 123.309  0.00  0.00    +0.000 C 
ENDROOT
BRANCH   1   7
ATOM      7  C   UNL     1      -8.722  -2.427 124.921  0.00  0.00    +0.000 C 
BRANCH   7  11
ATOM      8  C   UNL     1      -7.286  -3.055 129.026  0.00  0.00    +0.000 A 
ATOM      9  C   UNL     1      -8.545  -3.613 128.636  0.00  0.00    +0.000 A 
ATOM     10  C   UNL     1      -9.080  -3.578 127.296  0.00  0.00    +0.000 A 
ATOM     11  C   UNL     1      -8.357  -2.960 126.321  0.00  0.00    +0.000 A 
ATOM     12  C   UNL     1      -7.139  -2.676 126.822  0.00  0.00    +0.000 A 
ATOM     13  C   UNL     1      -6.557  -2.534 128.033  0.00  0.00    +0.000 A 
BRANCH   8  15
ATOM     14  C   UNL     1      -5.468  -2.030 130.218  0.00  0.00    +0.000 C 
ATOM     15  C   UNL     1      -6.540  -3.130 130.333  0.00  0.00    +0.000 C 
ATOM     16  C   UNL     1      -5.964  -4.525 130.429  0.00  0.00    +0.000 C 
ATOM     17  C   UNL     1      -7.379  -2.836 131.624  0.00  0.00    +0.000 C 
ENDBRANCH   8  15
ENDBRANCH   7  11
ENDBRANCH   1   7
BRANCH   4  18
ATOM     18  C   UNL     1      -7.646   2.286 124.013  0.00  0.00    +0.000 C 
BRANCH  18  19
ATOM     19  C   UNL     1      -7.505   2.883 122.612  0.00  0.00    +0.000 A 
ATOM     20  C   UNL     1      -8.620   3.303 121.891  0.00  0.00    +0.000 A 
ATOM     21  C   UNL     1      -8.487   3.803 120.607  0.00  0.00    +0.000 A 
ATOM     22  C   UNL     1      -7.224   4.048 120.084  0.00  0.00    +0.000 A 
ATOM     23 CL   UNL     1      -7.064   4.756 118.536  0.00  0.00    +0.000 Cl
ATOM     24  C   UNL     1      -6.094   3.679 120.782  0.00  0.00    +0.000 A 
ATOM     25  C   UNL     1      -6.257   2.981 121.965  0.00  0.00    +0.000 A 
ENDBRANCH  18  19
BRANCH  18  26
ATOM     26  C   UNL     1      -6.922   3.102 125.086  0.00  0.00    +0.000 A 
ATOM     27  C   UNL     1      -5.525   3.160 125.086  0.00  0.00    +0.000 A 
ATOM     28  C   UNL     1      -4.875   3.806 126.125  0.00  0.00    +0.000 A 
ATOM     29  C   UNL     1      -5.615   4.455 127.117  0.00  0.00    +0.000 A 
ATOM     30  C   UNL     1      -7.006   4.508 127.054  0.00  0.00    +0.000 A 
ATOM     31  C   UNL     1      -7.657   3.872 126.013  0.00  0.00    +0.000 A 
ENDBRANCH  18  26
ENDBRANCH   4  18
TORSDOF 6
ENDMDL
MODEL 2
REMARK VINA RESULT:      -9.2      3.769      7.592
REMARK  Name = Buclizine
REMARK  9 active torsions:
REMARK  status: ('A' for Active; 'I' for Inactive)
REMARK    1  A    between atoms: C_1  and  C_2
REMARK    2  A    between atoms: C_2  and  C_3
REMARK    3  A    between atoms: C_2  and  C_4
REMARK    4  A    between atoms: C_2  and  C_5
REMARK    5  A    between atoms: C_8  and  C_9
REMARK    6  A    between atoms: C_9  and  N_10
REMARK    7  A    between atoms: N_13  and  C_16
REMARK    8  A    between atoms: C_16  and  C_17
REMARK    9  A    between atoms: C_16  and  C_23
REMARK                            x       y       z     vdW  Elec       q    Type
REMARK                         _______ _______ _______ _____ _____    ______ ____
ROOT
ATOM      1  N   UNL     1      -5.783   4.584 126.686  0.00  0.00    +0.000 NA
ATOM      2  C   UNL     1      -6.307   5.203 125.450  0.00  0.00    +0.000 C 
ATOM      3  C   UNL     1      -5.774   4.530 124.194  0.00  0.00    +0.000 C 
ATOM      4  N   UNL     1      -5.914   2.973 124.227  0.00  0.00    +0.000 NA
ATOM      5  C   UNL     1      -5.643   2.304 125.597  0.00  0.00    +0.000 C 
ATOM      6  C   UNL     1      -6.187   3.148 126.747  0.00  0.00    +0.000 C 
ENDROOT
BRANCH   1   7
ATOM      7  C   UNL     1      -4.329   4.966 126.997  0.00  0.00    +0.000 C 
BRANCH   7  11
ATOM      8  C   UNL     1      -2.483   5.974 130.855  0.00  0.00    +0.000 A 
ATOM      9  C   UNL     1      -2.709   7.015 129.899  0.00  0.00    +0.000 A 
ATOM     10  C   UNL     1      -3.404   6.843 128.645  0.00  0.00    +0.000 A 
ATOM     11  C   UNL     1      -3.873   5.605 128.325  0.00  0.00    +0.000 A 
ATOM     12  C   UNL     1      -3.744   4.816 129.409  0.00  0.00    +0.000 A 
ATOM     13  C   UNL     1      -3.032   4.791 130.556  0.00  0.00    +0.000 A 
BRANCH   8  15
ATOM     14  C   UNL     1      -1.607   4.552 132.584  0.00  0.00    +0.000 C 
ATOM     15  C   UNL     1      -1.906   6.026 132.246  0.00  0.00    +0.000 C 
ATOM     16  C   UNL     1      -2.960   6.646 133.136  0.00  0.00    +0.000 C 
ATOM     17  C   UNL     1      -0.568   6.826 132.409  0.00  0.00    +0.000 C 
ENDBRANCH   8  15
ENDBRANCH   7  11
ENDBRANCH   1   7
BRANCH   4  18
ATOM     18  C   UNL     1      -7.283   2.690 123.790  0.00  0.00    +0.000 C 
BRANCH  18  19
ATOM     19  C   UNL     1      -7.719   1.239 123.996  0.00  0.00    +0.000 A 
ATOM     20  C   UNL     1      -7.114   0.197 123.297  0.00  0.00    +0.000 A 
ATOM     21  C   UNL     1      -7.544  -1.109 123.459  0.00  0.00    +0.000 A 
ATOM     22  C   UNL     1      -8.472  -1.419 124.444  0.00  0.00    +0.000 A 
ATOM     23 CL   UNL     1      -8.928  -3.046 124.706  0.00  0.00    +0.000 Cl
ATOM     24  C   UNL     1      -9.068  -0.419 125.183  0.00  0.00    +0.000 A 
ATOM     25  C   UNL     1      -8.785   0.893 124.852  0.00  0.00    +0.000 A 
ENDBRANCH  18  19
BRANCH  18  26
ATOM     26  C   UNL     1      -7.391   3.146 122.334  0.00  0.00    +0.000 A 
ATOM     27  C   UNL     1      -6.231   3.292 121.567  0.00  0.00    +0.000 A 
ATOM     28  C   UNL     1      -6.328   3.813 120.287  0.00  0.00    +0.000 A 
ATOM     29  C   UNL     1      -7.581   4.117 119.749  0.00  0.00    +0.000 A 
ATOM     30  C   UNL     1      -8.749   3.857 120.461  0.00  0.00    +0.000 A 
ATOM     31  C   UNL     1      -8.657   3.327 121.735  0.00  0.00    +0.000 A 
ENDBRANCH  18  26
ENDBRANCH   4  18
TORSDOF 6
ENDMDL
MODEL 3
REMARK VINA RESULT:      -8.6      0.852      1.468
REMARK  Name = Buclizine
REMARK  9 active torsions:
REMARK  status: ('A' for Active; 'I' for Inactive)
REMARK    1  A    between atoms: C_1  and  C_2
REMARK    2  A    between atoms: C_2  and  C_3
REMARK    3  A    between atoms: C_2  and  C_4
REMARK    4  A    between atoms: C_2  and  C_5
REMARK    5  A    between atoms: C_8  and  C_9
REMARK    6  A    between atoms: C_9  and  N_10
REMARK    7  A    between atoms: N_13  and  C_16
REMARK    8  A    between atoms: C_16  and  C_17
REMARK    9  A    between atoms: C_16  and  C_23
REMARK                            x       y       z     vdW  Elec       q    Type
REMARK                         _______ _______ _______ _____ _____    ______ ____
ROOT
ATOM      1  N   UNL     1      -8.750  -0.758 125.453  0.00  0.00    +0.000 NA
ATOM      2  C   UNL     1      -8.195   0.228 126.404  0.00  0.00    +0.000 C 
ATOM      3  C   UNL     1      -6.774   0.638 126.049  0.00  0.00    +0.000 C 
ATOM      4  N   UNL     1      -6.611   1.048 124.550  0.00  0.00    +0.000 NA
ATOM      5  C   UNL     1      -7.413   0.202 123.532  0.00  0.00    +0.000 C 
ATOM      6  C   UNL     1      -8.787  -0.175 124.079  0.00  0.00    +0.000 C 
ENDROOT
BRANCH   1   7
ATOM      7  C   UNL     1      -8.203  -2.179 125.649  0.00  0.00    +0.000 C 
BRANCH   7  11
ATOM      8  C   UNL     1      -6.866  -3.117 129.728  0.00  0.00    +0.000 A 
ATOM      9  C   UNL     1      -8.175  -3.523 129.314  0.00  0.00    +0.000 A 
ATOM     10  C   UNL     1      -8.695  -3.379 127.975  0.00  0.00    +0.000 A 
ATOM     11  C   UNL     1      -7.904  -2.803 127.027  0.00  0.00    +0.000 A 
ATOM     12  C   UNL     1      -6.666  -2.668 127.542  0.00  0.00    +0.000 A 
ATOM     13  C   UNL     1      -6.080  -2.637 128.758  0.00  0.00    +0.000 A 
BRANCH   8  15
ATOM     14  C   UNL     1      -7.210  -3.045 132.106  0.00  0.00    +0.000 C 
ATOM     15  C   UNL     1      -6.140  -3.322 131.032  0.00  0.00    +0.000 C 
ATOM     16  C   UNL     1      -4.994  -2.335 131.056  0.00  0.00    +0.000 C 
ATOM     17  C   UNL     1      -5.577  -4.762 131.290  0.00  0.00    +0.000 C 
ENDBRANCH   8  15
ENDBRANCH   7  11
ENDBRANCH   1   7
BRANCH   4  18
ATOM     18  C   UNL     1      -7.026   2.451 124.477  0.00  0.00    +0.000 C 
BRANCH  18  19
ATOM     19  C   UNL     1      -7.190   2.984 123.053  0.00  0.00    +0.000 A 
ATOM     20  C   UNL     1      -6.085   3.341 122.284  0.00  0.00    +0.000 A 
ATOM     21  C   UNL     1      -6.245   3.861 121.011  0.00  0.00    +0.000 A 
ATOM     22  C   UNL     1      -7.501   3.878 120.420  0.00  0.00    +0.000 A 
ATOM     23 CL   UNL     1      -7.680   4.430 118.811  0.00  0.00    +0.000 Cl
ATOM     24  C   UNL     1      -8.616   3.497 121.135  0.00  0.00    +0.000 A 
ATOM     25  C   UNL     1      -8.459   3.191 122.474  0.00  0.00    +0.000 A 
ENDBRANCH  18  19
BRANCH  18  26
ATOM     26  C   UNL     1      -6.025   3.258 125.305  0.00  0.00    +0.000 A 
ATOM     27  C   UNL     1      -4.760   2.726 125.573  0.00  0.00    +0.000 A 
ATOM     28  C   UNL     1      -3.902   3.411 126.417  0.00  0.00    +0.000 A 
ATOM     29  C   UNL     1      -4.274   4.656 126.932  0.00  0.00    +0.000 A 
ATOM     30  C   UNL     1      -5.481   5.249 126.569  0.00  0.00    +0.000 A 
ATOM     31  C   UNL     1      -6.336   4.572 125.718  0.00  0.00    +0.000 A 
ENDBRANCH  18  26
ENDBRANCH   4  18
TORSDOF 6
ENDMDL
MODEL 4
REMARK VINA RESULT:      -8.5      3.386      8.958
REMARK  Name = Buclizine
REMARK  9 active torsions:
REMARK  status: ('A' for Active; 'I' for Inactive)
REMARK    1  A    between atoms: C_1  and  C_2
REMARK    2  A    between atoms: C_2  and  C_3
REMARK    3  A    between atoms: C_2  and  C_4
REMARK    4  A    between atoms: C_2  and  C_5
REMARK    5  A    between atoms: C_8  and  C_9
REMARK    6  A    between atoms: C_9  and  N_10
REMARK    7  A    between atoms: N_13  and  C_16
REMARK    8  A    between atoms: C_16  and  C_17
REMARK    9  A    between atoms: C_16  and  C_23
REMARK                            x       y       z     vdW  Elec       q    Type
REMARK                         _______ _______ _______ _____ _____    ______ ____
ROOT
ATOM      1  N   UNL     1      -8.622   2.140 127.005  0.00  0.00    +0.000 NA
ATOM      2  C   UNL     1      -8.889   1.046 126.048  0.00  0.00    +0.000 C 
ATOM      3  C   UNL     1      -7.670   0.167 125.818  0.00  0.00    +0.000 C 
ATOM      4  N   UNL     1      -6.997  -0.309 127.147  0.00  0.00    +0.000 NA
ATOM      5  C   UNL     1      -6.951   0.737 128.287  0.00  0.00    +0.000 C 
ATOM      6  C   UNL     1      -8.227   1.573 128.329  0.00  0.00    +0.000 C 
ENDROOT
BRANCH   1   7
ATOM      7  C   UNL     1      -7.800   3.292 126.409  0.00  0.00    +0.000 C 
BRANCH   7  11
ATOM      8  C   UNL     1      -6.487   3.683 122.234  0.00  0.00    +0.000 A 
ATOM      9  C   UNL     1      -7.833   3.280 122.505  0.00  0.00    +0.000 A 
ATOM     10  C   UNL     1      -8.425   3.220 123.821  0.00  0.00    +0.000 A 
ATOM     11  C   UNL     1      -7.657   3.553 124.896  0.00  0.00    +0.000 A 
ATOM     12  C   UNL     1      -6.507   4.084 124.439  0.00  0.00    +0.000 A 
ATOM     13  C   UNL     1      -5.785   4.091 123.297  0.00  0.00    +0.000 A 
BRANCH   8  15
ATOM     14  C   UNL     1      -6.917   4.197 119.925  0.00  0.00    +0.000 C 
ATOM     15  C   UNL     1      -5.778   3.925 120.927  0.00  0.00    +0.000 C 
ATOM     16  C   UNL     1      -4.990   2.672 120.617  0.00  0.00    +0.000 C 
ATOM     17  C   UNL     1      -4.810   5.157 120.884  0.00  0.00    +0.000 C 
ENDBRANCH   8  15
ENDBRANCH   7  11
ENDBRANCH   1   7
BRANCH   4  18
ATOM     18  C   UNL     1      -7.757  -1.487 127.574  0.00  0.00    +0.000 C 
BRANCH  18  19
ATOM     19  C   UNL     1      -7.112  -2.267 128.720  0.00  0.00    +0.000 A 
ATOM     20  C   UNL     1      -7.847  -2.646 129.840  0.00  0.00    +0.000 A 
ATOM     21  C   UNL     1      -7.244  -3.316 130.890  0.00  0.00    +0.000 A 
ATOM     22  C   UNL     1      -5.936  -3.767 130.769  0.00  0.00    +0.000 A 
ATOM     23 CL   UNL     1      -5.226  -4.679 132.029  0.00  0.00    +0.000 Cl
ATOM     24  C   UNL     1      -5.186  -3.444 129.658  0.00  0.00    +0.000 A 
ATOM     25  C   UNL     1      -5.739  -2.589 128.723  0.00  0.00    +0.000 A 
ENDBRANCH  18  19
BRANCH  18  26
ATOM     26  C   UNL     1      -7.996  -2.341 126.328  0.00  0.00    +0.000 A 
ATOM     27  C   UNL     1      -6.904  -2.792 125.578  0.00  0.00    +0.000 A 
ATOM     28  C   UNL     1      -7.132  -3.467 124.391  0.00  0.00    +0.000 A 
ATOM     29  C   UNL     1      -8.439  -3.758 123.991  0.00  0.00    +0.000 A 
ATOM     30  C   UNL     1      -9.525  -3.422 124.795  0.00  0.00    +0.000 A 
ATOM     31  C   UNL     1      -9.301  -2.756 125.986  0.00  0.00    +0.000 A 
ENDBRANCH  18  26
ENDBRANCH   4  18
TORSDOF 6
ENDMDL
MODEL 5
REMARK VINA RESULT:      -8.5      3.666      6.967
REMARK  Name = Buclizine
REMARK  9 active torsions:
REMARK  status: ('A' for Active; 'I' for Inactive)
REMARK    1  A    between atoms: C_1  and  C_2
REMARK    2  A    between atoms: C_2  and  C_3
REMARK    3  A    between atoms: C_2  and  C_4
REMARK    4  A    between atoms: C_2  and  C_5
REMARK    5  A    between atoms: C_8  and  C_9
REMARK    6  A    between atoms: C_9  and  N_10
REMARK    7  A    between atoms: N_13  and  C_16
REMARK    8  A    between atoms: C_16  and  C_17
REMARK    9  A    between atoms: C_16  and  C_23
REMARK                            x       y       z     vdW  Elec       q    Type
REMARK                         _______ _______ _______ _____ _____    ______ ____
ROOT
ATOM      1  N   UNL     1      -4.660   3.530 126.216  0.00  0.00    +0.000 NA
ATOM      2  C   UNL     1      -5.025   2.104 126.083  0.00  0.00    +0.000 C 
ATOM      3  C   UNL     1      -6.491   1.912 125.726  0.00  0.00    +0.000 C 
ATOM      4  N   UNL     1      -6.949   2.795 124.519  0.00  0.00    +0.000 NA
ATOM      5  C   UNL     1      -6.355   4.224 124.470  0.00  0.00    +0.000 C 
ATOM      6  C   UNL     1      -4.898   4.239 124.923  0.00  0.00    +0.000 C 
ENDROOT
BRANCH   1   7
ATOM      7  C   UNL     1      -5.149   4.172 127.522  0.00  0.00    +0.000 C 
BRANCH   7  11
ATOM      8  C   UNL     1      -2.871   6.135 130.726  0.00  0.00    +0.000 A 
ATOM      9  C   UNL     1      -2.356   6.158 129.391  0.00  0.00    +0.000 A 
ATOM     10  C   UNL     1      -3.052   5.653 128.232  0.00  0.00    +0.000 A 
ATOM     11  C   UNL     1      -4.283   5.095 128.403  0.00  0.00    +0.000 A 
ATOM     12  C   UNL     1      -4.677   5.335 129.669  0.00  0.00    +0.000 A 
ATOM     13  C   UNL     1      -4.117   5.665 130.852  0.00  0.00    +0.000 A 
BRANCH   8  15
ATOM     14  C   UNL     1      -0.803   6.627 131.848  0.00  0.00    +0.000 C 
ATOM     15  C   UNL     1      -2.333   6.737 131.998  0.00  0.00    +0.000 C 
ATOM     16  C   UNL     1      -2.886   5.915 133.141  0.00  0.00    +0.000 C 
ATOM     17  C   UNL     1      -2.674   8.246 132.246  0.00  0.00    +0.000 C 
ENDBRANCH   8  15
ENDBRANCH   7  11
ENDBRANCH   1   7
BRANCH   4  18
ATOM     18  C   UNL     1      -6.565   2.049 123.317  0.00  0.00    +0.000 C 
BRANCH  18  19
ATOM     19  C   UNL     1      -6.561   2.884 122.036  0.00  0.00    +0.000 A 
ATOM     20  C   UNL     1      -7.749   3.313 121.450  0.00  0.00    +0.000 A 
ATOM     21  C   UNL     1      -7.737   4.032 120.268  0.00  0.00    +0.000 A 
ATOM     22  C   UNL     1      -6.534   4.480 119.738  0.00  0.00    +0.000 A 
ATOM     23 CL   UNL     1      -6.529   5.451 118.331  0.00  0.00    +0.000 Cl
ATOM     24  C   UNL     1      -5.336   4.107 120.310  0.00  0.00    +0.000 A 
ATOM     25  C   UNL     1      -5.367   3.208 121.360  0.00  0.00    +0.000 A 
ENDBRANCH  18  19
BRANCH  18  26
ATOM     26  C   UNL     1      -7.486   0.831 123.234  0.00  0.00    +0.000 A 
ATOM     27  C   UNL     1      -6.933  -0.451 123.141  0.00  0.00    +0.000 A 
ATOM     28  C   UNL     1      -7.771  -1.537 122.952  0.00  0.00    +0.000 A 
ATOM     29  C   UNL     1      -9.156  -1.356 122.929  0.00  0.00    +0.000 A 
ATOM     30  C   UNL     1      -9.718  -0.101 123.147  0.00  0.00    +0.000 A 
ATOM     31  C   UNL     1      -8.885   0.985 123.346  0.00  0.00    +0.000 A 
ENDBRANCH  18  26
ENDBRANCH   4  18
TORSDOF 6
ENDMDL
MODEL 6
REMARK VINA RESULT:      -8.5      3.523      6.860
REMARK  Name = Buclizine
REMARK  9 active torsions:
REMARK  status: ('A' for Active; 'I' for Inactive)
REMARK    1  A    between atoms: C_1  and  C_2
REMARK    2  A    between atoms: C_2  and  C_3
REMARK    3  A    between atoms: C_2  and  C_4
REMARK    4  A    between atoms: C_2  and  C_5
REMARK    5  A    between atoms: C_8  and  C_9
REMARK    6  A    between atoms: C_9  and  N_10
REMARK    7  A    between atoms: N_13  and  C_16
REMARK    8  A    between atoms: C_16  and  C_17
REMARK    9  A    between atoms: C_16  and  C_23
REMARK                            x       y       z     vdW  Elec       q    Type
REMARK                         _______ _______ _______ _____ _____    ______ ____
ROOT
ATOM      1  N   UNL     1      -6.843   1.989 128.938  0.00  0.00    +0.000 NA
ATOM      2  C   UNL     1      -6.328   0.642 128.616  0.00  0.00    +0.000 C 
ATOM      3  C   UNL     1      -7.407  -0.273 128.056  0.00  0.00    +0.000 C 
ATOM      4  N   UNL     1      -8.225   0.383 126.897  0.00  0.00    +0.000 NA
ATOM      5  C   UNL     1      -8.546   1.887 127.069  0.00  0.00    +0.000 C 
ATOM      6  C   UNL     1      -7.379   2.638 127.704  0.00  0.00    +0.000 C 
ENDROOT
BRANCH   1   7
ATOM      7  C   UNL     1      -7.672   2.039 130.230  0.00  0.00    +0.000 C 
BRANCH   7  11
ATOM      8  C   UNL     1     -10.652   5.266 130.110  0.00  0.00    +0.000 A 
ATOM      9  C   UNL     1     -11.078   3.936 130.424  0.00  0.00    +0.000 A 
ATOM     10  C   UNL     1     -10.193   2.810 130.605  0.00  0.00    +0.000 A 
ATOM     11  C   UNL     1      -8.854   3.003 130.457  0.00  0.00    +0.000 A 
ATOM     12  C   UNL     1      -8.631   4.329 130.360  0.00  0.00    +0.000 A 
ATOM     13  C   UNL     1      -9.327   5.446 130.059  0.00  0.00    +0.000 A 
BRANCH   8  15
ATOM     14  C   UNL     1     -10.383   7.598 129.593  0.00  0.00    +0.000 C 
ATOM     15  C   UNL     1     -11.429   6.553 130.027  0.00  0.00    +0.000 C 
ATOM     16  C   UNL     1     -12.002   6.810 131.403  0.00  0.00    +0.000 C 
ATOM     17  C   UNL     1     -12.594   6.590 128.978  0.00  0.00    +0.000 C 
ENDBRANCH   8  15
ENDBRANCH   7  11
ENDBRANCH   1   7
BRANCH   4  18
ATOM     18  C   UNL     1      -7.428   0.173 125.685  0.00  0.00    +0.000 C 
BRANCH  18  19
ATOM     19  C   UNL     1      -7.794   1.102 124.526  0.00  0.00    +0.000 A 
ATOM     20  C   UNL     1      -6.864   1.989 123.990  0.00  0.00    +0.000 A 
ATOM     21  C   UNL     1      -7.217   2.855 122.969  0.00  0.00    +0.000 A 
ATOM     22  C   UNL     1      -8.455   2.736 122.353  0.00  0.00    +0.000 A 
ATOM     23 CL   UNL     1      -8.850   3.742 121.028  0.00  0.00    +0.000 Cl
ATOM     24  C   UNL     1      -9.391   1.844 122.831  0.00  0.00    +0.000 A 
ATOM     25  C   UNL     1      -9.096   1.146 123.987  0.00  0.00    +0.000 A 
ENDBRANCH  18  19
BRANCH  18  26
ATOM     26  C   UNL     1      -7.545  -1.308 125.323  0.00  0.00    +0.000 A 
ATOM     27  C   UNL     1      -6.423  -1.996 124.848  0.00  0.00    +0.000 A 
ATOM     28  C   UNL     1      -6.565  -3.304 124.416  0.00  0.00    +0.000 A 
ATOM     29  C   UNL     1      -7.800  -3.947 124.526  0.00  0.00    +0.000 A 
ATOM     30  C   UNL     1      -8.890  -3.309 125.113  0.00  0.00    +0.000 A 
ATOM     31  C   UNL     1      -8.750  -2.006 125.555  0.00  0.00    +0.000 A 
ENDBRANCH  18  26
ENDBRANCH   4  18
TORSDOF 6
ENDMDL
MODEL 7
REMARK VINA RESULT:      -8.4      4.715      8.602
REMARK  Name = Buclizine
REMARK  9 active torsions:
REMARK  status: ('A' for Active; 'I' for Inactive)
REMARK    1  A    between atoms: C_1  and  C_2
REMARK    2  A    between atoms: C_2  and  C_3
REMARK    3  A    between atoms: C_2  and  C_4
REMARK    4  A    between atoms: C_2  and  C_5
REMARK    5  A    between atoms: C_8  and  C_9
REMARK    6  A    between atoms: C_9  and  N_10
REMARK    7  A    between atoms: N_13  and  C_16
REMARK    8  A    between atoms: C_16  and  C_17
REMARK    9  A    between atoms: C_16  and  C_23
REMARK                            x       y       z     vdW  Elec       q    Type
REMARK                         _______ _______ _______ _____ _____    ______ ____
ROOT
ATOM      1  N   UNL     1      -8.135   3.244 131.755  0.00  0.00    +0.000 NA
ATOM      2  C   UNL     1      -8.681   1.970 131.242  0.00  0.00    +0.000 C 
ATOM      3  C   UNL     1      -9.097   2.064 129.782  0.00  0.00    +0.000 C 
ATOM      4  N   UNL     1      -7.992   2.688 128.869  0.00  0.00    +0.000 NA
ATOM      5  C   UNL     1      -7.194   3.861 129.488  0.00  0.00    +0.000 C 
ATOM      6  C   UNL     1      -6.923   3.630 130.972  0.00  0.00    +0.000 C 
ENDROOT
BRANCH   1   7
ATOM      7  C   UNL     1      -9.208   4.303 132.042  0.00  0.00    +0.000 C 
BRANCH   7  11
ATOM      8  C   UNL     1     -11.388   7.179 129.534  0.00  0.00    +0.000 A 
ATOM      9  C   UNL     1     -10.065   7.503 129.976  0.00  0.00    +0.000 A 
ATOM     10  C   UNL     1      -9.200   6.608 130.706  0.00  0.00    +0.000 A 
ATOM     11  C   UNL     1      -9.663   5.366 131.021  0.00  0.00    +0.000 A 
ATOM     12  C   UNL     1     -10.825   5.176 130.367  0.00  0.00    +0.000 A 
ATOM     13  C   UNL     1     -11.783   5.924 129.778  0.00  0.00    +0.000 A 
BRANCH   8  15
ATOM     14  C   UNL     1     -13.550   6.994 128.501  0.00  0.00    +0.000 C 
ATOM     15  C   UNL     1     -12.346   7.942 128.658  0.00  0.00    +0.000 C 
ATOM     16  C   UNL     1     -11.625   8.220 127.357  0.00  0.00    +0.000 C 
ATOM     17  C   UNL     1     -12.884   9.295 129.238  0.00  0.00    +0.000 C 
ENDBRANCH   8  15
ENDBRANCH   7  11
ENDBRANCH   1   7
BRANCH   4  18
ATOM     18  C   UNL     1      -7.088   1.585 128.534  0.00  0.00    +0.000 C 
BRANCH  18  19
ATOM     19  C   UNL     1      -5.738   2.032 127.969  0.00  0.00    +0.000 A 
ATOM     20  C   UNL     1      -5.609   2.442 126.645  0.00  0.00    +0.000 A 
ATOM     21  C   UNL     1      -4.375   2.805 126.132  0.00  0.00    +0.000 A 
ATOM     22  C   UNL     1      -3.279   2.923 126.976  0.00  0.00    +0.000 A 
ATOM     23 CL   UNL     1      -1.780   3.464 126.356  0.00  0.00    +0.000 Cl
ATOM     24  C   UNL     1      -3.375   2.561 128.302  0.00  0.00    +0.000 A 
ATOM     25  C   UNL     1      -4.557   1.994 128.740  0.00  0.00    +0.000 A 
ENDBRANCH  18  19
BRANCH  18  26
ATOM     26  C   UNL     1      -7.850   0.652 127.592  0.00  0.00    +0.000 A 
ATOM     27  C   UNL     1      -7.649  -0.729 127.674  0.00  0.00    +0.000 A 
ATOM     28  C   UNL     1      -8.255  -1.557 126.744  0.00  0.00    +0.000 A 
ATOM     29  C   UNL     1      -9.116  -1.019 125.784  0.00  0.00    +0.000 A 
ATOM     30  C   UNL     1      -9.419   0.341 125.775  0.00  0.00    +0.000 A 
ATOM     31  C   UNL     1      -8.823   1.169 126.709  0.00  0.00    +0.000 A 
ENDBRANCH  18  26
ENDBRANCH   4  18
TORSDOF 6
ENDMDL
MODEL 8
REMARK VINA RESULT:      -8.4      5.044      7.425
REMARK  Name = Buclizine
REMARK  9 active torsions:
REMARK  status: ('A' for Active; 'I' for Inactive)
REMARK    1  A    between atoms: C_1  and  C_2
REMARK    2  A    between atoms: C_2  and  C_3
REMARK    3  A    between atoms: C_2  and  C_4
REMARK    4  A    between atoms: C_2  and  C_5
REMARK    5  A    between atoms: C_8  and  C_9
REMARK    6  A    between atoms: C_9  and  N_10
REMARK    7  A    between atoms: N_13  and  C_16
REMARK    8  A    between atoms: C_16  and  C_17
REMARK    9  A    between atoms: C_16  and  C_23
REMARK                            x       y       z     vdW  Elec       q    Type
REMARK                         _______ _______ _______ _____ _____    ______ ____
ROOT
ATOM      1  N   UNL     1      -7.348   1.304 129.110  0.00  0.00    +0.000 NA
ATOM      2  C   UNL     1      -7.144   1.581 130.547  0.00  0.00    +0.000 C 
ATOM      3  C   UNL     1      -6.698   3.013 130.803  0.00  0.00    +0.000 C 
ATOM      4  N   UNL     1      -7.591   4.072 130.077  0.00  0.00    +0.000 NA
ATOM      5  C   UNL     1      -8.065   3.687 128.655  0.00  0.00    +0.000 C 
ATOM      6  C   UNL     1      -8.408   2.203 128.563  0.00  0.00    +0.000 C 
ENDROOT
BRANCH   1   7
ATOM      7  C   UNL     1      -6.041   1.125 128.326  0.00  0.00    +0.000 C 
BRANCH   7  11
ATOM      8  C   UNL     1      -6.232  -1.647 124.922  0.00  0.00    +0.000 A 
ATOM      9  C   UNL     1      -6.419  -0.247 124.690  0.00  0.00    +0.000 A 
ATOM     10  C   UNL     1      -6.271   0.779 125.695  0.00  0.00    +0.000 A 
ATOM     11  C   UNL     1      -5.946   0.407 126.964  0.00  0.00    +0.000 A 
ATOM     12  C   UNL     1      -5.624  -0.901 126.946  0.00  0.00    +0.000 A 
ATOM     13  C   UNL     1      -5.825  -1.976 126.153  0.00  0.00    +0.000 A 
BRANCH   8  15
ATOM     14  C   UNL     1      -6.289  -2.148 122.571  0.00  0.00    +0.000 C 
ATOM     15  C   UNL     1      -6.215  -2.808 123.962  0.00  0.00    +0.000 C 
ATOM     16  C   UNL     1      -7.419  -3.664 124.287  0.00  0.00    +0.000 C 
ATOM     17  C   UNL     1      -4.931  -3.707 123.988  0.00  0.00    +0.000 C 
ENDBRANCH   8  15
ENDBRANCH   7  11
ENDBRANCH   1   7
BRANCH   4  18
ATOM     18  C   UNL     1      -8.745   4.282 130.954  0.00  0.00    +0.000 C 
BRANCH  18  19
ATOM     19  C   UNL     1      -9.745   5.317 130.437  0.00  0.00    +0.000 A 
ATOM     20  C   UNL     1     -11.105   5.029 130.353  0.00  0.00    +0.000 A 
ATOM     21  C   UNL     1     -11.997   5.958 129.844  0.00  0.00    +0.000 A 
ATOM     22  C   UNL     1     -11.571   7.250 129.566  0.00  0.00    +0.000 A 
ATOM     23 CL   UNL     1     -12.696   8.422 129.029  0.00  0.00    +0.000 Cl
ATOM     24  C   UNL     1     -10.239   7.586 129.671  0.00  0.00    +0.000 A 
ATOM     25  C   UNL     1      -9.335   6.583 129.969  0.00  0.00    +0.000 A 
ENDBRANCH  18  19
BRANCH  18  26
ATOM     26  C   UNL     1      -8.198   4.622 132.341  0.00  0.00    +0.000 A 
ATOM     27  C   UNL     1      -7.116   5.501 132.463  0.00  0.00    +0.000 A 
ATOM     28  C   UNL     1      -6.555   5.714 133.710  0.00  0.00    +0.000 A 
ATOM     29  C   UNL     1      -7.114   5.114 134.841  0.00  0.00    +0.000 A 
ATOM     30  C   UNL     1      -8.266   4.338 134.744  0.00  0.00    +0.000 A 
ATOM     31  C   UNL     1      -8.836   4.130 133.501  0.00  0.00    +0.000 A 
ENDBRANCH  18  26
ENDBRANCH   4  18
TORSDOF 6
ENDMDL
MODEL 9
REMARK VINA RESULT:      -8.4      4.073      8.362
REMARK  Name = Buclizine
REMARK  9 active torsions:
REMARK  status: ('A' for Active; 'I' for Inactive)
REMARK    1  A    between atoms: C_1  and  C_2
REMARK    2  A    between atoms: C_2  and  C_3
REMARK    3  A    between atoms: C_2  and  C_4
REMARK    4  A    between atoms: C_2  and  C_5
REMARK    5  A    between atoms: C_8  and  C_9
REMARK    6  A    between atoms: C_9  and  N_10
REMARK    7  A    between atoms: N_13  and  C_16
REMARK    8  A    between atoms: C_16  and  C_17
REMARK    9  A    between atoms: C_16  and  C_23
REMARK                            x       y       z     vdW  Elec       q    Type
REMARK                         _______ _______ _______ _____ _____    ______ ____
ROOT
ATOM      1  N   UNL     1      -6.879   2.209 129.863  0.00  0.00    +0.000 NA
ATOM      2  C   UNL     1      -5.876   1.188 130.232  0.00  0.00    +0.000 C 
ATOM      3  C   UNL     1      -6.506  -0.168 130.515  0.00  0.00    +0.000 C 
ATOM      4  N   UNL     1      -7.493  -0.630 129.394  0.00  0.00    +0.000 NA
ATOM      5  C   UNL     1      -8.375   0.482 128.775  0.00  0.00    +0.000 C 
ATOM      6  C   UNL     1      -7.601   1.789 128.626  0.00  0.00    +0.000 C 
ENDROOT
BRANCH   1   7
ATOM      7  C   UNL     1      -7.685   2.740 131.057  0.00  0.00    +0.000 C 
BRANCH   7  11
ATOM      8  C   UNL     1     -10.781   5.667 129.983  0.00  0.00    +0.000 A 
ATOM      9  C   UNL     1     -11.169   4.323 130.284  0.00  0.00    +0.000 A 
ATOM     10  C   UNL     1     -10.273   3.295 130.758  0.00  0.00    +0.000 A 
ATOM     11  C   UNL     1      -8.956   3.603 130.920  0.00  0.00    +0.000 A 
ATOM     12  C   UNL     1      -8.818   4.936 130.780  0.00  0.00    +0.000 A 
ATOM     13  C   UNL     1      -9.502   5.966 130.237  0.00  0.00    +0.000 A 
BRANCH   8  15
ATOM     14  C   UNL     1     -10.572   7.924 129.182  0.00  0.00    +0.000 C 
ATOM     15  C   UNL     1     -11.610   6.871 129.618  0.00  0.00    +0.000 C 
ATOM     16  C   UNL     1     -12.382   7.264 130.857  0.00  0.00    +0.000 C 
ATOM     17  C   UNL     1     -12.616   6.683 128.431  0.00  0.00    +0.000 C 
ENDBRANCH   8  15
ENDBRANCH   7  11
ENDBRANCH   1   7
BRANCH   4  18
ATOM     18  C   UNL     1      -6.656  -1.242 128.359  0.00  0.00    +0.000 C 
BRANCH  18  19
ATOM     19  C   UNL     1      -7.424  -1.690 127.115  0.00  0.00    +0.000 A 
ATOM     20  C   UNL     1      -7.162  -1.135 125.865  0.00  0.00    +0.000 A 
ATOM     21  C   UNL     1      -7.891  -1.516 124.752  0.00  0.00    +0.000 A 
ATOM     22  C   UNL     1      -8.781  -2.579 124.835  0.00  0.00    +0.000 A 
ATOM     23 CL   UNL     1      -9.608  -3.111 123.436  0.00  0.00    +0.000 Cl
ATOM     24  C   UNL     1      -9.041  -3.181 126.048  0.00  0.00    +0.000 A 
ATOM     25  C   UNL     1      -8.466  -2.638 127.182  0.00  0.00    +0.000 A 
ENDBRANCH  18  19
BRANCH  18  26
ATOM     26  C   UNL     1      -5.882  -2.381 129.026  0.00  0.00    +0.000 A 
ATOM     27  C   UNL     1      -6.564  -3.311 129.817  0.00  0.00    +0.000 A 
ATOM     28  C   UNL     1      -5.842  -4.270 130.508  0.00  0.00    +0.000 A 
ATOM     29  C   UNL     1      -4.456  -4.348 130.352  0.00  0.00    +0.000 A 
ATOM     30  C   UNL     1      -3.785  -3.506 129.469  0.00  0.00    +0.000 A 
ATOM     31  C   UNL     1      -4.504  -2.553 128.770  0.00  0.00    +0.000 A 
ENDBRANCH  18  26
ENDBRANCH   4  18
TORSDOF 6
ENDMDL
