MODEL 1
REMARK VINA RESULT:      -8.4      0.000      0.000
REMARK  Name = Budesonide
REMARK  9 active torsions:
REMARK  status: ('A' for Active; 'I' for Inactive)
REMARK    1  A    between atoms: C_6  and  C_7
REMARK    2  A    between atoms: C_7  and  C_8
REMARK    3  A    between atoms: C_8  and  C_9
REMARK    4  A    between atoms: C_11  and  C_12
REMARK    5  A    between atoms: C_12  and  C_14
REMARK    6  A    between atoms: C_14  and  O_15
REMARK    7  A    between atoms: C_16  and  C_17
REMARK    8  A    between atoms: C_19  and  O_20
REMARK    9  A    between atoms: C_33  and  C_34
REMARK                            x       y       z     vdW  Elec       q    Type
REMARK                         _______ _______ _______ _____ _____    ______ ____
ROOT
ATOM      1  C   UNL     1      -7.714  -3.146 125.498  0.00  0.00    +0.000 C 
ATOM      2  C   UNL     1      -9.209  -3.122 125.458  0.00  0.00    +0.000 C 
ATOM      3  C   UNL     1      -9.653  -1.679 125.373  0.00  0.00    +0.000 C 
ATOM      4  O   UNL     1      -9.461  -0.830 124.128  0.00  0.00    +0.000 OA
ATOM      5  C   UNL     1      -8.943   0.466 124.582  0.00  0.00    +0.000 C 
ATOM      6  O   UNL     1      -9.145   0.343 125.931  0.00  0.00    +0.000 OA
ATOM      7  C   UNL     1      -8.587  -1.112 126.222  0.00  0.00    +0.000 C 
ATOM      8  C   UNL     1      -7.107  -1.899 125.094  0.00  0.00    +0.000 C 
ATOM      9  C   UNL     1      -5.386  -2.542 125.007  0.00  0.00    +0.000 C 
ATOM     10  C   UNL     1      -6.618  -0.729 124.407  0.00  0.00    +0.000 C 
ATOM     11  C   UNL     1      -6.201   0.209 125.594  0.00  0.00    +0.000 C 
ATOM     12  C   UNL     1      -6.923  -0.274 126.784  0.00  0.00    +0.000 C 
ATOM     13  C   UNL     1      -7.323  -2.480 126.756  0.00  0.00    +0.000 C 
ATOM     14  C   UNL     1      -8.263  -3.279 128.479  0.00  0.00    +0.000 C 
ATOM     15  C   UNL     1      -7.773  -2.285 130.234  0.00  0.00    +0.000 C 
ATOM     16  C   UNL     1      -7.606  -0.419 130.073  0.00  0.00    +0.000 C 
ATOM     17  C   UNL     1      -8.308   0.379 130.884  0.00  0.00    +0.000 C 
ATOM     18  C   UNL     1      -8.186   1.834 130.552  0.00  0.00    +0.000 C 
ATOM     19  O   UNL     1      -7.483   2.727 131.004  0.00  0.00    +0.000 OA
ATOM     20  C   UNL     1      -9.012   2.244 129.426  0.00  0.00    +0.000 C 
ATOM     21  C   UNL     1      -8.014   1.800 128.587  0.00  0.00    +0.000 C 
ATOM     22  C   UNL     1      -6.874   0.515 128.635  0.00  0.00    +0.000 C 
ATOM     23  C   UNL     1      -5.300   0.500 128.969  0.00  0.00    +0.000 C 
ENDROOT
BRANCH   7  24
ATOM     24  C   UNL     1      -7.688  -1.353 128.076  0.00  0.00    +0.000 C 
ATOM     25  O   UNL     1      -6.137  -1.229 128.032  0.00  0.00    +0.000 OA
BRANCH  24  26
ATOM     26  C   UNL     1      -6.411  -2.680 128.536  0.00  0.00    +0.000 C 
BRANCH  26  27
ATOM     27  O   UNL     1      -5.095  -2.913 128.692  0.00  0.00    +0.000 OA
ATOM     28  H   UNL     1      -5.191  -3.278 129.593  0.00  0.00    +0.000 HD
ENDBRANCH  26  27
ENDBRANCH  24  26
ENDBRANCH   7  24
BRANCH  11  29
ATOM     29  O   UNL     1      -4.836   0.039 125.848  0.00  0.00    +0.000 OA
ATOM     30  H   UNL     1      -4.815  -0.743 126.436  0.00  0.00    +0.000 HD
ENDBRANCH  11  29
BRANCH   5  31
ATOM     31  C   UNL     1      -9.195   1.659 123.744  0.00  0.00    +0.000 C 
BRANCH  31  32
ATOM     32  C   UNL     1      -8.637   2.862 124.544  0.00  0.00    +0.000 C 
ATOM     33  C   UNL     1      -7.378   3.258 123.856  0.00  0.00    +0.000 C 
ENDBRANCH  31  32
ENDBRANCH   5  31
TORSDOF 6
ENDMDL
MODEL 2
REMARK VINA RESULT:      -7.9      2.413      5.519
REMARK  Name = Budesonide
REMARK  9 active torsions:
REMARK  status: ('A' for Active; 'I' for Inactive)
REMARK    1  A    between atoms: C_6  and  C_7
REMARK    2  A    between atoms: C_7  and  C_8
REMARK    3  A    between atoms: C_8  and  C_9
REMARK    4  A    between atoms: C_11  and  C_12
REMARK    5  A    between atoms: C_12  and  C_14
REMARK    6  A    between atoms: C_14  and  O_15
REMARK    7  A    between atoms: C_16  and  C_17
REMARK    8  A    between atoms: C_19  and  O_20
REMARK    9  A    between atoms: C_33  and  C_34
REMARK                            x       y       z     vdW  Elec       q    Type
REMARK                         _______ _______ _______ _____ _____    ______ ____
ROOT
ATOM      1  C   UNL     1      -8.267  -0.364 124.085  0.00  0.00    +0.000 C 
ATOM      2  C   UNL     1      -7.118  -1.051 123.418  0.00  0.00    +0.000 C 
ATOM      3  C   UNL     1      -6.048  -1.292 124.459  0.00  0.00    +0.000 C 
ATOM      4  O   UNL     1      -6.200  -2.312 125.574  0.00  0.00    +0.000 OA
ATOM      5  C   UNL     1      -5.753  -1.653 126.807  0.00  0.00    +0.000 C 
ATOM      6  O   UNL     1      -5.175  -0.530 126.279  0.00  0.00    +0.000 OA
ATOM      7  C   UNL     1      -6.265  -0.053 125.231  0.00  0.00    +0.000 C 
ATOM      8  C   UNL     1      -8.226  -0.439 125.527  0.00  0.00    +0.000 C 
ATOM      9  C   UNL     1      -9.921   0.219 125.803  0.00  0.00    +0.000 C 
ATOM     10  C   UNL     1      -8.236  -0.822 126.917  0.00  0.00    +0.000 C 
ATOM     11  C   UNL     1      -7.636   0.446 127.620  0.00  0.00    +0.000 C 
ATOM     12  C   UNL     1      -6.903   1.193 126.582  0.00  0.00    +0.000 C 
ATOM     13  C   UNL     1      -7.765   0.951 124.527  0.00  0.00    +0.000 C 
ATOM     14  C   UNL     1      -6.839   2.078 122.989  0.00  0.00    +0.000 C 
ATOM     15  C   UNL     1      -6.059   3.890 123.635  0.00  0.00    +0.000 C 
ATOM     16  C   UNL     1      -5.266   3.854 125.339  0.00  0.00    +0.000 C 
ATOM     17  C   UNL     1      -4.012   4.294 125.492  0.00  0.00    +0.000 C 
ATOM     18  C   UNL     1      -3.462   4.076 126.868  0.00  0.00    +0.000 C 
ATOM     19  O   UNL     1      -3.371   4.806 127.845  0.00  0.00    +0.000 OA
ATOM     20  C   UNL     1      -3.016   2.711 127.106  0.00  0.00    +0.000 C 
ATOM     21  C   UNL     1      -4.321   2.382 127.399  0.00  0.00    +0.000 C 
ATOM     22  C   UNL     1      -5.858   2.896 126.825  0.00  0.00    +0.000 C 
ATOM     23  C   UNL     1      -6.958   3.882 127.464  0.00  0.00    +0.000 C 
ENDROOT
BRANCH   7  24
ATOM     24  C   UNL     1      -6.414   2.002 124.993  0.00  0.00    +0.000 C 
ATOM     25  O   UNL     1      -7.547   2.643 125.849  0.00  0.00    +0.000 OA
BRANCH  24  26
ATOM     26  C   UNL     1      -7.938   2.949 124.369  0.00  0.00    +0.000 C 
BRANCH  26  27
ATOM     27  O   UNL     1      -9.056   3.585 124.761  0.00  0.00    +0.000 OA
ATOM     28  H   UNL     1      -9.362   2.852 125.328  0.00  0.00    +0.000 HD
ENDBRANCH  26  27
ENDBRANCH  24  26
ENDBRANCH   7  24
BRANCH  11  29
ATOM     29  O   UNL     1      -8.684   1.265 128.050  0.00  0.00    +0.000 OA
ATOM     30  H   UNL     1      -9.390   0.624 128.271  0.00  0.00    +0.000 HD
ENDBRANCH  11  29
BRANCH   5  31
ATOM     31  C   UNL     1      -5.235  -2.494 127.908  0.00  0.00    +0.000 C 
BRANCH  31  32
ATOM     32  C   UNL     1      -4.866  -1.514 129.049  0.00  0.00    +0.000 C 
ATOM     33  C   UNL     1      -3.798  -2.190 129.836  0.00  0.00    +0.000 C 
ENDBRANCH  31  32
ENDBRANCH   5  31
TORSDOF 6
ENDMDL
MODEL 3
REMARK VINA RESULT:      -7.8      5.669      8.155
REMARK  Name = Budesonide
REMARK  9 active torsions:
REMARK  status: ('A' for Active; 'I' for Inactive)
REMARK    1  A    between atoms: C_6  and  C_7
REMARK    2  A    between atoms: C_7  and  C_8
REMARK    3  A    between atoms: C_8  and  C_9
REMARK    4  A    between atoms: C_11  and  C_12
REMARK    5  A    between atoms: C_12  and  C_14
REMARK    6  A    between atoms: C_14  and  O_15
REMARK    7  A    between atoms: C_16  and  C_17
REMARK    8  A    between atoms: C_19  and  O_20
REMARK    9  A    between atoms: C_33  and  C_34
REMARK                            x       y       z     vdW  Elec       q    Type
REMARK                         _______ _______ _______ _____ _____    ______ ____
ROOT
ATOM      1  C   UNL     1      -6.154   2.661 131.469  0.00  0.00    +0.000 C 
ATOM      2  C   UNL     1      -5.762   2.660 130.026  0.00  0.00    +0.000 C 
ATOM      3  C   UNL     1      -5.660   4.097 129.566  0.00  0.00    +0.000 C 
ATOM      4  O   UNL     1      -4.549   5.028 130.018  0.00  0.00    +0.000 OA
ATOM      5  C   UNL     1      -5.188   6.301 130.370  0.00  0.00    +0.000 C 
ATOM      6  O   UNL     1      -6.440   6.087 129.860  0.00  0.00    +0.000 OA
ATOM      7  C   UNL     1      -6.769   4.626 130.382  0.00  0.00    +0.000 C 
ATOM      8  C   UNL     1      -5.980   3.943 132.112  0.00  0.00    +0.000 C 
ATOM      9  C   UNL     1      -6.265   3.339 133.826  0.00  0.00    +0.000 C 
ATOM     10  C   UNL     1      -5.499   5.164 132.710  0.00  0.00    +0.000 C 
ATOM     11  C   UNL     1      -6.804   6.030 132.804  0.00  0.00    +0.000 C 
ATOM     12  C   UNL     1      -7.758   5.457 131.838  0.00  0.00    +0.000 C 
ATOM     13  C   UNL     1      -7.506   3.250 131.531  0.00  0.00    +0.000 C 
ATOM     14  C   UNL     1      -8.907   2.323 130.239  0.00  0.00    +0.000 C 
ATOM     15  C   UNL     1     -10.783   3.209 130.268  0.00  0.00    +0.000 C 
ATOM     16  C   UNL     1     -10.777   5.084 130.406  0.00  0.00    +0.000 C 
ATOM     17  C   UNL     1     -11.445   5.814 129.506  0.00  0.00    +0.000 C 
ATOM     18  C   UNL     1     -11.237   7.290 129.654  0.00  0.00    +0.000 C 
ATOM     19  O   UNL     1     -11.895   8.164 130.200  0.00  0.00    +0.000 OA
ATOM     20  C   UNL     1      -9.973   7.757 129.102  0.00  0.00    +0.000 C 
ATOM     21  C   UNL     1      -9.371   7.388 130.285  0.00  0.00    +0.000 C 
ATOM     22  C   UNL     1      -9.612   6.124 131.424  0.00  0.00    +0.000 C 
ATOM     23  C   UNL     1     -10.308   6.116 132.875  0.00  0.00    +0.000 C 
ENDROOT
BRANCH   7  24
ATOM     24  C   UNL     1      -8.766   4.282 130.827  0.00  0.00    +0.000 C 
ATOM     25  O   UNL     1      -9.096   4.424 132.342  0.00  0.00    +0.000 OA
BRANCH  24  26
ATOM     26  C   UNL     1      -9.438   2.942 131.993  0.00  0.00    +0.000 C 
BRANCH  26  27
ATOM     27  O   UNL     1      -9.899   2.718 133.236  0.00  0.00    +0.000 OA
ATOM     28  H   UNL     1     -10.797   2.473 132.938  0.00  0.00    +0.000 HD
ENDBRANCH  26  27
ENDBRANCH  24  26
ENDBRANCH   7  24
BRANCH  11  29
ATOM     29  O   UNL     1      -7.364   5.870 134.075  0.00  0.00    +0.000 OA
ATOM     30  H   UNL     1      -8.326   5.902 133.900  0.00  0.00    +0.000 HD
ENDBRANCH  11  29
BRANCH   5  31
ATOM     31  C   UNL     1      -4.386   7.541 130.283  0.00  0.00    +0.000 C 
BRANCH  31  32
ATOM     32  C   UNL     1      -2.994   7.184 130.862  0.00  0.00    +0.000 C 
ATOM     33  C   UNL     1      -2.924   7.852 132.191  0.00  0.00    +0.000 C 
ENDBRANCH  31  32
ENDBRANCH   5  31
TORSDOF 6
ENDMDL
MODEL 4
REMARK VINA RESULT:      -7.8      5.084      7.632
REMARK  Name = Budesonide
REMARK  9 active torsions:
REMARK  status: ('A' for Active; 'I' for Inactive)
REMARK    1  A    between atoms: C_6  and  C_7
REMARK    2  A    between atoms: C_7  and  C_8
REMARK    3  A    between atoms: C_8  and  C_9
REMARK    4  A    between atoms: C_11  and  C_12
REMARK    5  A    between atoms: C_12  and  C_14
REMARK    6  A    between atoms: C_14  and  O_15
REMARK    7  A    between atoms: C_16  and  C_17
REMARK    8  A    between atoms: C_19  and  O_20
REMARK    9  A    between atoms: C_33  and  C_34
REMARK                            x       y       z     vdW  Elec       q    Type
REMARK                         _______ _______ _______ _____ _____    ______ ____
ROOT
ATOM      1  C   UNL     1      -8.902   3.364 133.711  0.00  0.00    +0.000 C 
ATOM      2  C   UNL     1      -8.651   4.662 134.410  0.00  0.00    +0.000 C 
ATOM      3  C   UNL     1      -8.442   5.728 133.358  0.00  0.00    +0.000 C 
ATOM      4  O   UNL     1      -9.566   6.250 132.480  0.00  0.00    +0.000 OA
ATOM      5  C   UNL     1      -9.039   6.298 131.111  0.00  0.00    +0.000 C 
ATOM      6  O   UNL     1      -7.709   6.095 131.362  0.00  0.00    +0.000 OA
ATOM      7  C   UNL     1      -7.741   4.877 132.376  0.00  0.00    +0.000 C 
ATOM      8  C   UNL     1      -9.232   3.515 132.313  0.00  0.00    +0.000 C 
ATOM      9  C   UNL     1      -9.740   1.768 132.044  0.00  0.00    +0.000 C 
ATOM     10  C   UNL     1      -9.827   3.801 131.031  0.00  0.00    +0.000 C 
ATOM     11  C   UNL     1      -8.620   3.596 130.048  0.00  0.00    +0.000 C 
ATOM     12  C   UNL     1      -7.395   3.709 130.859  0.00  0.00    +0.000 C 
ATOM     13  C   UNL     1      -7.661   3.038 132.982  0.00  0.00    +0.000 C 
ATOM     14  C   UNL     1      -5.922   3.065 134.192  0.00  0.00    +0.000 C 
ATOM     15  C   UNL     1      -4.169   2.690 133.145  0.00  0.00    +0.000 C 
ATOM     16  C   UNL     1      -4.091   3.446 131.426  0.00  0.00    +0.000 C 
ATOM     17  C   UNL     1      -3.055   4.223 131.093  0.00  0.00    +0.000 C 
ATOM     18  C   UNL     1      -3.193   4.869 129.749  0.00  0.00    +0.000 C 
ATOM     19  O   UNL     1      -2.762   4.573 128.644  0.00  0.00    +0.000 OA
ATOM     20  C   UNL     1      -4.069   6.032 129.751  0.00  0.00    +0.000 C 
ATOM     21  C   UNL     1      -5.138   5.172 129.629  0.00  0.00    +0.000 C 
ATOM     22  C   UNL     1      -5.494   3.592 130.206  0.00  0.00    +0.000 C 
ATOM     23  C   UNL     1      -5.474   2.160 129.472  0.00  0.00    +0.000 C 
ENDROOT
BRANCH   7  24
ATOM     24  C   UNL     1      -6.148   3.558 132.216  0.00  0.00    +0.000 C 
ATOM     25  O   UNL     1      -6.478   2.289 131.376  0.00  0.00    +0.000 OA
BRANCH  24  26
ATOM     26  C   UNL     1      -6.128   1.751 132.798  0.00  0.00    +0.000 C 
BRANCH  26  27
ATOM     27  O   UNL     1      -6.287   0.479 132.393  0.00  0.00    +0.000 OA
ATOM     28  H   UNL     1      -5.525   0.143 132.904  0.00  0.00    +0.000 HD
ENDBRANCH  26  27
ENDBRANCH  24  26
ENDBRANCH   7  24
BRANCH  11  29
ATOM     29  O   UNL     1      -8.660   2.291 129.547  0.00  0.00    +0.000 OA
ATOM     30  H   UNL     1      -7.756   2.161 129.195  0.00  0.00    +0.000 HD
ENDBRANCH  11  29
BRANCH   5  31
ATOM     31  C   UNL     1      -9.635   7.263 130.160  0.00  0.00    +0.000 C 
BRANCH  31  32
ATOM     32  C   UNL     1     -11.167   7.174 130.374  0.00  0.00    +0.000 C 
ATOM     33  C   UNL     1     -11.762   8.202 129.477  0.00  0.00    +0.000 C 
ENDBRANCH  31  32
ENDBRANCH   5  31
TORSDOF 6
ENDMDL
MODEL 5
REMARK VINA RESULT:      -7.7      5.612      8.781
REMARK  Name = Budesonide
REMARK  9 active torsions:
REMARK  status: ('A' for Active; 'I' for Inactive)
REMARK    1  A    between atoms: C_6  and  C_7
REMARK    2  A    between atoms: C_7  and  C_8
REMARK    3  A    between atoms: C_8  and  C_9
REMARK    4  A    between atoms: C_11  and  C_12
REMARK    5  A    between atoms: C_12  and  C_14
REMARK    6  A    between atoms: C_14  and  O_15
REMARK    7  A    between atoms: C_16  and  C_17
REMARK    8  A    between atoms: C_19  and  O_20
REMARK    9  A    between atoms: C_33  and  C_34
REMARK                            x       y       z     vdW  Elec       q    Type
REMARK                         _______ _______ _______ _____ _____    ______ ____
ROOT
ATOM      1  C   UNL     1      -7.171   3.018 129.940  0.00  0.00    +0.000 C 
ATOM      2  C   UNL     1      -6.644   1.959 130.855  0.00  0.00    +0.000 C 
ATOM      3  C   UNL     1      -6.461   2.571 132.225  0.00  0.00    +0.000 C 
ATOM      4  O   UNL     1      -7.629   2.963 133.114  0.00  0.00    +0.000 OA
ATOM      5  C   UNL     1      -7.320   4.295 133.647  0.00  0.00    +0.000 C 
ATOM      6  O   UNL     1      -6.006   4.399 133.278  0.00  0.00    +0.000 OA
ATOM      7  C   UNL     1      -6.041   3.910 131.770  0.00  0.00    +0.000 C 
ATOM      8  C   UNL     1      -7.692   4.173 130.634  0.00  0.00    +0.000 C 
ATOM      9  C   UNL     1      -8.462   4.955 129.159  0.00  0.00    +0.000 C 
ATOM     10  C   UNL     1      -8.435   5.122 131.425  0.00  0.00    +0.000 C 
ATOM     11  C   UNL     1      -7.435   6.326 131.533  0.00  0.00    +0.000 C 
ATOM     12  C   UNL     1      -6.094   5.785 131.249  0.00  0.00    +0.000 C 
ATOM     13  C   UNL     1      -6.113   4.042 129.838  0.00  0.00    +0.000 C 
ATOM     14  C   UNL     1      -4.218   3.268 129.288  0.00  0.00    +0.000 C 
ATOM     15  C   UNL     1      -2.716   4.698 129.229  0.00  0.00    +0.000 C 
ATOM     16  C   UNL     1      -2.807   6.005 130.577  0.00  0.00    +0.000 C 
ATOM     17  C   UNL     1      -1.741   6.228 131.353  0.00  0.00    +0.000 C 
ATOM     18  C   UNL     1      -2.000   7.191 132.470  0.00  0.00    +0.000 C 
ATOM     19  O   UNL     1      -1.789   8.390 132.591  0.00  0.00    +0.000 OA
ATOM     20  C   UNL     1      -2.703   6.597 133.598  0.00  0.00    +0.000 C 
ATOM     21  C   UNL     1      -3.882   6.812 132.921  0.00  0.00    +0.000 C 
ATOM     22  C   UNL     1      -4.351   6.791 131.267  0.00  0.00    +0.000 C 
ATOM     23  C   UNL     1      -4.636   7.984 130.225  0.00  0.00    +0.000 C 
ENDROOT
BRANCH   7  24
ATOM     24  C   UNL     1      -4.682   4.845 130.512  0.00  0.00    +0.000 C 
ATOM     25  O   UNL     1      -5.320   5.959 129.630  0.00  0.00    +0.000 OA
BRANCH  24  26
ATOM     26  C   UNL     1      -4.771   4.908 128.616  0.00  0.00    +0.000 C 
BRANCH  26  27
ATOM     27  O   UNL     1      -4.995   5.718 127.566  0.00  0.00    +0.000 OA
ATOM     28  H   UNL     1      -5.812   6.099 127.941  0.00  0.00    +0.000 HD
ENDBRANCH  26  27
ENDBRANCH  24  26
ENDBRANCH   7  24
BRANCH  11  29
ATOM     29  O   UNL     1      -7.725   7.249 130.523  0.00  0.00    +0.000 OA
ATOM     30  H   UNL     1      -8.506   7.723 130.874  0.00  0.00    +0.000 HD
ENDBRANCH  11  29
BRANCH   5  31
ATOM     31  C   UNL     1      -7.923   4.695 134.937  0.00  0.00    +0.000 C 
BRANCH  31  32
ATOM     32  C   UNL     1      -6.963   5.751 135.540  0.00  0.00    +0.000 C 
ATOM     33  C   UNL     1      -7.688   6.343 136.699  0.00  0.00    +0.000 C 
ENDBRANCH  31  32
ENDBRANCH   5  31
TORSDOF 6
ENDMDL
MODEL 6
REMARK VINA RESULT:      -7.7      5.218      7.635
REMARK  Name = Budesonide
REMARK  9 active torsions:
REMARK  status: ('A' for Active; 'I' for Inactive)
REMARK    1  A    between atoms: C_6  and  C_7
REMARK    2  A    between atoms: C_7  and  C_8
REMARK    3  A    between atoms: C_8  and  C_9
REMARK    4  A    between atoms: C_11  and  C_12
REMARK    5  A    between atoms: C_12  and  C_14
REMARK    6  A    between atoms: C_14  and  O_15
REMARK    7  A    between atoms: C_16  and  C_17
REMARK    8  A    between atoms: C_19  and  O_20
REMARK    9  A    between atoms: C_33  and  C_34
REMARK                            x       y       z     vdW  Elec       q    Type
REMARK                         _______ _______ _______ _____ _____    ______ ____
ROOT
ATOM      1  C   UNL     1      -4.178   1.585 130.876  0.00  0.00    +0.000 C 
ATOM      2  C   UNL     1      -4.113   2.104 129.475  0.00  0.00    +0.000 C 
ATOM      3  C   UNL     1      -4.172   3.614 129.531  0.00  0.00    +0.000 C 
ATOM      4  O   UNL     1      -3.026   4.463 130.054  0.00  0.00    +0.000 OA
ATOM      5  C   UNL     1      -3.622   5.468 130.943  0.00  0.00    +0.000 C 
ATOM      6  O   UNL     1      -4.946   5.294 130.642  0.00  0.00    +0.000 OA
ATOM      7  C   UNL     1      -5.094   3.716 130.679  0.00  0.00    +0.000 C 
ATOM      8  C   UNL     1      -3.917   2.593 131.877  0.00  0.00    +0.000 C 
ATOM      9  C   UNL     1      -3.794   1.429 133.295  0.00  0.00    +0.000 C 
ATOM     10  C   UNL     1      -3.364   3.594 132.755  0.00  0.00    +0.000 C 
ATOM     11  C   UNL     1      -4.650   4.227 133.395  0.00  0.00    +0.000 C 
ATOM     12  C   UNL     1      -5.770   3.902 132.494  0.00  0.00    +0.000 C 
ATOM     13  C   UNL     1      -5.504   1.964 131.398  0.00  0.00    +0.000 C 
ATOM     14  C   UNL     1      -7.118   1.364 130.162  0.00  0.00    +0.000 C 
ATOM     15  C   UNL     1      -8.976   1.974 130.858  0.00  0.00    +0.000 C 
ATOM     16  C   UNL     1      -9.013   3.686 131.634  0.00  0.00    +0.000 C 
ATOM     17  C   UNL     1      -9.891   4.592 131.190  0.00  0.00    +0.000 C 
ATOM     18  C   UNL     1      -9.714   5.950 131.798  0.00  0.00    +0.000 C 
ATOM     19  O   UNL     1     -10.269   6.515 132.730  0.00  0.00    +0.000 OA
ATOM     20  C   UNL     1      -8.622   6.712 131.210  0.00  0.00    +0.000 C 
ATOM     21  C   UNL     1      -7.760   6.044 132.050  0.00  0.00    +0.000 C 
ATOM     22  C   UNL     1      -7.694   4.456 132.704  0.00  0.00    +0.000 C 
ATOM     23  C   UNL     1      -8.053   3.890 134.167  0.00  0.00    +0.000 C 
ENDROOT
BRANCH   7  24
ATOM     24  C   UNL     1      -6.928   3.021 131.354  0.00  0.00    +0.000 C 
ATOM     25  O   UNL     1      -6.921   2.616 132.857  0.00  0.00    +0.000 OA
BRANCH  24  26
ATOM     26  C   UNL     1      -7.274   1.305 132.089  0.00  0.00    +0.000 C 
BRANCH  26  27
ATOM     27  O   UNL     1      -7.449   0.633 133.240  0.00  0.00    +0.000 OA
ATOM     28  H   UNL     1      -7.139   1.369 133.803  0.00  0.00    +0.000 HD
ENDBRANCH  26  27
ENDBRANCH  24  26
ENDBRANCH   7  24
BRANCH  11  29
ATOM     29  O   UNL     1      -4.909   3.594 134.614  0.00  0.00    +0.000 OA
ATOM     30  H   UNL     1      -5.579   2.921 134.377  0.00  0.00    +0.000 HD
ENDBRANCH  11  29
BRANCH   5  31
ATOM     31  C   UNL     1      -2.908   6.749 131.137  0.00  0.00    +0.000 C 
BRANCH  31  32
ATOM     32  C   UNL     1      -1.404   6.424 130.962  0.00  0.00    +0.000 C 
ATOM     33  C   UNL     1      -0.842   6.349 132.340  0.00  0.00    +0.000 C 
ENDBRANCH  31  32
ENDBRANCH   5  31
TORSDOF 6
ENDMDL
MODEL 7
REMARK VINA RESULT:      -7.6      2.101      6.420
REMARK  Name = Budesonide
REMARK  9 active torsions:
REMARK  status: ('A' for Active; 'I' for Inactive)
REMARK    1  A    between atoms: C_6  and  C_7
REMARK    2  A    between atoms: C_7  and  C_8
REMARK    3  A    between atoms: C_8  and  C_9
REMARK    4  A    between atoms: C_11  and  C_12
REMARK    5  A    between atoms: C_12  and  C_14
REMARK    6  A    between atoms: C_14  and  O_15
REMARK    7  A    between atoms: C_16  and  C_17
REMARK    8  A    between atoms: C_19  and  O_20
REMARK    9  A    between atoms: C_33  and  C_34
REMARK                            x       y       z     vdW  Elec       q    Type
REMARK                         _______ _______ _______ _____ _____    ______ ____
ROOT
ATOM      1  C   UNL     1      -6.997   1.838 130.946  0.00  0.00    +0.000 C 
ATOM      2  C   UNL     1      -8.341   1.598 131.556  0.00  0.00    +0.000 C 
ATOM      3  C   UNL     1      -8.519   0.107 131.729  0.00  0.00    +0.000 C 
ATOM      4  O   UNL     1      -7.746  -0.700 132.759  0.00  0.00    +0.000 OA
ATOM      5  C   UNL     1      -7.275  -1.909 132.075  0.00  0.00    +0.000 C 
ATOM      6  O   UNL     1      -7.999  -1.823 130.916  0.00  0.00    +0.000 OA
ATOM      7  C   UNL     1      -7.799  -0.304 130.508  0.00  0.00    +0.000 C 
ATOM      8  C   UNL     1      -6.118   0.694 131.020  0.00  0.00    +0.000 C 
ATOM      9  C   UNL     1      -4.602   1.579 130.474  0.00  0.00    +0.000 C 
ATOM     10  C   UNL     1      -5.248  -0.390 131.406  0.00  0.00    +0.000 C 
ATOM     11  C   UNL     1      -5.201  -1.263 130.103  0.00  0.00    +0.000 C 
ATOM     12  C   UNL     1      -6.386  -0.896 129.308  0.00  0.00    +0.000 C 
ATOM     13  C   UNL     1      -7.037   1.230 129.602  0.00  0.00    +0.000 C 
ATOM     14  C   UNL     1      -8.670   1.877 128.415  0.00  0.00    +0.000 C 
ATOM     15  C   UNL     1      -8.769   0.956 126.558  0.00  0.00    +0.000 C 
ATOM     16  C   UNL     1      -8.302  -0.865 126.545  0.00  0.00    +0.000 C 
ATOM     17  C   UNL     1      -9.149  -1.760 126.026  0.00  0.00    +0.000 C 
ATOM     18  C   UNL     1      -8.713  -3.181 126.210  0.00  0.00    +0.000 C 
ATOM     19  O   UNL     1      -8.126  -3.965 125.477  0.00  0.00    +0.000 OA
ATOM     20  C   UNL     1      -8.975  -3.701 127.544  0.00  0.00    +0.000 C 
ATOM     21  C   UNL     1      -7.799  -3.114 127.957  0.00  0.00    +0.000 C 
ATOM     22  C   UNL     1      -6.951  -1.678 127.542  0.00  0.00    +0.000 C 
ATOM     23  C   UNL     1      -5.647  -1.436 126.630  0.00  0.00    +0.000 C 
ENDROOT
BRANCH   7  24
ATOM     24  C   UNL     1      -7.730   0.056 128.467  0.00  0.00    +0.000 C 
ATOM     25  O   UNL     1      -6.281   0.174 127.908  0.00  0.00    +0.000 OA
BRANCH  24  26
ATOM     26  C   UNL     1      -6.938   1.561 127.621  0.00  0.00    +0.000 C 
BRANCH  26  27
ATOM     27  O   UNL     1      -5.829   1.995 126.995  0.00  0.00    +0.000 OA
ATOM     28  H   UNL     1      -6.136   2.921 126.938  0.00  0.00    +0.000 HD
ENDBRANCH  26  27
ENDBRANCH  24  26
ENDBRANCH   7  24
BRANCH  11  29
ATOM     29  O   UNL     1      -4.077  -0.899 129.354  0.00  0.00    +0.000 OA
ATOM     30  H   UNL     1      -4.200  -1.392 128.517  0.00  0.00    +0.000 HD
ENDBRANCH  11  29
BRANCH   5  31
ATOM     31  C   UNL     1      -7.019  -3.122 132.883  0.00  0.00    +0.000 C 
BRANCH  31  32
ATOM     32  C   UNL     1      -6.198  -4.069 131.972  0.00  0.00    +0.000 C 
ATOM     33  C   UNL     1      -5.552  -5.051 132.887  0.00  0.00    +0.000 C 
ENDBRANCH  31  32
ENDBRANCH   5  31
TORSDOF 6
ENDMDL
MODEL 8
REMARK VINA RESULT:      -7.6      1.860      2.905
REMARK  Name = Budesonide
REMARK  9 active torsions:
REMARK  status: ('A' for Active; 'I' for Inactive)
REMARK    1  A    between atoms: C_6  and  C_7
REMARK    2  A    between atoms: C_7  and  C_8
REMARK    3  A    between atoms: C_8  and  C_9
REMARK    4  A    between atoms: C_11  and  C_12
REMARK    5  A    between atoms: C_12  and  C_14
REMARK    6  A    between atoms: C_14  and  O_15
REMARK    7  A    between atoms: C_16  and  C_17
REMARK    8  A    between atoms: C_19  and  O_20
REMARK    9  A    between atoms: C_33  and  C_34
REMARK                            x       y       z     vdW  Elec       q    Type
REMARK                         _______ _______ _______ _____ _____    ______ ____
ROOT
ATOM      1  C   UNL     1      -8.766  -0.454 123.849  0.00  0.00    +0.000 C 
ATOM      2  C   UNL     1     -10.064   0.117 124.324  0.00  0.00    +0.000 C 
ATOM      3  C   UNL     1      -9.776   1.021 125.502  0.00  0.00    +0.000 C 
ATOM      4  O   UNL     1      -9.072   2.359 125.360  0.00  0.00    +0.000 OA
ATOM      5  C   UNL     1      -8.068   2.418 126.429  0.00  0.00    +0.000 C 
ATOM      6  O   UNL     1      -8.456   1.341 127.179  0.00  0.00    +0.000 OA
ATOM      7  C   UNL     1      -8.673   0.224 126.074  0.00  0.00    +0.000 C 
ATOM      8  C   UNL     1      -7.608   0.244 124.357  0.00  0.00    +0.000 C 
ATOM      9  C   UNL     1      -6.384  -0.594 123.271  0.00  0.00    +0.000 C 
ATOM     10  C   UNL     1      -6.559   1.179 124.682  0.00  0.00    +0.000 C 
ATOM     11  C   UNL     1      -5.892   0.512 125.937  0.00  0.00    +0.000 C 
ATOM     12  C   UNL     1      -6.886  -0.423 126.493  0.00  0.00    +0.000 C 
ATOM     13  C   UNL     1      -8.256  -1.296 124.948  0.00  0.00    +0.000 C 
ATOM     14  C   UNL     1      -9.649  -2.735 125.645  0.00  0.00    +0.000 C 
ATOM     15  C   UNL     1      -8.957  -3.860 127.246  0.00  0.00    +0.000 C 
ATOM     16  C   UNL     1      -7.927  -2.911 128.500  0.00  0.00    +0.000 C 
ATOM     17  C   UNL     1      -8.267  -2.945 129.793  0.00  0.00    +0.000 C 
ATOM     18  C   UNL     1      -7.447  -2.034 130.655  0.00  0.00    +0.000 C 
ATOM     19  O   UNL     1      -6.467  -2.228 131.360  0.00  0.00    +0.000 OA
ATOM     20  C   UNL     1      -7.855  -0.639 130.579  0.00  0.00    +0.000 C 
ATOM     21  C   UNL     1      -7.088  -0.522 129.442  0.00  0.00    +0.000 C 
ATOM     22  C   UNL     1      -6.687  -1.567 128.138  0.00  0.00    +0.000 C 
ATOM     23  C   UNL     1      -5.349  -2.399 127.812  0.00  0.00    +0.000 C 
ENDROOT
BRANCH   7  24
ATOM     24  C   UNL     1      -8.205  -1.706 126.674  0.00  0.00    +0.000 C 
ATOM     25  O   UNL     1      -6.800  -2.178 126.198  0.00  0.00    +0.000 OA
BRANCH  24  26
ATOM     26  C   UNL     1      -7.804  -3.167 125.529  0.00  0.00    +0.000 C 
BRANCH  26  27
ATOM     27  O   UNL     1      -6.835  -3.728 124.784  0.00  0.00    +0.000 OA
ATOM     28  H   UNL     1      -6.617  -2.900 124.314  0.00  0.00    +0.000 HD
ENDBRANCH  26  27
ENDBRANCH  24  26
ENDBRANCH   7  24
BRANCH  11  29
ATOM     29  O   UNL     1      -4.800  -0.254 125.517  0.00  0.00    +0.000 OA
ATOM     30  H   UNL     1      -4.536  -0.728 126.332  0.00  0.00    +0.000 HD
ENDBRANCH  11  29
BRANCH   5  31
ATOM     31  C   UNL     1      -7.641   3.747 126.922  0.00  0.00    +0.000 C 
BRANCH  31  32
ATOM     32  C   UNL     1      -7.838   4.720 125.733  0.00  0.00    +0.000 C 
ATOM     33  C   UNL     1      -6.472   5.008 125.214  0.00  0.00    +0.000 C 
ENDBRANCH  31  32
ENDBRANCH   5  31
TORSDOF 6
ENDMDL
MODEL 9
REMARK VINA RESULT:      -7.5      4.312      8.260
REMARK  Name = Budesonide
REMARK  9 active torsions:
REMARK  status: ('A' for Active; 'I' for Inactive)
REMARK    1  A    between atoms: C_6  and  C_7
REMARK    2  A    between atoms: C_7  and  C_8
REMARK    3  A    between atoms: C_8  and  C_9
REMARK    4  A    between atoms: C_11  and  C_12
REMARK    5  A    between atoms: C_12  and  C_14
REMARK    6  A    between atoms: C_14  and  O_15
REMARK    7  A    between atoms: C_16  and  C_17
REMARK    8  A    between atoms: C_19  and  O_20
REMARK    9  A    between atoms: C_33  and  C_34
REMARK                            x       y       z     vdW  Elec       q    Type
REMARK                         _______ _______ _______ _____ _____    ______ ____
ROOT
ATOM      1  C   UNL     1      -8.408   5.752 133.196  0.00  0.00    +0.000 C 
ATOM      2  C   UNL     1      -7.961   5.303 134.550  0.00  0.00    +0.000 C 
ATOM      3  C   UNL     1      -6.516   4.868 134.447  0.00  0.00    +0.000 C 
ATOM      4  O   UNL     1      -5.375   5.847 134.235  0.00  0.00    +0.000 OA
ATOM      5  C   UNL     1      -4.515   5.267 133.197  0.00  0.00    +0.000 C 
ATOM      6  O   UNL     1      -5.039   4.004 133.132  0.00  0.00    +0.000 OA
ATOM      7  C   UNL     1      -6.599   4.291 133.092  0.00  0.00    +0.000 C 
ATOM      8  C   UNL     1      -7.317   5.996 132.280  0.00  0.00    +0.000 C 
ATOM      9  C   UNL     1      -8.336   6.793 130.973  0.00  0.00    +0.000 C 
ATOM     10  C   UNL     1      -6.164   6.480 131.562  0.00  0.00    +0.000 C 
ATOM     11  C   UNL     1      -5.853   5.291 130.586  0.00  0.00    +0.000 C 
ATOM     12  C   UNL     1      -6.501   4.098 131.158  0.00  0.00    +0.000 C 
ATOM     13  C   UNL     1      -8.358   4.561 132.326  0.00  0.00    +0.000 C 
ATOM     14  C   UNL     1      -9.416   2.893 133.094  0.00  0.00    +0.000 C 
ATOM     15  C   UNL     1      -9.273   1.195 131.909  0.00  0.00    +0.000 C 
ATOM     16  C   UNL     1      -7.591   0.917 131.115  0.00  0.00    +0.000 C 
ATOM     17  C   UNL     1      -6.966  -0.253 131.286  0.00  0.00    +0.000 C 
ATOM     18  C   UNL     1      -5.580  -0.283 130.719  0.00  0.00    +0.000 C 
ATOM     19  O   UNL     1      -5.132  -0.699 129.660  0.00  0.00    +0.000 OA
ATOM     20  C   UNL     1      -4.592   0.373 131.564  0.00  0.00    +0.000 C 
ATOM     21  C   UNL     1      -4.972   1.571 131.002  0.00  0.00    +0.000 C 
ATOM     22  C   UNL     1      -6.454   2.224 130.425  0.00  0.00    +0.000 C 
ATOM     23  C   UNL     1      -7.018   2.428 128.931  0.00  0.00    +0.000 C 
ENDROOT
BRANCH   7  24
ATOM     24  C   UNL     1      -7.708   2.951 131.962  0.00  0.00    +0.000 C 
ATOM     25  O   UNL     1      -8.017   3.461 130.524  0.00  0.00    +0.000 OA
BRANCH  24  26
ATOM     26  C   UNL     1      -9.414   3.278 131.194  0.00  0.00    +0.000 C 
BRANCH  26  27
ATOM     27  O   UNL     1     -10.048   3.578 130.047  0.00  0.00    +0.000 OA
ATOM     28  H   UNL     1     -10.031   4.542 130.203  0.00  0.00    +0.000 HD
ENDBRANCH  26  27
ENDBRANCH  24  26
ENDBRANCH   7  24
BRANCH  11  29
ATOM     29  O   UNL     1      -6.469   5.541 129.355  0.00  0.00    +0.000 OA
ATOM     30  H   UNL     1      -6.424   4.673 128.905  0.00  0.00    +0.000 HD
ENDBRANCH  11  29
BRANCH   5  31
ATOM     31  C   UNL     1      -3.084   5.645 133.174  0.00  0.00    +0.000 C 
BRANCH  31  32
ATOM     32  C   UNL     1      -2.471   4.898 131.963  0.00  0.00    +0.000 C 
ATOM     33  C   UNL     1      -2.197   5.943 130.938  0.00  0.00    +0.000 C 
ENDBRANCH  31  32
ENDBRANCH   5  31
TORSDOF 6
ENDMDL
