MODEL 1
REMARK VINA RESULT:      -6.0      0.000      0.000
REMARK  Name = Bufexamac
REMARK  8 active torsions:
REMARK  status: ('A' for Active; 'I' for Inactive)
REMARK    1  A    between atoms: C_1  and  C_2
REMARK    2  A    between atoms: C_2  and  C_3
REMARK    3  A    between atoms: C_3  and  C_4
REMARK    4  A    between atoms: C_4  and  O_5
REMARK    5  A    between atoms: O_5  and  C_6
REMARK    6  A    between atoms: C_9  and  C_10
REMARK    7  A    between atoms: C_10  and  C_11
REMARK    8  A    between atoms: N_13  and  O_14
REMARK                            x       y       z     vdW  Elec       q    Type
REMARK                         _______ _______ _______ _____ _____    ______ ____
ROOT
ATOM      1  C   UNL     1      -8.993   5.876 132.643  0.00  0.00    +0.000 A 
ATOM      2  C   UNL     1     -10.353   5.997 132.353  0.00  0.00    +0.000 A 
ATOM      3  C   UNL     1     -10.786   6.633 131.171  0.00  0.00    +0.000 A 
ATOM      4  C   UNL     1      -9.856   7.205 130.287  0.00  0.00    +0.000 A 
ATOM      5  C   UNL     1      -8.504   7.020 130.592  0.00  0.00    +0.000 A 
ATOM      6  C   UNL     1      -8.073   6.381 131.746  0.00  0.00    +0.000 A 
ENDROOT
BRANCH   1   7
ATOM      7  O   UNL     1      -8.639   5.175 133.759  0.00  0.00    +0.000 OA
BRANCH   7   8
ATOM      8  C   UNL     1      -9.333   3.934 133.932  0.00  0.00    +0.000 C 
BRANCH   8   9
ATOM      9  C   UNL     1      -8.505   2.838 133.278  0.00  0.00    +0.000 C 
BRANCH   9  11
ATOM     10  C   UNL     1      -9.597   2.657 131.032  0.00  0.00    +0.000 C 
ATOM     11  C   UNL     1      -9.365   1.971 132.366  0.00  0.00    +0.000 C 
ENDBRANCH   9  11
ENDBRANCH   8   9
ENDBRANCH   7   8
ENDBRANCH   1   7
BRANCH   4  12
ATOM     12  C   UNL     1     -10.310   8.021 129.080  0.00  0.00    +0.000 C 
BRANCH  12  13
ATOM     13  C   UNL     1     -10.635   7.247 127.792  0.00  0.00    +0.000 C 
ATOM     14  O   UNL     1      -9.860   6.550 127.129  0.00  0.00    +0.000 OA
ATOM     15  N   UNL     1     -11.919   7.333 127.325  0.00  0.00    +0.000 N 
ATOM     16  H   UNL     1     -12.678   7.897 127.684  0.00  0.00    +0.000 HD
BRANCH  15  17
ATOM     17  O   UNL     1     -12.147   6.597 126.131  0.00  0.00    +0.000 OA
ATOM     18  H   UNL     1     -12.136   7.313 125.449  0.00  0.00    +0.000 HD
ENDBRANCH  15  17
ENDBRANCH  12  13
ENDBRANCH   4  12
TORSDOF 7
ENDMDL
MODEL 2
REMARK VINA RESULT:      -5.8      1.840      2.414
REMARK  Name = Bufexamac
REMARK  8 active torsions:
REMARK  status: ('A' for Active; 'I' for Inactive)
REMARK    1  A    between atoms: C_1  and  C_2
REMARK    2  A    between atoms: C_2  and  C_3
REMARK    3  A    between atoms: C_3  and  C_4
REMARK    4  A    between atoms: C_4  and  O_5
REMARK    5  A    between atoms: O_5  and  C_6
REMARK    6  A    between atoms: C_9  and  C_10
REMARK    7  A    between atoms: C_10  and  C_11
REMARK    8  A    between atoms: N_13  and  O_14
REMARK                            x       y       z     vdW  Elec       q    Type
REMARK                         _______ _______ _______ _____ _____    ______ ____
ROOT
ATOM      1  C   UNL     1      -9.704   6.367 132.186  0.00  0.00    +0.000 A 
ATOM      2  C   UNL     1      -8.906   6.760 131.110  0.00  0.00    +0.000 A 
ATOM      3  C   UNL     1      -9.485   7.142 129.883  0.00  0.00    +0.000 A 
ATOM      4  C   UNL     1     -10.877   7.084 129.702  0.00  0.00    +0.000 A 
ATOM      5  C   UNL     1     -11.641   6.731 130.819  0.00  0.00    +0.000 A 
ATOM      6  C   UNL     1     -11.076   6.369 132.033  0.00  0.00    +0.000 A 
ENDROOT
BRANCH   1   7
ATOM      7  O   UNL     1      -9.085   6.092 133.371  0.00  0.00    +0.000 OA
BRANCH   7   8
ATOM      8  C   UNL     1      -8.296   4.896 133.372  0.00  0.00    +0.000 C 
BRANCH   8   9
ATOM      9  C   UNL     1      -9.170   3.757 133.877  0.00  0.00    +0.000 C 
BRANCH   9  11
ATOM     10  C   UNL     1      -9.820   2.707 131.699  0.00  0.00    +0.000 C 
ATOM     11  C   UNL     1      -9.037   2.527 132.987  0.00  0.00    +0.000 C 
ENDBRANCH   9  11
ENDBRANCH   8   9
ENDBRANCH   7   8
ENDBRANCH   1   7
BRANCH   4  12
ATOM     12  C   UNL     1     -11.510   7.354 128.340  0.00  0.00    +0.000 C 
BRANCH  12  13
ATOM     13  C   UNL     1     -12.730   8.289 128.306  0.00  0.00    +0.000 C 
ATOM     14  O   UNL     1     -13.881   7.996 127.966  0.00  0.00    +0.000 OA
ATOM     15  N   UNL     1     -12.527   9.586 128.695  0.00  0.00    +0.000 N 
ATOM     16  H   UNL     1     -11.655  10.034 128.944  0.00  0.00    +0.000 HD
BRANCH  15  17
ATOM     17  O   UNL     1     -13.695  10.394 128.635  0.00  0.00    +0.000 OA
ATOM     18  H   UNL     1     -14.307   9.907 129.241  0.00  0.00    +0.000 HD
ENDBRANCH  15  17
ENDBRANCH  12  13
ENDBRANCH   4  12
TORSDOF 7
ENDMDL
MODEL 3
REMARK VINA RESULT:      -5.7      2.552      5.852
REMARK  Name = Bufexamac
REMARK  8 active torsions:
REMARK  status: ('A' for Active; 'I' for Inactive)
REMARK    1  A    between atoms: C_1  and  C_2
REMARK    2  A    between atoms: C_2  and  C_3
REMARK    3  A    between atoms: C_3  and  C_4
REMARK    4  A    between atoms: C_4  and  O_5
REMARK    5  A    between atoms: O_5  and  C_6
REMARK    6  A    between atoms: C_9  and  C_10
REMARK    7  A    between atoms: C_10  and  C_11
REMARK    8  A    between atoms: N_13  and  O_14
REMARK                            x       y       z     vdW  Elec       q    Type
REMARK                         _______ _______ _______ _____ _____    ______ ____
ROOT
ATOM      1  C   UNL     1      -9.509   7.207 130.218  0.00  0.00    +0.000 A 
ATOM      2  C   UNL     1     -10.676   6.757 130.838  0.00  0.00    +0.000 A 
ATOM      3  C   UNL     1     -10.616   5.903 131.958  0.00  0.00    +0.000 A 
ATOM      4  C   UNL     1      -9.379   5.445 132.441  0.00  0.00    +0.000 A 
ATOM      5  C   UNL     1      -8.235   5.958 131.821  0.00  0.00    +0.000 A 
ATOM      6  C   UNL     1      -8.289   6.810 130.728  0.00  0.00    +0.000 A 
ENDROOT
BRANCH   1   7
ATOM      7  O   UNL     1      -9.635   8.099 129.192  0.00  0.00    +0.000 OA
BRANCH   7   8
ATOM      8  C   UNL     1     -10.952   8.192 128.637  0.00  0.00    +0.000 C 
BRANCH   8   9
ATOM      9  C   UNL     1     -10.873   7.793 127.171  0.00  0.00    +0.000 C 
BRANCH   9  11
ATOM     10  C   UNL     1     -13.176   7.075 127.845  0.00  0.00    +0.000 C 
ATOM     11  C   UNL     1     -12.173   7.148 126.707  0.00  0.00    +0.000 C 
ENDBRANCH   9  11
ENDBRANCH   8   9
ENDBRANCH   7   8
ENDBRANCH   1   7
BRANCH   4  12
ATOM     12  C   UNL     1      -9.300   4.409 133.558  0.00  0.00    +0.000 C 
BRANCH  12  13
ATOM     13  C   UNL     1      -9.156   2.936 133.140  0.00  0.00    +0.000 C 
ATOM     14  O   UNL     1      -8.224   2.174 133.416  0.00  0.00    +0.000 OA
ATOM     15  N   UNL     1     -10.165   2.406 132.383  0.00  0.00    +0.000 N 
ATOM     16  H   UNL     1     -10.975   2.878 132.002  0.00  0.00    +0.000 HD
BRANCH  15  17
ATOM     17  O   UNL     1      -9.965   1.044 132.030  0.00  0.00    +0.000 OA
ATOM     18  H   UNL     1      -8.983   1.009 131.917  0.00  0.00    +0.000 HD
ENDBRANCH  15  17
ENDBRANCH  12  13
ENDBRANCH   4  12
TORSDOF 7
ENDMDL
MODEL 4
REMARK VINA RESULT:      -5.5      3.472      5.387
REMARK  Name = Bufexamac
REMARK  8 active torsions:
REMARK  status: ('A' for Active; 'I' for Inactive)
REMARK    1  A    between atoms: C_1  and  C_2
REMARK    2  A    between atoms: C_2  and  C_3
REMARK    3  A    between atoms: C_3  and  C_4
REMARK    4  A    between atoms: C_4  and  O_5
REMARK    5  A    between atoms: O_5  and  C_6
REMARK    6  A    between atoms: C_9  and  C_10
REMARK    7  A    between atoms: C_10  and  C_11
REMARK    8  A    between atoms: N_13  and  O_14
REMARK                            x       y       z     vdW  Elec       q    Type
REMARK                         _______ _______ _______ _____ _____    ______ ____
ROOT
ATOM      1  C   UNL     1      -9.998   6.269 131.863  0.00  0.00    +0.000 A 
ATOM      2  C   UNL     1      -9.233   5.751 132.909  0.00  0.00    +0.000 A 
ATOM      3  C   UNL     1      -7.827   5.849 132.892  0.00  0.00    +0.000 A 
ATOM      4  C   UNL     1      -7.164   6.426 131.795  0.00  0.00    +0.000 A 
ATOM      5  C   UNL     1      -7.971   6.974 130.793  0.00  0.00    +0.000 A 
ATOM      6  C   UNL     1      -9.355   6.893 130.812  0.00  0.00    +0.000 A 
ENDROOT
BRANCH   1   7
ATOM      7  O   UNL     1     -11.357   6.216 131.981  0.00  0.00    +0.000 OA
BRANCH   7   8
ATOM      8  C   UNL     1     -12.075   6.484 130.770  0.00  0.00    +0.000 C 
BRANCH   8   9
ATOM      9  C   UNL     1     -12.907   7.739 130.986  0.00  0.00    +0.000 C 
BRANCH   9  11
ATOM     10  C   UNL     1     -13.043   8.221 128.532  0.00  0.00    +0.000 C 
ATOM     11  C   UNL     1     -12.644   8.767 129.891  0.00  0.00    +0.000 C 
ENDBRANCH   9  11
ENDBRANCH   8   9
ENDBRANCH   7   8
ENDBRANCH   1   7
BRANCH   4  12
ATOM     12  C   UNL     1      -5.642   6.412 131.694  0.00  0.00    +0.000 C 
BRANCH  12  13
ATOM     13  C   UNL     1      -5.027   6.745 130.324  0.00  0.00    +0.000 C 
ATOM     14  O   UNL     1      -4.928   5.989 129.351  0.00  0.00    +0.000 OA
ATOM     15  N   UNL     1      -4.537   8.012 130.157  0.00  0.00    +0.000 N 
ATOM     16  H   UNL     1      -4.466   8.750 130.845  0.00  0.00    +0.000 HD
BRANCH  15  17
ATOM     17  O   UNL     1      -3.981   8.249 128.871  0.00  0.00    +0.000 OA
ATOM     18  H   UNL     1      -3.017   8.323 129.080  0.00  0.00    +0.000 HD
ENDBRANCH  15  17
ENDBRANCH  12  13
ENDBRANCH   4  12
TORSDOF 7
ENDMDL
MODEL 5
REMARK VINA RESULT:      -5.5      8.936     11.229
REMARK  Name = Bufexamac
REMARK  8 active torsions:
REMARK  status: ('A' for Active; 'I' for Inactive)
REMARK    1  A    between atoms: C_1  and  C_2
REMARK    2  A    between atoms: C_2  and  C_3
REMARK    3  A    between atoms: C_3  and  C_4
REMARK    4  A    between atoms: C_4  and  O_5
REMARK    5  A    between atoms: O_5  and  C_6
REMARK    6  A    between atoms: C_9  and  C_10
REMARK    7  A    between atoms: C_10  and  C_11
REMARK    8  A    between atoms: N_13  and  O_14
REMARK                            x       y       z     vdW  Elec       q    Type
REMARK                         _______ _______ _______ _____ _____    ______ ____
ROOT
ATOM      1  C   UNL     1      -9.046  -1.977 125.732  0.00  0.00    +0.000 A 
ATOM      2  C   UNL     1      -8.296  -1.084 126.501  0.00  0.00    +0.000 A 
ATOM      3  C   UNL     1      -7.775  -1.471 127.752  0.00  0.00    +0.000 A 
ATOM      4  C   UNL     1      -8.044  -2.747 128.275  0.00  0.00    +0.000 A 
ATOM      5  C   UNL     1      -8.758  -3.624 127.452  0.00  0.00    +0.000 A 
ATOM      6  C   UNL     1      -9.260  -3.253 126.213  0.00  0.00    +0.000 A 
ENDROOT
BRANCH   1   7
ATOM      7  O   UNL     1      -9.448  -1.568 124.493  0.00  0.00    +0.000 OA
BRANCH   7   8
ATOM      8  C   UNL     1      -8.420  -0.971 123.695  0.00  0.00    +0.000 C 
BRANCH   8   9
ATOM      9  C   UNL     1      -7.718  -2.080 122.926  0.00  0.00    +0.000 C 
BRANCH   9  11
ATOM     10  C   UNL     1      -5.927  -3.270 124.210  0.00  0.00    +0.000 C 
ATOM     11  C   UNL     1      -6.232  -2.125 123.260  0.00  0.00    +0.000 C 
ENDBRANCH   9  11
ENDBRANCH   8   9
ENDBRANCH   7   8
ENDBRANCH   1   7
BRANCH   4  12
ATOM     12  C   UNL     1      -7.611  -3.131 129.687  0.00  0.00    +0.000 C 
BRANCH  12  13
ATOM     13  C   UNL     1      -6.234  -3.799 129.841  0.00  0.00    +0.000 C 
ATOM     14  O   UNL     1      -5.989  -4.875 130.396  0.00  0.00    +0.000 OA
ATOM     15  N   UNL     1      -5.162  -3.136 129.308  0.00  0.00    +0.000 N 
ATOM     16  H   UNL     1      -5.145  -2.222 128.875  0.00  0.00    +0.000 HD
BRANCH  15  17
ATOM     17  O   UNL     1      -3.923  -3.806 129.490  0.00  0.00    +0.000 OA
ATOM     18  H   UNL     1      -3.379  -3.107 129.929  0.00  0.00    +0.000 HD
ENDBRANCH  15  17
ENDBRANCH  12  13
ENDBRANCH   4  12
TORSDOF 7
ENDMDL
MODEL 6
REMARK VINA RESULT:      -5.3      8.927     11.101
REMARK  Name = Bufexamac
REMARK  8 active torsions:
REMARK  status: ('A' for Active; 'I' for Inactive)
REMARK    1  A    between atoms: C_1  and  C_2
REMARK    2  A    between atoms: C_2  and  C_3
REMARK    3  A    between atoms: C_3  and  C_4
REMARK    4  A    between atoms: C_4  and  O_5
REMARK    5  A    between atoms: O_5  and  C_6
REMARK    6  A    between atoms: C_9  and  C_10
REMARK    7  A    between atoms: C_10  and  C_11
REMARK    8  A    between atoms: N_13  and  O_14
REMARK                            x       y       z     vdW  Elec       q    Type
REMARK                         _______ _______ _______ _____ _____    ______ ____
ROOT
ATOM      1  C   UNL     1      -8.992  -2.582 126.296  0.00  0.00    +0.000 A 
ATOM      2  C   UNL     1      -9.078  -3.682 127.151  0.00  0.00    +0.000 A 
ATOM      3  C   UNL     1      -8.419  -3.681 128.398  0.00  0.00    +0.000 A 
ATOM      4  C   UNL     1      -7.620  -2.591 128.782  0.00  0.00    +0.000 A 
ATOM      5  C   UNL     1      -7.601  -1.492 127.917  0.00  0.00    +0.000 A 
ATOM      6  C   UNL     1      -8.259  -1.483 126.696  0.00  0.00    +0.000 A 
ENDROOT
BRANCH   1   7
ATOM      7  O   UNL     1      -9.722  -2.613 125.143  0.00  0.00    +0.000 OA
BRANCH   7   8
ATOM      8  C   UNL     1      -9.115  -3.341 124.068  0.00  0.00    +0.000 C 
BRANCH   8   9
ATOM      9  C   UNL     1      -8.739  -2.346 122.980  0.00  0.00    +0.000 C 
BRANCH   9  11
ATOM     10  C   UNL     1      -6.465  -3.017 123.786  0.00  0.00    +0.000 C 
ATOM     11  C   UNL     1      -7.275  -1.937 123.092  0.00  0.00    +0.000 C 
ENDBRANCH   9  11
ENDBRANCH   8   9
ENDBRANCH   7   8
ENDBRANCH   1   7
BRANCH   4  12
ATOM     12  C   UNL     1      -6.787  -2.632 130.059  0.00  0.00    +0.000 C 
BRANCH  12  13
ATOM     13  C   UNL     1      -5.286  -2.933 129.908  0.00  0.00    +0.000 C 
ATOM     14  O   UNL     1      -4.742  -4.041 129.964  0.00  0.00    +0.000 OA
ATOM     15  N   UNL     1      -4.460  -1.865 129.687  0.00  0.00    +0.000 N 
ATOM     16  H   UNL     1      -4.699  -0.882 129.672  0.00  0.00    +0.000 HD
BRANCH  15  17
ATOM     17  O   UNL     1      -3.088  -2.215 129.562  0.00  0.00    +0.000 OA
ATOM     18  H   UNL     1      -2.913  -2.005 128.611  0.00  0.00    +0.000 HD
ENDBRANCH  15  17
ENDBRANCH  12  13
ENDBRANCH   4  12
TORSDOF 7
ENDMDL
MODEL 7
REMARK VINA RESULT:      -4.9      9.154     11.149
REMARK  Name = Bufexamac
REMARK  8 active torsions:
REMARK  status: ('A' for Active; 'I' for Inactive)
REMARK    1  A    between atoms: C_1  and  C_2
REMARK    2  A    between atoms: C_2  and  C_3
REMARK    3  A    between atoms: C_3  and  C_4
REMARK    4  A    between atoms: C_4  and  O_5
REMARK    5  A    between atoms: O_5  and  C_6
REMARK    6  A    between atoms: C_9  and  C_10
REMARK    7  A    between atoms: C_10  and  C_11
REMARK    8  A    between atoms: N_13  and  O_14
REMARK                            x       y       z     vdW  Elec       q    Type
REMARK                         _______ _______ _______ _____ _____    ______ ____
ROOT
ATOM      1  C   UNL     1      -7.250  -2.451 126.807  0.00  0.00    +0.000 A 
ATOM      2  C   UNL     1      -8.267  -3.035 127.563  0.00  0.00    +0.000 A 
ATOM      3  C   UNL     1      -8.050  -3.399 128.908  0.00  0.00    +0.000 A 
ATOM      4  C   UNL     1      -6.787  -3.227 129.499  0.00  0.00    +0.000 A 
ATOM      5  C   UNL     1      -5.812  -2.595 128.722  0.00  0.00    +0.000 A 
ATOM      6  C   UNL     1      -6.025  -2.222 127.403  0.00  0.00    +0.000 A 
ENDROOT
BRANCH   1   7
ATOM      7  O   UNL     1      -7.550  -2.045 125.539  0.00  0.00    +0.000 OA
BRANCH   7   8
ATOM      8  C   UNL     1      -6.414  -1.758 124.716  0.00  0.00    +0.000 C 
BRANCH   8   9
ATOM      9  C   UNL     1      -6.201  -2.938 123.781  0.00  0.00    +0.000 C 
BRANCH   9  11
ATOM     10  C   UNL     1      -4.391  -4.663 123.644  0.00  0.00    +0.000 C 
ATOM     11  C   UNL     1      -4.717  -3.184 123.535  0.00  0.00    +0.000 C 
ENDBRANCH   9  11
ENDBRANCH   8   9
ENDBRANCH   7   8
ENDBRANCH   1   7
BRANCH   4  12
ATOM     12  C   UNL     1      -6.494  -3.745 130.904  0.00  0.00    +0.000 C 
BRANCH  12  13
ATOM     13  C   UNL     1      -6.468  -2.711 132.042  0.00  0.00    +0.000 C 
ATOM     14  O   UNL     1      -5.521  -1.988 132.367  0.00  0.00    +0.000 OA
ATOM     15  N   UNL     1      -7.615  -2.570 132.777  0.00  0.00    +0.000 N 
ATOM     16  H   UNL     1      -8.468  -3.109 132.711  0.00  0.00    +0.000 HD
BRANCH  15  17
ATOM     17  O   UNL     1      -7.519  -1.603 133.812  0.00  0.00    +0.000 OA
ATOM     18  H   UNL     1      -6.558  -1.368 133.780  0.00  0.00    +0.000 HD
ENDBRANCH  15  17
ENDBRANCH  12  13
ENDBRANCH   4  12
TORSDOF 7
ENDMDL
MODEL 8
REMARK VINA RESULT:      -4.9      9.135     11.067
REMARK  Name = Bufexamac
REMARK  8 active torsions:
REMARK  status: ('A' for Active; 'I' for Inactive)
REMARK    1  A    between atoms: C_1  and  C_2
REMARK    2  A    between atoms: C_2  and  C_3
REMARK    3  A    between atoms: C_3  and  C_4
REMARK    4  A    between atoms: C_4  and  O_5
REMARK    5  A    between atoms: O_5  and  C_6
REMARK    6  A    between atoms: C_9  and  C_10
REMARK    7  A    between atoms: C_10  and  C_11
REMARK    8  A    between atoms: N_13  and  O_14
REMARK                            x       y       z     vdW  Elec       q    Type
REMARK                         _______ _______ _______ _____ _____    ______ ____
ROOT
ATOM      1  C   UNL     1      -7.145  -2.462 127.448  0.00  0.00    +0.000 A 
ATOM      2  C   UNL     1      -5.882  -2.280 128.014  0.00  0.00    +0.000 A 
ATOM      3  C   UNL     1      -5.634  -2.634 129.356  0.00  0.00    +0.000 A 
ATOM      4  C   UNL     1      -6.669  -3.129 130.167  0.00  0.00    +0.000 A 
ATOM      5  C   UNL     1      -7.905  -3.339 129.547  0.00  0.00    +0.000 A 
ATOM      6  C   UNL     1      -8.149  -3.007 128.222  0.00  0.00    +0.000 A 
ENDROOT
BRANCH   1   7
ATOM      7  O   UNL     1      -7.296  -2.178 126.121  0.00  0.00    +0.000 OA
BRANCH   7   8
ATOM      8  C   UNL     1      -8.106  -3.112 125.397  0.00  0.00    +0.000 C 
BRANCH   8   9
ATOM      9  C   UNL     1      -7.367  -3.485 124.121  0.00  0.00    +0.000 C 
BRANCH   9  11
ATOM     10  C   UNL     1      -4.895  -3.815 123.896  0.00  0.00    +0.000 C 
ATOM     11  C   UNL     1      -6.010  -2.796 124.051  0.00  0.00    +0.000 C 
ENDBRANCH   9  11
ENDBRANCH   8   9
ENDBRANCH   7   8
ENDBRANCH   1   7
BRANCH   4  12
ATOM     12  C   UNL     1      -6.456  -3.381 131.656  0.00  0.00    +0.000 C 
BRANCH  12  13
ATOM     13  C   UNL     1      -7.460  -2.738 132.627  0.00  0.00    +0.000 C 
ATOM     14  O   UNL     1      -7.916  -1.591 132.572  0.00  0.00    +0.000 OA
ATOM     15  N   UNL     1      -7.902  -3.514 133.664  0.00  0.00    +0.000 N 
ATOM     16  H   UNL     1      -7.604  -4.447 133.918  0.00  0.00    +0.000 HD
BRANCH  15  17
ATOM     17  O   UNL     1      -8.824  -2.857 134.523  0.00  0.00    +0.000 OA
ATOM     18  H   UNL     1      -9.009  -2.025 134.020  0.00  0.00    +0.000 HD
ENDBRANCH  15  17
ENDBRANCH  12  13
ENDBRANCH   4  12
TORSDOF 7
ENDMDL
MODEL 9
REMARK VINA RESULT:      -4.8      8.625      9.325
REMARK  Name = Bufexamac
REMARK  8 active torsions:
REMARK  status: ('A' for Active; 'I' for Inactive)
REMARK    1  A    between atoms: C_1  and  C_2
REMARK    2  A    between atoms: C_2  and  C_3
REMARK    3  A    between atoms: C_3  and  C_4
REMARK    4  A    between atoms: C_4  and  O_5
REMARK    5  A    between atoms: O_5  and  C_6
REMARK    6  A    between atoms: C_9  and  C_10
REMARK    7  A    between atoms: C_10  and  C_11
REMARK    8  A    between atoms: N_13  and  O_14
REMARK                            x       y       z     vdW  Elec       q    Type
REMARK                         _______ _______ _______ _____ _____    ______ ____
ROOT
ATOM      1  C   UNL     1      -7.836  -3.172 129.225  0.00  0.00    +0.000 A 
ATOM      2  C   UNL     1      -6.956  -2.313 128.564  0.00  0.00    +0.000 A 
ATOM      3  C   UNL     1      -7.064  -2.098 127.175  0.00  0.00    +0.000 A 
ATOM      4  C   UNL     1      -8.029  -2.784 126.419  0.00  0.00    +0.000 A 
ATOM      5  C   UNL     1      -8.919  -3.597 127.128  0.00  0.00    +0.000 A 
ATOM      6  C   UNL     1      -8.826  -3.800 128.497  0.00  0.00    +0.000 A 
ENDROOT
BRANCH   1   7
ATOM      7  O   UNL     1      -7.731  -3.270 130.583  0.00  0.00    +0.000 OA
BRANCH   7   8
ATOM      8  C   UNL     1      -6.445  -3.689 131.056  0.00  0.00    +0.000 C 
BRANCH   8   9
ATOM      9  C   UNL     1      -6.326  -3.280 132.516  0.00  0.00    +0.000 C 
BRANCH   9  11
ATOM     10  C   UNL     1      -8.234  -3.448 134.129  0.00  0.00    +0.000 C 
ATOM     11  C   UNL     1      -7.613  -2.630 133.011  0.00  0.00    +0.000 C 
ENDBRANCH   9  11
ENDBRANCH   8   9
ENDBRANCH   7   8
ENDBRANCH   1   7
BRANCH   4  12
ATOM     12  C   UNL     1      -8.067  -2.674 124.898  0.00  0.00    +0.000 C 
BRANCH  12  13
ATOM     13  C   UNL     1      -8.980  -1.593 124.296  0.00  0.00    +0.000 C 
ATOM     14  O   UNL     1      -9.531  -0.666 124.900  0.00  0.00    +0.000 OA
ATOM     15  N   UNL     1      -9.211  -1.656 122.948  0.00  0.00    +0.000 N 
ATOM     16  H   UNL     1      -8.908  -2.367 122.296  0.00  0.00    +0.000 HD
BRANCH  15  17
ATOM     17  O   UNL     1     -10.065  -0.630 122.462  0.00  0.00    +0.000 OA
ATOM     18  H   UNL     1     -10.215  -0.090 123.277  0.00  0.00    +0.000 HD
ENDBRANCH  15  17
ENDBRANCH  12  13
ENDBRANCH   4  12
TORSDOF 7
ENDMDL
