MODEL 1
REMARK VINA RESULT:      -7.7      0.000      0.000
REMARK  Name = Bumadizone
REMARK  10 active torsions:
REMARK  status: ('A' for Active; 'I' for Inactive)
REMARK    1  A    between atoms: C_1  and  C_2
REMARK    2  A    between atoms: C_2  and  C_3
REMARK    3  A    between atoms: C_3  and  C_4
REMARK    4  A    between atoms: C_4  and  C_5
REMARK    5  A    between atoms: C_5  and  C_6
REMARK    6  A    between atoms: C_5  and  C_9
REMARK    7  A    between atoms: C_6  and  O_7
REMARK    8  A    between atoms: N_11  and  N_12
REMARK    9  A    between atoms: N_11  and  C_19
REMARK   10  A    between atoms: N_12  and  C_13
REMARK                            x       y       z     vdW  Elec       q    Type
REMARK                         _______ _______ _______ _____ _____    ______ ____
ROOT
ATOM      1  C   UNL     1      -7.047   2.114 125.356  0.00  0.00    +0.000 C 
ATOM      2  O   UNL     1      -7.036   1.165 126.151  0.00  0.00    +0.000 OA
ATOM      3  N   UNL     1      -7.257   1.941 123.942  0.00  0.00    +0.000 N 
ENDROOT
BRANCH   3   4
ATOM      4  C   UNL     1      -7.628   0.601 123.487  0.00  0.00    +0.000 A 
ATOM      5  C   UNL     1      -6.641  -0.371 123.267  0.00  0.00    +0.000 A 
ATOM      6  C   UNL     1      -6.985  -1.666 122.832  0.00  0.00    +0.000 A 
ATOM      7  C   UNL     1      -8.321  -2.028 122.665  0.00  0.00    +0.000 A 
ATOM      8  C   UNL     1      -9.316  -1.089 122.903  0.00  0.00    +0.000 A 
ATOM      9  C   UNL     1      -8.970   0.210 123.304  0.00  0.00    +0.000 A 
ENDBRANCH   3   4
BRANCH   3  10
ATOM     10  N   UNL     1      -7.850   3.003 123.027  0.00  0.00    +0.000 N 
ATOM     11  H   UNL     1      -8.818   2.747 122.801  0.00  0.00    +0.000 HD
BRANCH  10  12
ATOM     12  C   UNL     1      -7.208   3.456 121.840  0.00  0.00    +0.000 A 
ATOM     13  C   UNL     1      -7.881   3.733 120.654  0.00  0.00    +0.000 A 
ATOM     14  C   UNL     1      -7.205   4.331 119.555  0.00  0.00    +0.000 A 
ATOM     15  C   UNL     1      -5.888   4.766 119.668  0.00  0.00    +0.000 A 
ATOM     16  C   UNL     1      -5.185   4.327 120.757  0.00  0.00    +0.000 A 
ATOM     17  C   UNL     1      -5.838   3.519 121.702  0.00  0.00    +0.000 A 
ENDBRANCH  10  12
ENDBRANCH   3  10
BRANCH   1  18
ATOM     18  C   UNL     1      -6.521   3.439 125.862  0.00  0.00    +0.000 C 
BRANCH  18  19
ATOM     19  C   UNL     1      -7.466   4.616 125.481  0.00  0.00    +0.000 C 
ATOM     20  O   UNL     1      -8.671   4.596 125.567  0.00  0.00    +0.000 OA
BRANCH  19  21
ATOM     21  O   UNL     1      -6.893   5.724 124.941  0.00  0.00    +0.000 OA
ATOM     22  H   UNL     1      -6.315   6.253 125.515  0.00  0.00    +0.000 HD
ENDBRANCH  19  21
ENDBRANCH  18  19
BRANCH  18  23
ATOM     23  C   UNL     1      -5.193   3.872 125.239  0.00  0.00    +0.000 C 
BRANCH  23  24
ATOM     24  C   UNL     1      -4.131   4.096 126.331  0.00  0.00    +0.000 C 
BRANCH  24  26
ATOM     25  C   UNL     1      -1.906   3.108 126.802  0.00  0.00    +0.000 C 
ATOM     26  C   UNL     1      -3.371   2.809 126.564  0.00  0.00    +0.000 C 
ENDBRANCH  24  26
ENDBRANCH  23  24
ENDBRANCH  18  23
ENDBRANCH   1  18
TORSDOF 9
ENDMDL
MODEL 2
REMARK VINA RESULT:      -7.2      3.515      7.390
REMARK  Name = Bumadizone
REMARK  10 active torsions:
REMARK  status: ('A' for Active; 'I' for Inactive)
REMARK    1  A    between atoms: C_1  and  C_2
REMARK    2  A    between atoms: C_2  and  C_3
REMARK    3  A    between atoms: C_3  and  C_4
REMARK    4  A    between atoms: C_4  and  C_5
REMARK    5  A    between atoms: C_5  and  C_6
REMARK    6  A    between atoms: C_5  and  C_9
REMARK    7  A    between atoms: C_6  and  O_7
REMARK    8  A    between atoms: N_11  and  N_12
REMARK    9  A    between atoms: N_11  and  C_19
REMARK   10  A    between atoms: N_12  and  C_13
REMARK                            x       y       z     vdW  Elec       q    Type
REMARK                         _______ _______ _______ _____ _____    ______ ____
ROOT
ATOM      1  C   UNL     1      -7.352  -0.132 123.658  0.00  0.00    +0.000 C 
ATOM      2  O   UNL     1      -6.763   0.739 123.004  0.00  0.00    +0.000 OA
ATOM      3  N   UNL     1      -7.409  -0.120 125.095  0.00  0.00    +0.000 N 
ENDROOT
BRANCH   3   4
ATOM      4  C   UNL     1      -6.878   1.065 125.769  0.00  0.00    +0.000 A 
ATOM      5  C   UNL     1      -7.733   2.114 126.138  0.00  0.00    +0.000 A 
ATOM      6  C   UNL     1      -7.235   3.258 126.791  0.00  0.00    +0.000 A 
ATOM      7  C   UNL     1      -5.887   3.349 127.137  0.00  0.00    +0.000 A 
ATOM      8  C   UNL     1      -5.028   2.310 126.805  0.00  0.00    +0.000 A 
ATOM      9  C   UNL     1      -5.519   1.186 126.125  0.00  0.00    +0.000 A 
ENDBRANCH   3   4
BRANCH   3  10
ATOM     10  N   UNL     1      -8.527  -0.750 125.915  0.00  0.00    +0.000 N 
ATOM     11  H   UNL     1      -9.118  -0.005 126.300  0.00  0.00    +0.000 HD
BRANCH  10  12
ATOM     12  C   UNL     1      -8.298  -1.723 126.929  0.00  0.00    +0.000 A 
ATOM     13  C   UNL     1      -7.519  -1.493 128.059  0.00  0.00    +0.000 A 
ATOM     14  C   UNL     1      -7.459  -2.451 129.108  0.00  0.00    +0.000 A 
ATOM     15  C   UNL     1      -8.262  -3.587 129.096  0.00  0.00    +0.000 A 
ATOM     16  C   UNL     1      -8.875  -3.896 127.912  0.00  0.00    +0.000 A 
ATOM     17  C   UNL     1      -8.698  -3.036 126.816  0.00  0.00    +0.000 A 
ENDBRANCH  10  12
ENDBRANCH   3  10
BRANCH   1  18
ATOM     18  C   UNL     1      -7.751  -1.390 122.918  0.00  0.00    +0.000 C 
BRANCH  18  19
ATOM     19  C   UNL     1      -9.274  -1.679 123.055  0.00  0.00    +0.000 C 
ATOM     20  O   UNL     1      -9.751  -2.686 123.526  0.00  0.00    +0.000 OA
BRANCH  19  21
ATOM     21  O   UNL     1     -10.132  -0.760 122.539  0.00  0.00    +0.000 OA
ATOM     22  H   UNL     1     -10.633  -0.214 123.167  0.00  0.00    +0.000 HD
ENDBRANCH  19  21
ENDBRANCH  18  19
BRANCH  18  23
ATOM     23  C   UNL     1      -7.126  -2.673 123.470  0.00  0.00    +0.000 C 
BRANCH  23  24
ATOM     24  C   UNL     1      -5.603  -2.672 123.245  0.00  0.00    +0.000 C 
BRANCH  24  26
ATOM     25  C   UNL     1      -4.281  -4.759 123.467  0.00  0.00    +0.000 C 
ATOM     26  C   UNL     1      -4.951  -3.629 124.219  0.00  0.00    +0.000 C 
ENDBRANCH  24  26
ENDBRANCH  23  24
ENDBRANCH  18  23
ENDBRANCH   1  18
TORSDOF 9
ENDMDL
MODEL 3
REMARK VINA RESULT:      -7.2      1.379      4.655
REMARK  Name = Bumadizone
REMARK  10 active torsions:
REMARK  status: ('A' for Active; 'I' for Inactive)
REMARK    1  A    between atoms: C_1  and  C_2
REMARK    2  A    between atoms: C_2  and  C_3
REMARK    3  A    between atoms: C_3  and  C_4
REMARK    4  A    between atoms: C_4  and  C_5
REMARK    5  A    between atoms: C_5  and  C_6
REMARK    6  A    between atoms: C_5  and  C_9
REMARK    7  A    between atoms: C_6  and  O_7
REMARK    8  A    between atoms: N_11  and  N_12
REMARK    9  A    between atoms: N_11  and  C_19
REMARK   10  A    between atoms: N_12  and  C_13
REMARK                            x       y       z     vdW  Elec       q    Type
REMARK                         _______ _______ _______ _____ _____    ______ ____
ROOT
ATOM      1  C   UNL     1      -5.982   3.680 123.877  0.00  0.00    +0.000 C 
ATOM      2  O   UNL     1      -5.692   4.836 123.540  0.00  0.00    +0.000 OA
ATOM      3  N   UNL     1      -6.835   2.831 123.088  0.00  0.00    +0.000 N 
ENDROOT
BRANCH   3   4
ATOM      4  C   UNL     1      -7.226   3.328 121.768  0.00  0.00    +0.000 A 
ATOM      5  C   UNL     1      -8.581   3.462 121.434  0.00  0.00    +0.000 A 
ATOM      6  C   UNL     1      -8.970   3.943 120.169  0.00  0.00    +0.000 A 
ATOM      7  C   UNL     1      -8.015   4.350 119.238  0.00  0.00    +0.000 A 
ATOM      8  C   UNL     1      -6.667   4.250 119.558  0.00  0.00    +0.000 A 
ATOM      9  C   UNL     1      -6.281   3.740 120.806  0.00  0.00    +0.000 A 
ENDBRANCH   3   4
BRANCH   3  10
ATOM     10  N   UNL     1      -6.774   1.310 123.093  0.00  0.00    +0.000 N 
ATOM     11  H   UNL     1      -6.777   0.972 122.124  0.00  0.00    +0.000 HD
BRANCH  10  12
ATOM     12  C   UNL     1      -7.652   0.497 123.864  0.00  0.00    +0.000 A 
ATOM     13  C   UNL     1      -7.640  -0.895 123.838  0.00  0.00    +0.000 A 
ATOM     14  C   UNL     1      -8.434  -1.647 124.747  0.00  0.00    +0.000 A 
ATOM     15  C   UNL     1      -9.152  -1.025 125.764  0.00  0.00    +0.000 A 
ATOM     16  C   UNL     1      -9.308   0.330 125.668  0.00  0.00    +0.000 A 
ATOM     17  C   UNL     1      -8.703   1.006 124.596  0.00  0.00    +0.000 A 
ENDBRANCH  10  12
ENDBRANCH   3  10
BRANCH   1  18
ATOM     18  C   UNL     1      -5.668   3.283 125.302  0.00  0.00    +0.000 C 
BRANCH  18  19
ATOM     19  C   UNL     1      -6.755   3.791 126.294  0.00  0.00    +0.000 C 
ATOM     20  O   UNL     1      -7.362   3.097 127.075  0.00  0.00    +0.000 OA
BRANCH  19  21
ATOM     21  O   UNL     1      -7.098   5.105 126.223  0.00  0.00    +0.000 OA
ATOM     22  H   UNL     1      -8.031   5.330 126.369  0.00  0.00    +0.000 HD
ENDBRANCH  19  21
ENDBRANCH  18  19
BRANCH  18  23
ATOM     23  C   UNL     1      -4.393   3.912 125.868  0.00  0.00    +0.000 C 
BRANCH  23  24
ATOM     24  C   UNL     1      -3.862   3.084 127.053  0.00  0.00    +0.000 C 
BRANCH  24  26
ATOM     25  C   UNL     1      -1.450   2.943 126.493  0.00  0.00    +0.000 C 
ATOM     26  C   UNL     1      -2.475   3.564 127.419  0.00  0.00    +0.000 C 
ENDBRANCH  24  26
ENDBRANCH  23  24
ENDBRANCH  18  23
ENDBRANCH   1  18
TORSDOF 9
ENDMDL
MODEL 4
REMARK VINA RESULT:      -7.0      6.759      9.687
REMARK  Name = Bumadizone
REMARK  10 active torsions:
REMARK  status: ('A' for Active; 'I' for Inactive)
REMARK    1  A    between atoms: C_1  and  C_2
REMARK    2  A    between atoms: C_2  and  C_3
REMARK    3  A    between atoms: C_3  and  C_4
REMARK    4  A    between atoms: C_4  and  C_5
REMARK    5  A    between atoms: C_5  and  C_6
REMARK    6  A    between atoms: C_5  and  C_9
REMARK    7  A    between atoms: C_6  and  O_7
REMARK    8  A    between atoms: N_11  and  N_12
REMARK    9  A    between atoms: N_11  and  C_19
REMARK   10  A    between atoms: N_12  and  C_13
REMARK                            x       y       z     vdW  Elec       q    Type
REMARK                         _______ _______ _______ _____ _____    ______ ____
ROOT
ATOM      1  C   UNL     1      -9.804   4.403 130.404  0.00  0.00    +0.000 C 
ATOM      2  O   UNL     1     -10.836   4.002 129.849  0.00  0.00    +0.000 OA
ATOM      3  N   UNL     1      -9.588   5.786 130.739  0.00  0.00    +0.000 N 
ENDROOT
BRANCH   3   4
ATOM      4  C   UNL     1     -10.717   6.698 130.546  0.00  0.00    +0.000 A 
ATOM      5  C   UNL     1     -11.753   6.752 131.490  0.00  0.00    +0.000 A 
ATOM      6  C   UNL     1     -12.842   7.628 131.318  0.00  0.00    +0.000 A 
ATOM      7  C   UNL     1     -12.887   8.503 130.233  0.00  0.00    +0.000 A 
ATOM      8  C   UNL     1     -11.858   8.484 129.301  0.00  0.00    +0.000 A 
ATOM      9  C   UNL     1     -10.790   7.588 129.456  0.00  0.00    +0.000 A 
ENDBRANCH   3   4
BRANCH   3  10
ATOM     10  N   UNL     1      -8.698   6.265 131.877  0.00  0.00    +0.000 N 
ATOM     11  H   UNL     1      -9.071   7.148 132.243  0.00  0.00    +0.000 HD
BRANCH  10  12
ATOM     12  C   UNL     1      -7.283   6.375 131.767  0.00  0.00    +0.000 A 
ATOM     13  C   UNL     1      -6.639   7.065 130.744  0.00  0.00    +0.000 A 
ATOM     14  C   UNL     1      -5.232   7.270 130.779  0.00  0.00    +0.000 A 
ATOM     15  C   UNL     1      -4.475   6.896 131.885  0.00  0.00    +0.000 A 
ATOM     16  C   UNL     1      -5.074   6.062 132.789  0.00  0.00    +0.000 A 
ATOM     17  C   UNL     1      -6.408   5.682 132.575  0.00  0.00    +0.000 A 
ENDBRANCH  10  12
ENDBRANCH   3  10
BRANCH   1  18
ATOM     18  C   UNL     1      -8.632   3.447 130.444  0.00  0.00    +0.000 C 
BRANCH  18  19
ATOM     19  C   UNL     1      -8.092   3.139 129.017  0.00  0.00    +0.000 C 
ATOM     20  O   UNL     1      -7.031   3.519 128.579  0.00  0.00    +0.000 OA
BRANCH  19  21
ATOM     21  O   UNL     1      -8.909   2.453 128.176  0.00  0.00    +0.000 OA
ATOM     22  H   UNL     1      -9.462   2.973 127.568  0.00  0.00    +0.000 HD
ENDBRANCH  19  21
ENDBRANCH  18  19
BRANCH  18  23
ATOM     23  C   UNL     1      -8.972   2.051 130.970  0.00  0.00    +0.000 C 
BRANCH  23  24
ATOM     24  C   UNL     1      -9.553   2.138 132.393  0.00  0.00    +0.000 C 
BRANCH  24  26
ATOM     25  C   UNL     1      -9.067   3.811 134.159  0.00  0.00    +0.000 C 
ATOM     26  C   UNL     1      -8.498   2.675 133.335  0.00  0.00    +0.000 C 
ENDBRANCH  24  26
ENDBRANCH  23  24
ENDBRANCH  18  23
ENDBRANCH   1  18
TORSDOF 9
ENDMDL
MODEL 5
REMARK VINA RESULT:      -6.9      4.022      6.462
REMARK  Name = Bumadizone
REMARK  10 active torsions:
REMARK  status: ('A' for Active; 'I' for Inactive)
REMARK    1  A    between atoms: C_1  and  C_2
REMARK    2  A    between atoms: C_2  and  C_3
REMARK    3  A    between atoms: C_3  and  C_4
REMARK    4  A    between atoms: C_4  and  C_5
REMARK    5  A    between atoms: C_5  and  C_6
REMARK    6  A    between atoms: C_5  and  C_9
REMARK    7  A    between atoms: C_6  and  O_7
REMARK    8  A    between atoms: N_11  and  N_12
REMARK    9  A    between atoms: N_11  and  C_19
REMARK   10  A    between atoms: N_12  and  C_13
REMARK                            x       y       z     vdW  Elec       q    Type
REMARK                         _______ _______ _______ _____ _____    ______ ____
ROOT
ATOM      1  C   UNL     1      -6.182  -0.334 126.854  0.00  0.00    +0.000 C 
ATOM      2  O   UNL     1      -6.578   0.192 127.902  0.00  0.00    +0.000 OA
ATOM      3  N   UNL     1      -5.632  -1.663 126.810  0.00  0.00    +0.000 N 
ENDROOT
BRANCH   3   4
ATOM      4  C   UNL     1      -5.706  -2.452 128.040  0.00  0.00    +0.000 A 
ATOM      5  C   UNL     1      -6.949  -2.858 128.548  0.00  0.00    +0.000 A 
ATOM      6  C   UNL     1      -7.034  -3.621 129.729  0.00  0.00    +0.000 A 
ATOM      7  C   UNL     1      -5.880  -4.037 130.391  0.00  0.00    +0.000 A 
ATOM      8  C   UNL     1      -4.638  -3.668 129.891  0.00  0.00    +0.000 A 
ATOM      9  C   UNL     1      -4.556  -2.881 128.733  0.00  0.00    +0.000 A 
ENDBRANCH   3   4
BRANCH   3  10
ATOM     10  N   UNL     1      -5.672  -2.569 125.588  0.00  0.00    +0.000 N 
ATOM     11  H   UNL     1      -4.852  -2.376 125.002  0.00  0.00    +0.000 HD
BRANCH  10  12
ATOM     12  C   UNL     1      -6.815  -2.698 124.749  0.00  0.00    +0.000 A 
ATOM     13  C   UNL     1      -7.976  -3.370 125.122  0.00  0.00    +0.000 A 
ATOM     14  C   UNL     1      -9.136  -3.328 124.301  0.00  0.00    +0.000 A 
ATOM     15  C   UNL     1      -9.190  -2.522 123.168  0.00  0.00    +0.000 A 
ATOM     16  C   UNL     1      -8.003  -2.020 122.711  0.00  0.00    +0.000 A 
ATOM     17  C   UNL     1      -6.829  -2.302 123.429  0.00  0.00    +0.000 A 
ENDBRANCH  10  12
ENDBRANCH   3  10
BRANCH   1  18
ATOM     18  C   UNL     1      -6.000   0.574 125.658  0.00  0.00    +0.000 C 
BRANCH  18  19
ATOM     19  C   UNL     1      -5.169   1.840 126.018  0.00  0.00    +0.000 C 
ATOM     20  O   UNL     1      -5.352   2.945 125.562  0.00  0.00    +0.000 OA
BRANCH  19  21
ATOM     21  O   UNL     1      -4.109   1.673 126.853  0.00  0.00    +0.000 OA
ATOM     22  H   UNL     1      -4.282   1.259 127.715  0.00  0.00    +0.000 HD
ENDBRANCH  19  21
ENDBRANCH  18  19
BRANCH  18  23
ATOM     23  C   UNL     1      -7.299   1.181 125.122  0.00  0.00    +0.000 C 
BRANCH  23  24
ATOM     24  C   UNL     1      -8.508   0.327 125.544  0.00  0.00    +0.000 C 
BRANCH  24  26
ATOM     25  C   UNL     1      -9.660   1.262 123.557  0.00  0.00    +0.000 C 
ATOM     26  C   UNL     1      -9.780   0.972 125.038  0.00  0.00    +0.000 C 
ENDBRANCH  24  26
ENDBRANCH  23  24
ENDBRANCH  18  23
ENDBRANCH   1  18
TORSDOF 9
ENDMDL
MODEL 6
REMARK VINA RESULT:      -6.7      1.639      5.342
REMARK  Name = Bumadizone
REMARK  10 active torsions:
REMARK  status: ('A' for Active; 'I' for Inactive)
REMARK    1  A    between atoms: C_1  and  C_2
REMARK    2  A    between atoms: C_2  and  C_3
REMARK    3  A    between atoms: C_3  and  C_4
REMARK    4  A    between atoms: C_4  and  C_5
REMARK    5  A    between atoms: C_5  and  C_6
REMARK    6  A    between atoms: C_5  and  C_9
REMARK    7  A    between atoms: C_6  and  O_7
REMARK    8  A    between atoms: N_11  and  N_12
REMARK    9  A    between atoms: N_11  and  C_19
REMARK   10  A    between atoms: N_12  and  C_13
REMARK                            x       y       z     vdW  Elec       q    Type
REMARK                         _______ _______ _______ _____ _____    ______ ____
ROOT
ATOM      1  C   UNL     1      -6.296   1.600 125.359  0.00  0.00    +0.000 C 
ATOM      2  O   UNL     1      -5.607   0.735 125.914  0.00  0.00    +0.000 OA
ATOM      3  N   UNL     1      -6.117   3.008 125.596  0.00  0.00    +0.000 N 
ENDROOT
BRANCH   3   4
ATOM      4  C   UNL     1      -4.962   3.402 126.405  0.00  0.00    +0.000 A 
ATOM      5  C   UNL     1      -5.143   3.899 127.703  0.00  0.00    +0.000 A 
ATOM      6  C   UNL     1      -4.040   4.277 128.493  0.00  0.00    +0.000 A 
ATOM      7  C   UNL     1      -2.738   4.112 128.022  0.00  0.00    +0.000 A 
ATOM      8  C   UNL     1      -2.536   3.597 126.749  0.00  0.00    +0.000 A 
ATOM      9  C   UNL     1      -3.636   3.251 125.950  0.00  0.00    +0.000 A 
ENDBRANCH   3   4
BRANCH   3  10
ATOM     10  N   UNL     1      -6.467   4.099 124.594  0.00  0.00    +0.000 N 
ATOM     11  H   UNL     1      -7.474   4.288 124.645  0.00  0.00    +0.000 HD
BRANCH  10  12
ATOM     12  C   UNL     1      -6.078   4.055 123.225  0.00  0.00    +0.000 A 
ATOM     13  C   UNL     1      -6.843   3.465 122.223  0.00  0.00    +0.000 A 
ATOM     14  C   UNL     1      -6.474   3.594 120.855  0.00  0.00    +0.000 A 
ATOM     15  C   UNL     1      -5.413   4.406 120.467  0.00  0.00    +0.000 A 
ATOM     16  C   UNL     1      -4.563   4.824 121.454  0.00  0.00    +0.000 A 
ATOM     17  C   UNL     1      -4.837   4.457 122.781  0.00  0.00    +0.000 A 
ENDBRANCH  10  12
ENDBRANCH   3  10
BRANCH   1  18
ATOM     18  C   UNL     1      -7.550   1.129 124.656  0.00  0.00    +0.000 C 
BRANCH  18  19
ATOM     19  C   UNL     1      -8.835   1.676 125.343  0.00  0.00    +0.000 C 
ATOM     20  O   UNL     1      -9.395   1.159 126.281  0.00  0.00    +0.000 OA
BRANCH  19  21
ATOM     21  O   UNL     1      -9.412   2.780 124.798  0.00  0.00    +0.000 OA
ATOM     22  H   UNL     1      -9.339   3.612 125.294  0.00  0.00    +0.000 HD
ENDBRANCH  19  21
ENDBRANCH  18  19
BRANCH  18  23
ATOM     23  C   UNL     1      -7.773  -0.384 124.707  0.00  0.00    +0.000 C 
BRANCH  23  24
ATOM     24  C   UNL     1      -8.524  -0.861 123.450  0.00  0.00    +0.000 C 
BRANCH  24  26
ATOM     25  C   UNL     1      -9.406  -3.179 123.474  0.00  0.00    +0.000 C 
ATOM     26  C   UNL     1      -8.195  -2.315 123.191  0.00  0.00    +0.000 C 
ENDBRANCH  24  26
ENDBRANCH  23  24
ENDBRANCH  18  23
ENDBRANCH   1  18
TORSDOF 9
ENDMDL
MODEL 7
REMARK VINA RESULT:      -6.7      3.099      5.094
REMARK  Name = Bumadizone
REMARK  10 active torsions:
REMARK  status: ('A' for Active; 'I' for Inactive)
REMARK    1  A    between atoms: C_1  and  C_2
REMARK    2  A    between atoms: C_2  and  C_3
REMARK    3  A    between atoms: C_3  and  C_4
REMARK    4  A    between atoms: C_4  and  C_5
REMARK    5  A    between atoms: C_5  and  C_6
REMARK    6  A    between atoms: C_5  and  C_9
REMARK    7  A    between atoms: C_6  and  O_7
REMARK    8  A    between atoms: N_11  and  N_12
REMARK    9  A    between atoms: N_11  and  C_19
REMARK   10  A    between atoms: N_12  and  C_13
REMARK                            x       y       z     vdW  Elec       q    Type
REMARK                         _______ _______ _______ _____ _____    ______ ____
ROOT
ATOM      1  C   UNL     1      -7.836   0.939 126.379  0.00  0.00    +0.000 C 
ATOM      2  O   UNL     1      -9.037   0.965 126.678  0.00  0.00    +0.000 OA
ATOM      3  N   UNL     1      -6.959  -0.132 126.772  0.00  0.00    +0.000 N 
ENDROOT
BRANCH   3   4
ATOM      4  C   UNL     1      -7.579  -1.294 127.411  0.00  0.00    +0.000 A 
ATOM      5  C   UNL     1      -8.278  -2.236 126.643  0.00  0.00    +0.000 A 
ATOM      6  C   UNL     1      -8.876  -3.361 127.245  0.00  0.00    +0.000 A 
ATOM      7  C   UNL     1      -8.737  -3.593 128.613  0.00  0.00    +0.000 A 
ATOM      8  C   UNL     1      -8.026  -2.686 129.388  0.00  0.00    +0.000 A 
ATOM      9  C   UNL     1      -7.459  -1.549 128.793  0.00  0.00    +0.000 A 
ENDBRANCH   3   4
BRANCH   3  10
ATOM     10  N   UNL     1      -5.708  -0.543 126.009  0.00  0.00    +0.000 N 
ATOM     11  H   UNL     1      -5.163   0.298 125.785  0.00  0.00    +0.000 HD
BRANCH  10  12
ATOM     12  C   UNL     1      -5.734  -1.390 124.865  0.00  0.00    +0.000 A 
ATOM     13  C   UNL     1      -6.452  -1.103 123.708  0.00  0.00    +0.000 A 
ATOM     14  C   UNL     1      -6.311  -1.911 122.546  0.00  0.00    +0.000 A 
ATOM     15  C   UNL     1      -5.370  -2.933 122.487  0.00  0.00    +0.000 A 
ATOM     16  C   UNL     1      -4.810  -3.325 123.672  0.00  0.00    +0.000 A 
ATOM     17  C   UNL     1      -5.176  -2.649 124.848  0.00  0.00    +0.000 A 
ENDBRANCH  10  12
ENDBRANCH   3  10
BRANCH   1  18
ATOM     18  C   UNL     1      -7.234   2.222 125.850  0.00  0.00    +0.000 C 
BRANCH  18  19
ATOM     19  C   UNL     1      -8.160   3.444 126.115  0.00  0.00    +0.000 C 
ATOM     20  O   UNL     1      -8.103   4.161 127.087  0.00  0.00    +0.000 OA
BRANCH  19  21
ATOM     21  O   UNL     1      -9.156   3.677 125.220  0.00  0.00    +0.000 OA
ATOM     22  H   UNL     1     -10.045   3.357 125.448  0.00  0.00    +0.000 HD
ENDBRANCH  19  21
ENDBRANCH  18  19
BRANCH  18  23
ATOM     23  C   UNL     1      -7.070   2.264 124.329  0.00  0.00    +0.000 C 
BRANCH  23  24
ATOM     24  C   UNL     1      -6.042   3.337 123.926  0.00  0.00    +0.000 C 
BRANCH  24  26
ATOM     25  C   UNL     1      -4.984   4.450 121.979  0.00  0.00    +0.000 C 
ATOM     26  C   UNL     1      -6.153   3.606 122.441  0.00  0.00    +0.000 C 
ENDBRANCH  24  26
ENDBRANCH  23  24
ENDBRANCH  18  23
ENDBRANCH   1  18
TORSDOF 9
ENDMDL
MODEL 8
REMARK VINA RESULT:      -6.6      6.746      9.054
REMARK  Name = Bumadizone
REMARK  10 active torsions:
REMARK  status: ('A' for Active; 'I' for Inactive)
REMARK    1  A    between atoms: C_1  and  C_2
REMARK    2  A    between atoms: C_2  and  C_3
REMARK    3  A    between atoms: C_3  and  C_4
REMARK    4  A    between atoms: C_4  and  C_5
REMARK    5  A    between atoms: C_5  and  C_6
REMARK    6  A    between atoms: C_5  and  C_9
REMARK    7  A    between atoms: C_6  and  O_7
REMARK    8  A    between atoms: N_11  and  N_12
REMARK    9  A    between atoms: N_11  and  C_19
REMARK   10  A    between atoms: N_12  and  C_13
REMARK                            x       y       z     vdW  Elec       q    Type
REMARK                         _______ _______ _______ _____ _____    ______ ____
ROOT
ATOM      1  C   UNL     1     -10.889   4.909 130.137  0.00  0.00    +0.000 C 
ATOM      2  O   UNL     1     -11.746   4.021 130.032  0.00  0.00    +0.000 OA
ATOM      3  N   UNL     1      -9.524   4.633 130.498  0.00  0.00    +0.000 N 
ENDROOT
BRANCH   3   4
ATOM      4  C   UNL     1      -9.132   3.225 130.580  0.00  0.00    +0.000 A 
ATOM      5  C   UNL     1      -9.288   2.514 131.778  0.00  0.00    +0.000 A 
ATOM      6  C   UNL     1      -8.919   1.158 131.869  0.00  0.00    +0.000 A 
ATOM      7  C   UNL     1      -8.441   0.476 130.751  0.00  0.00    +0.000 A 
ATOM      8  C   UNL     1      -8.304   1.154 129.547  0.00  0.00    +0.000 A 
ATOM      9  C   UNL     1      -8.641   2.513 129.467  0.00  0.00    +0.000 A 
ENDBRANCH   3   4
BRANCH   3  10
ATOM     10  N   UNL     1      -8.338   5.498 130.096  0.00  0.00    +0.000 N 
ATOM     11  H   UNL     1      -8.130   5.340 129.104  0.00  0.00    +0.000 HD
BRANCH  10  12
ATOM     12  C   UNL     1      -7.113   5.529 130.821  0.00  0.00    +0.000 A 
ATOM     13  C   UNL     1      -6.948   6.198 132.031  0.00  0.00    +0.000 A 
ATOM     14  C   UNL     1      -5.748   6.059 132.780  0.00  0.00    +0.000 A 
ATOM     15  C   UNL     1      -4.754   5.166 132.394  0.00  0.00    +0.000 A 
ATOM     16  C   UNL     1      -4.838   4.661 131.125  0.00  0.00    +0.000 A 
ATOM     17  C   UNL     1      -5.930   5.030 130.323  0.00  0.00    +0.000 A 
ENDBRANCH  10  12
ENDBRANCH   3  10
BRANCH   1  18
ATOM     18  C   UNL     1     -11.385   6.337 130.180  0.00  0.00    +0.000 C 
BRANCH  18  19
ATOM     19  C   UNL     1     -11.986   6.696 131.571  0.00  0.00    +0.000 C 
ATOM     20  O   UNL     1     -13.070   7.199 131.751  0.00  0.00    +0.000 OA
BRANCH  19  21
ATOM     21  O   UNL     1     -11.198   6.494 132.661  0.00  0.00    +0.000 OA
ATOM     22  H   UNL     1     -10.960   5.577 132.875  0.00  0.00    +0.000 HD
ENDBRANCH  19  21
ENDBRANCH  18  19
BRANCH  18  23
ATOM     23  C   UNL     1     -12.554   6.630 129.237  0.00  0.00    +0.000 C 
BRANCH  23  24
ATOM     24  C   UNL     1     -12.365   7.996 128.551  0.00  0.00    +0.000 C 
BRANCH  24  26
ATOM     25  C   UNL     1     -10.926   7.523 126.587  0.00  0.00    +0.000 C 
ATOM     26  C   UNL     1     -10.962   8.087 127.992  0.00  0.00    +0.000 C 
ENDBRANCH  24  26
ENDBRANCH  23  24
ENDBRANCH  18  23
ENDBRANCH   1  18
TORSDOF 9
ENDMDL
MODEL 9
REMARK VINA RESULT:      -6.4      6.649      9.826
REMARK  Name = Bumadizone
REMARK  10 active torsions:
REMARK  status: ('A' for Active; 'I' for Inactive)
REMARK    1  A    between atoms: C_1  and  C_2
REMARK    2  A    between atoms: C_2  and  C_3
REMARK    3  A    between atoms: C_3  and  C_4
REMARK    4  A    between atoms: C_4  and  C_5
REMARK    5  A    between atoms: C_5  and  C_6
REMARK    6  A    between atoms: C_5  and  C_9
REMARK    7  A    between atoms: C_6  and  O_7
REMARK    8  A    between atoms: N_11  and  N_12
REMARK    9  A    between atoms: N_11  and  C_19
REMARK   10  A    between atoms: N_12  and  C_13
REMARK                            x       y       z     vdW  Elec       q    Type
REMARK                         _______ _______ _______ _____ _____    ______ ____
ROOT
ATOM      1  C   UNL     1      -9.182   4.735 129.973  0.00  0.00    +0.000 C 
ATOM      2  O   UNL     1     -10.193   4.186 129.516  0.00  0.00    +0.000 OA
ATOM      3  N   UNL     1      -9.162   6.115 130.381  0.00  0.00    +0.000 N 
ENDROOT
BRANCH   3   4
ATOM      4  C   UNL     1     -10.445   6.820 130.393  0.00  0.00    +0.000 A 
ATOM      5  C   UNL     1     -11.364   6.604 131.430  0.00  0.00    +0.000 A 
ATOM      6  C   UNL     1     -12.599   7.279 131.454  0.00  0.00    +0.000 A 
ATOM      7  C   UNL     1     -12.914   8.222 130.476  0.00  0.00    +0.000 A 
ATOM      8  C   UNL     1     -12.007   8.470 129.454  0.00  0.00    +0.000 A 
ATOM      9  C   UNL     1     -10.791   7.773 129.413  0.00  0.00    +0.000 A 
ENDBRANCH   3   4
BRANCH   3  10
ATOM     10  N   UNL     1      -8.226   6.685 131.438  0.00  0.00    +0.000 N 
ATOM     11  H   UNL     1      -7.408   7.093 130.973  0.00  0.00    +0.000 HD
BRANCH  10  12
ATOM     12  C   UNL     1      -7.788   5.945 132.573  0.00  0.00    +0.000 A 
ATOM     13  C   UNL     1      -8.638   5.505 133.583  0.00  0.00    +0.000 A 
ATOM     14  C   UNL     1      -8.163   4.639 134.606  0.00  0.00    +0.000 A 
ATOM     15  C   UNL     1      -6.877   4.111 134.566  0.00  0.00    +0.000 A 
ATOM     16  C   UNL     1      -6.000   4.688 133.688  0.00  0.00    +0.000 A 
ATOM     17  C   UNL     1      -6.459   5.726 132.861  0.00  0.00    +0.000 A 
ENDBRANCH  10  12
ENDBRANCH   3  10
BRANCH   1  18
ATOM     18  C   UNL     1      -7.869   4.002 129.803  0.00  0.00    +0.000 C 
BRANCH  18  19
ATOM     19  C   UNL     1      -7.377   4.040 128.326  0.00  0.00    +0.000 C 
ATOM     20  O   UNL     1      -6.366   4.582 127.945  0.00  0.00    +0.000 OA
BRANCH  19  21
ATOM     21  O   UNL     1      -8.184   3.483 127.386  0.00  0.00    +0.000 OA
ATOM     22  H   UNL     1      -8.363   4.005 126.586  0.00  0.00    +0.000 HD
ENDBRANCH  19  21
ENDBRANCH  18  19
BRANCH  18  23
ATOM     23  C   UNL     1      -7.943   2.500 130.082  0.00  0.00    +0.000 C 
BRANCH  23  24
ATOM     24  C   UNL     1      -8.139   2.239 131.587  0.00  0.00    +0.000 C 
BRANCH  24  26
ATOM     25  C   UNL     1      -6.510   0.461 131.008  0.00  0.00    +0.000 C 
ATOM     26  C   UNL     1      -7.000   1.387 132.101  0.00  0.00    +0.000 C 
ENDBRANCH  24  26
ENDBRANCH  23  24
ENDBRANCH  18  23
ENDBRANCH   1  18
TORSDOF 9
ENDMDL
