MODEL 1
REMARK VINA RESULT:      -7.0      0.000      0.000
REMARK  Name = Bumetanide
REMARK  11 active torsions:
REMARK  status: ('A' for Active; 'I' for Inactive)
REMARK    1  A    between atoms: C_1  and  C_2
REMARK    2  A    between atoms: C_2  and  C_3
REMARK    3  A    between atoms: C_3  and  C_4
REMARK    4  A    between atoms: C_4  and  N_5
REMARK    5  A    between atoms: N_5  and  C_6
REMARK    6  A    between atoms: C_7  and  O_8
REMARK    7  A    between atoms: O_8  and  C_9
REMARK    8  A    between atoms: C_15  and  S_22
REMARK    9  A    between atoms: C_17  and  C_19
REMARK   10  A    between atoms: C_19  and  O_20
REMARK   11  A    between atoms: S_22  and  N_23
REMARK                            x       y       z     vdW  Elec       q    Type
REMARK                         _______ _______ _______ _____ _____    ______ ____
ROOT
ATOM      1  C   UNL     1      -5.921   0.100 125.432  0.00  0.00    +0.000 A 
ATOM      2  C   UNL     1      -7.079   0.761 124.957  0.00  0.00    +0.000 A 
ATOM      3  C   UNL     1      -7.317   2.083 125.404  0.00  0.00    +0.000 A 
ATOM      4  C   UNL     1      -6.541   2.675 126.419  0.00  0.00    +0.000 A 
ATOM      5  C   UNL     1      -5.460   1.985 126.954  0.00  0.00    +0.000 A 
ATOM      6  C   UNL     1      -5.183   0.703 126.467  0.00  0.00    +0.000 A 
ENDROOT
BRANCH   3   7
ATOM      7  S   UNL     1      -8.467   3.170 124.578  0.00  0.00    +0.000 S 
ATOM      8  O   UNL     1      -8.692   4.330 125.409  0.00  0.00    +0.000 OA
ATOM      9  O   UNL     1      -8.046   3.282 123.200  0.00  0.00    +0.000 OA
BRANCH   7  10
ATOM     10  N   UNL     1      -9.862   2.256 124.538  0.00  0.00    +0.000 NA
ATOM     11  H   UNL     1     -10.109   1.881 123.628  0.00  0.00    +0.000 HD
ATOM     12  H   UNL     1     -10.599   2.540 125.180  0.00  0.00    +0.000 HD
ENDBRANCH   7  10
ENDBRANCH   3   7
BRANCH   1  13
ATOM     13  N   UNL     1      -5.393  -1.075 124.878  0.00  0.00    +0.000 N 
ATOM     14  H   UNL     1      -5.479  -1.155 123.869  0.00  0.00    +0.000 HD
BRANCH  13  15
ATOM     15  C   UNL     1      -5.558  -2.338 125.601  0.00  0.00    +0.000 C 
BRANCH  15  16
ATOM     16  C   UNL     1      -5.792  -3.475 124.606  0.00  0.00    +0.000 C 
BRANCH  16  18
ATOM     17  C   UNL     1      -4.122  -4.882 123.388  0.00  0.00    +0.000 C 
ATOM     18  C   UNL     1      -4.720  -3.493 123.525  0.00  0.00    +0.000 C 
ENDBRANCH  16  18
ENDBRANCH  15  16
ENDBRANCH  13  15
ENDBRANCH   1  13
BRANCH   5  19
ATOM     19  C   UNL     1      -4.488   2.552 127.935  0.00  0.00    +0.000 C 
ATOM     20  O   UNL     1      -4.862   3.198 128.903  0.00  0.00    +0.000 OA
BRANCH  19  21
ATOM     21  O   UNL     1      -3.183   2.296 127.725  0.00  0.00    +0.000 OA
ATOM     22  H   UNL     1      -2.749   1.586 128.223  0.00  0.00    +0.000 HD
ENDBRANCH  19  21
ENDBRANCH   5  19
BRANCH   2  23
ATOM     23  O   UNL     1      -7.981   0.237 124.047  0.00  0.00    +0.000 OA
BRANCH  23  24
ATOM     24  C   UNL     1      -8.571  -0.996 124.240  0.00  0.00    +0.000 A 
ATOM     25  C   UNL     1      -8.708  -1.789 123.099  0.00  0.00    +0.000 A 
ATOM     26  C   UNL     1      -9.228  -3.082 123.191  0.00  0.00    +0.000 A 
ATOM     27  C   UNL     1      -9.550  -3.620 124.436  0.00  0.00    +0.000 A 
ATOM     28  C   UNL     1      -9.446  -2.825 125.577  0.00  0.00    +0.000 A 
ATOM     29  C   UNL     1      -8.996  -1.500 125.476  0.00  0.00    +0.000 A 
ENDBRANCH  23  24
ENDBRANCH   2  23
TORSDOF 10
ENDMDL
MODEL 2
REMARK VINA RESULT:      -6.6      3.108      5.206
REMARK  Name = Bumetanide
REMARK  11 active torsions:
REMARK  status: ('A' for Active; 'I' for Inactive)
REMARK    1  A    between atoms: C_1  and  C_2
REMARK    2  A    between atoms: C_2  and  C_3
REMARK    3  A    between atoms: C_3  and  C_4
REMARK    4  A    between atoms: C_4  and  N_5
REMARK    5  A    between atoms: N_5  and  C_6
REMARK    6  A    between atoms: C_7  and  O_8
REMARK    7  A    between atoms: O_8  and  C_9
REMARK    8  A    between atoms: C_15  and  S_22
REMARK    9  A    between atoms: C_17  and  C_19
REMARK   10  A    between atoms: C_19  and  O_20
REMARK   11  A    between atoms: S_22  and  N_23
REMARK                            x       y       z     vdW  Elec       q    Type
REMARK                         _______ _______ _______ _____ _____    ______ ____
ROOT
ATOM      1  C   UNL     1      -6.271   0.637 126.044  0.00  0.00    +0.000 A 
ATOM      2  C   UNL     1      -6.986  -0.554 125.769  0.00  0.00    +0.000 A 
ATOM      3  C   UNL     1      -8.164  -0.453 124.991  0.00  0.00    +0.000 A 
ATOM      4  C   UNL     1      -8.721   0.794 124.643  0.00  0.00    +0.000 A 
ATOM      5  C   UNL     1      -8.066   1.966 124.999  0.00  0.00    +0.000 A 
ATOM      6  C   UNL     1      -6.866   1.868 125.711  0.00  0.00    +0.000 A 
ENDROOT
BRANCH   3   7
ATOM      7  S   UNL     1      -8.913  -1.875 124.216  0.00  0.00    +0.000 S 
ATOM      8  O   UNL     1      -9.616  -2.639 125.222  0.00  0.00    +0.000 OA
ATOM      9  O   UNL     1      -9.559  -1.421 123.006  0.00  0.00    +0.000 OA
BRANCH   7  10
ATOM     10  N   UNL     1      -7.586  -2.749 123.705  0.00  0.00    +0.000 NA
ATOM     11  H   UNL     1      -7.686  -3.758 123.755  0.00  0.00    +0.000 HD
ATOM     12  H   UNL     1      -6.679  -2.325 123.885  0.00  0.00    +0.000 HD
ENDBRANCH   7  10
ENDBRANCH   3   7
BRANCH   1  13
ATOM     13  N   UNL     1      -4.960   0.680 126.540  0.00  0.00    +0.000 N 
ATOM     14  H   UNL     1      -4.814   0.191 127.419  0.00  0.00    +0.000 HD
BRANCH  13  15
ATOM     15  C   UNL     1      -4.187   1.916 126.400  0.00  0.00    +0.000 C 
BRANCH  15  16
ATOM     16  C   UNL     1      -3.887   2.496 127.782  0.00  0.00    +0.000 C 
BRANCH  16  18
ATOM     17  C   UNL     1      -1.750   3.041 126.603  0.00  0.00    +0.000 C 
ATOM     18  C   UNL     1      -2.678   3.421 127.743  0.00  0.00    +0.000 C 
ENDBRANCH  16  18
ENDBRANCH  15  16
ENDBRANCH  13  15
ENDBRANCH   1  13
BRANCH   5  19
ATOM     19  C   UNL     1      -8.484   3.336 124.579  0.00  0.00    +0.000 C 
ATOM     20  O   UNL     1      -8.870   4.163 125.391  0.00  0.00    +0.000 OA
BRANCH  19  21
ATOM     21  O   UNL     1      -8.387   3.633 123.269  0.00  0.00    +0.000 OA
ATOM     22  H   UNL     1      -8.470   4.555 122.979  0.00  0.00    +0.000 HD
ENDBRANCH  19  21
ENDBRANCH   5  19
BRANCH   2  23
ATOM     23  O   UNL     1      -6.600  -1.825 126.158  0.00  0.00    +0.000 OA
BRANCH  23  24
ATOM     24  C   UNL     1      -6.651  -2.225 127.478  0.00  0.00    +0.000 A 
ATOM     25  C   UNL     1      -7.927  -2.468 127.989  0.00  0.00    +0.000 A 
ATOM     26  C   UNL     1      -8.091  -2.942 129.293  0.00  0.00    +0.000 A 
ATOM     27  C   UNL     1      -6.977  -3.245 130.073  0.00  0.00    +0.000 A 
ATOM     28  C   UNL     1      -5.699  -2.977 129.582  0.00  0.00    +0.000 A 
ATOM     29  C   UNL     1      -5.537  -2.428 128.301  0.00  0.00    +0.000 A 
ENDBRANCH  23  24
ENDBRANCH   2  23
TORSDOF 10
ENDMDL
MODEL 3
REMARK VINA RESULT:      -6.6      2.888      4.358
REMARK  Name = Bumetanide
REMARK  11 active torsions:
REMARK  status: ('A' for Active; 'I' for Inactive)
REMARK    1  A    between atoms: C_1  and  C_2
REMARK    2  A    between atoms: C_2  and  C_3
REMARK    3  A    between atoms: C_3  and  C_4
REMARK    4  A    between atoms: C_4  and  N_5
REMARK    5  A    between atoms: N_5  and  C_6
REMARK    6  A    between atoms: C_7  and  O_8
REMARK    7  A    between atoms: O_8  and  C_9
REMARK    8  A    between atoms: C_15  and  S_22
REMARK    9  A    between atoms: C_17  and  C_19
REMARK   10  A    between atoms: C_19  and  O_20
REMARK   11  A    between atoms: S_22  and  N_23
REMARK                            x       y       z     vdW  Elec       q    Type
REMARK                         _______ _______ _______ _____ _____    ______ ____
ROOT
ATOM      1  C   UNL     1      -7.129   0.649 124.253  0.00  0.00    +0.000 A 
ATOM      2  C   UNL     1      -7.557   1.983 124.456  0.00  0.00    +0.000 A 
ATOM      3  C   UNL     1      -7.197   2.615 125.671  0.00  0.00    +0.000 A 
ATOM      4  C   UNL     1      -6.590   1.906 126.727  0.00  0.00    +0.000 A 
ATOM      5  C   UNL     1      -6.259   0.568 126.559  0.00  0.00    +0.000 A 
ATOM      6  C   UNL     1      -6.553  -0.042 125.334  0.00  0.00    +0.000 A 
ENDROOT
BRANCH   3   7
ATOM      7  S   UNL     1      -7.287   4.385 125.881  0.00  0.00    +0.000 S 
ATOM      8  O   UNL     1      -7.167   4.696 127.287  0.00  0.00    +0.000 OA
ATOM      9  O   UNL     1      -6.426   4.985 124.886  0.00  0.00    +0.000 OA
BRANCH   7  10
ATOM     10  N   UNL     1      -8.841   4.730 125.381  0.00  0.00    +0.000 NA
ATOM     11  H   UNL     1      -9.032   4.549 124.401  0.00  0.00    +0.000 HD
ATOM     12  H   UNL     1      -9.293   5.516 125.843  0.00  0.00    +0.000 HD
ENDBRANCH   7  10
ENDBRANCH   3   7
BRANCH   1  13
ATOM     13  N   UNL     1      -7.148  -0.012 123.017  0.00  0.00    +0.000 N 
ATOM     14  H   UNL     1      -7.642   0.475 122.274  0.00  0.00    +0.000 HD
BRANCH  13  15
ATOM     15  C   UNL     1      -7.301  -1.468 122.991  0.00  0.00    +0.000 C 
BRANCH  15  16
ATOM     16  C   UNL     1      -8.784  -1.830 122.915  0.00  0.00    +0.000 C 
BRANCH  16  18
ATOM     17  C   UNL     1      -7.870  -3.587 124.441  0.00  0.00    +0.000 C 
ATOM     18  C   UNL     1      -9.131  -2.947 123.890  0.00  0.00    +0.000 C 
ENDBRANCH  16  18
ENDBRANCH  15  16
ENDBRANCH  13  15
ENDBRANCH   1  13
BRANCH   5  19
ATOM     19  C   UNL     1      -5.498  -0.251 127.549  0.00  0.00    +0.000 C 
ATOM     20  O   UNL     1      -5.285   0.153 128.682  0.00  0.00    +0.000 OA
BRANCH  19  21
ATOM     21  O   UNL     1      -5.084  -1.469 127.149  0.00  0.00    +0.000 OA
ATOM     22  H   UNL     1      -5.681  -2.229 127.235  0.00  0.00    +0.000 HD
ENDBRANCH  19  21
ENDBRANCH   5  19
BRANCH   2  23
ATOM     23  O   UNL     1      -8.261   2.745 123.540  0.00  0.00    +0.000 OA
BRANCH  23  24
ATOM     24  C   UNL     1      -7.696   3.148 122.347  0.00  0.00    +0.000 A 
ATOM     25  C   UNL     1      -8.594   3.495 121.336  0.00  0.00    +0.000 A 
ATOM     26  C   UNL     1      -8.132   3.982 120.111  0.00  0.00    +0.000 A 
ATOM     27  C   UNL     1      -6.769   4.193 119.912  0.00  0.00    +0.000 A 
ATOM     28  C   UNL     1      -5.862   3.821 120.904  0.00  0.00    +0.000 A 
ATOM     29  C   UNL     1      -6.321   3.260 122.105  0.00  0.00    +0.000 A 
ENDBRANCH  23  24
ENDBRANCH   2  23
TORSDOF 10
ENDMDL
MODEL 4
REMARK VINA RESULT:      -6.5      3.107      5.153
REMARK  Name = Bumetanide
REMARK  11 active torsions:
REMARK  status: ('A' for Active; 'I' for Inactive)
REMARK    1  A    between atoms: C_1  and  C_2
REMARK    2  A    between atoms: C_2  and  C_3
REMARK    3  A    between atoms: C_3  and  C_4
REMARK    4  A    between atoms: C_4  and  N_5
REMARK    5  A    between atoms: N_5  and  C_6
REMARK    6  A    between atoms: C_7  and  O_8
REMARK    7  A    between atoms: O_8  and  C_9
REMARK    8  A    between atoms: C_15  and  S_22
REMARK    9  A    between atoms: C_17  and  C_19
REMARK   10  A    between atoms: C_19  and  O_20
REMARK   11  A    between atoms: S_22  and  N_23
REMARK                            x       y       z     vdW  Elec       q    Type
REMARK                         _______ _______ _______ _____ _____    ______ ____
ROOT
ATOM      1  C   UNL     1      -6.362   0.528 126.110  0.00  0.00    +0.000 A 
ATOM      2  C   UNL     1      -7.077  -0.647 125.776  0.00  0.00    +0.000 A 
ATOM      3  C   UNL     1      -8.217  -0.515 124.947  0.00  0.00    +0.000 A 
ATOM      4  C   UNL     1      -8.742   0.746 124.600  0.00  0.00    +0.000 A 
ATOM      5  C   UNL     1      -8.091   1.902 125.011  0.00  0.00    +0.000 A 
ATOM      6  C   UNL     1      -6.926   1.773 125.776  0.00  0.00    +0.000 A 
ENDROOT
BRANCH   3   7
ATOM      7  S   UNL     1      -8.945  -1.911 124.108  0.00  0.00    +0.000 S 
ATOM      8  O   UNL     1      -9.686  -2.698 125.067  0.00  0.00    +0.000 OA
ATOM      9  O   UNL     1      -9.547  -1.421 122.890  0.00  0.00    +0.000 OA
BRANCH   7  10
ATOM     10  N   UNL     1      -7.606  -2.778 123.618  0.00  0.00    +0.000 NA
ATOM     11  H   UNL     1      -7.755  -3.395 122.826  0.00  0.00    +0.000 HD
ATOM     12  H   UNL     1      -6.961  -3.054 124.356  0.00  0.00    +0.000 HD
ENDBRANCH   7  10
ENDBRANCH   3   7
BRANCH   1  13
ATOM     13  N   UNL     1      -5.076   0.544 126.667  0.00  0.00    +0.000 N 
ATOM     14  H   UNL     1      -4.653  -0.369 126.806  0.00  0.00    +0.000 HD
BRANCH  13  15
ATOM     15  C   UNL     1      -4.768   1.519 127.717  0.00  0.00    +0.000 C 
BRANCH  15  16
ATOM     16  C   UNL     1      -5.146   0.943 129.082  0.00  0.00    +0.000 C 
BRANCH  16  18
ATOM     17  C   UNL     1      -7.566   0.631 129.628  0.00  0.00    +0.000 C 
ATOM     18  C   UNL     1      -6.401   1.605 129.633  0.00  0.00    +0.000 C 
ENDBRANCH  16  18
ENDBRANCH  15  16
ENDBRANCH  13  15
ENDBRANCH   1  13
BRANCH   5  19
ATOM     19  C   UNL     1      -8.472   3.286 124.600  0.00  0.00    +0.000 C 
ATOM     20  O   UNL     1      -8.823   4.120 125.421  0.00  0.00    +0.000 OA
BRANCH  19  21
ATOM     21  O   UNL     1      -8.382   3.584 123.290  0.00  0.00    +0.000 OA
ATOM     22  H   UNL     1      -9.122   3.373 122.700  0.00  0.00    +0.000 HD
ENDBRANCH  19  21
ENDBRANCH   5  19
BRANCH   2  23
ATOM     23  O   UNL     1      -6.726  -1.931 126.156  0.00  0.00    +0.000 OA
BRANCH  23  24
ATOM     24  C   UNL     1      -6.792  -2.340 127.472  0.00  0.00    +0.000 A 
ATOM     25  C   UNL     1      -8.068  -2.641 127.951  0.00  0.00    +0.000 A 
ATOM     26  C   UNL     1      -8.244  -3.130 129.248  0.00  0.00    +0.000 A 
ATOM     27  C   UNL     1      -7.137  -3.390 130.053  0.00  0.00    +0.000 A 
ATOM     28  C   UNL     1      -5.861  -3.063 129.595  0.00  0.00    +0.000 A 
ATOM     29  C   UNL     1      -5.690  -2.500 128.321  0.00  0.00    +0.000 A 
ENDBRANCH  23  24
ENDBRANCH   2  23
TORSDOF 10
ENDMDL
MODEL 5
REMARK VINA RESULT:      -6.4      2.656      4.515
REMARK  Name = Bumetanide
REMARK  11 active torsions:
REMARK  status: ('A' for Active; 'I' for Inactive)
REMARK    1  A    between atoms: C_1  and  C_2
REMARK    2  A    between atoms: C_2  and  C_3
REMARK    3  A    between atoms: C_3  and  C_4
REMARK    4  A    between atoms: C_4  and  N_5
REMARK    5  A    between atoms: N_5  and  C_6
REMARK    6  A    between atoms: C_7  and  O_8
REMARK    7  A    between atoms: O_8  and  C_9
REMARK    8  A    between atoms: C_15  and  S_22
REMARK    9  A    between atoms: C_17  and  C_19
REMARK   10  A    between atoms: C_19  and  O_20
REMARK   11  A    between atoms: S_22  and  N_23
REMARK                            x       y       z     vdW  Elec       q    Type
REMARK                         _______ _______ _______ _____ _____    ______ ____
ROOT
ATOM      1  C   UNL     1      -7.225   2.099 123.576  0.00  0.00    +0.000 A 
ATOM      2  C   UNL     1      -6.829   2.441 124.891  0.00  0.00    +0.000 A 
ATOM      3  C   UNL     1      -5.986   3.566 125.057  0.00  0.00    +0.000 A 
ATOM      4  C   UNL     1      -5.406   4.229 123.957  0.00  0.00    +0.000 A 
ATOM      5  C   UNL     1      -5.721   3.828 122.665  0.00  0.00    +0.000 A 
ATOM      6  C   UNL     1      -6.607   2.757 122.498  0.00  0.00    +0.000 A 
ENDROOT
BRANCH   3   7
ATOM      7  S   UNL     1      -5.764   4.359 126.640  0.00  0.00    +0.000 S 
ATOM      8  O   UNL     1      -5.031   3.468 127.510  0.00  0.00    +0.000 OA
ATOM      9  O   UNL     1      -5.332   5.715 126.391  0.00  0.00    +0.000 OA
BRANCH   7  10
ATOM     10  N   UNL     1      -7.330   4.493 127.200  0.00  0.00    +0.000 NA
ATOM     11  H   UNL     1      -7.499   5.268 127.834  0.00  0.00    +0.000 HD
ATOM     12  H   UNL     1      -7.831   3.617 127.334  0.00  0.00    +0.000 HD
ENDBRANCH   7  10
ENDBRANCH   3   7
BRANCH   1  13
ATOM     13  N   UNL     1      -8.265   1.212 123.264  0.00  0.00    +0.000 N 
ATOM     14  H   UNL     1      -9.102   1.310 123.833  0.00  0.00    +0.000 HD
BRANCH  13  15
ATOM     15  C   UNL     1      -7.939  -0.169 122.902  0.00  0.00    +0.000 C 
BRANCH  15  16
ATOM     16  C   UNL     1      -9.051  -1.104 123.377  0.00  0.00    +0.000 C 
BRANCH  16  18
ATOM     17  C   UNL     1      -9.382  -3.459 124.149  0.00  0.00    +0.000 C 
ATOM     18  C   UNL     1      -8.686  -2.563 123.140  0.00  0.00    +0.000 C 
ENDBRANCH  16  18
ENDBRANCH  15  16
ENDBRANCH  13  15
ENDBRANCH   1  13
BRANCH   5  19
ATOM     19  C   UNL     1      -5.277   4.529 121.424  0.00  0.00    +0.000 C 
ATOM     20  O   UNL     1      -4.489   5.462 121.465  0.00  0.00    +0.000 OA
BRANCH  19  21
ATOM     21  O   UNL     1      -5.758   4.069 120.253  0.00  0.00    +0.000 OA
ATOM     22  H   UNL     1      -5.840   3.113 120.112  0.00  0.00    +0.000 HD
ENDBRANCH  19  21
ENDBRANCH   5  19
BRANCH   2  23
ATOM     23  O   UNL     1      -7.240   1.793 126.044  0.00  0.00    +0.000 OA
BRANCH  23  24
ATOM     24  C   UNL     1      -6.959   0.459 126.263  0.00  0.00    +0.000 A 
ATOM     25  C   UNL     1      -7.987  -0.291 126.836  0.00  0.00    +0.000 A 
ATOM     26  C   UNL     1      -7.835  -1.665 127.039  0.00  0.00    +0.000 A 
ATOM     27  C   UNL     1      -6.681  -2.313 126.605  0.00  0.00    +0.000 A 
ATOM     28  C   UNL     1      -5.636  -1.567 126.059  0.00  0.00    +0.000 A 
ATOM     29  C   UNL     1      -5.757  -0.176 125.926  0.00  0.00    +0.000 A 
ENDBRANCH  23  24
ENDBRANCH   2  23
TORSDOF 10
ENDMDL
MODEL 6
REMARK VINA RESULT:      -6.3      2.092      2.959
REMARK  Name = Bumetanide
REMARK  11 active torsions:
REMARK  status: ('A' for Active; 'I' for Inactive)
REMARK    1  A    between atoms: C_1  and  C_2
REMARK    2  A    between atoms: C_2  and  C_3
REMARK    3  A    between atoms: C_3  and  C_4
REMARK    4  A    between atoms: C_4  and  N_5
REMARK    5  A    between atoms: N_5  and  C_6
REMARK    6  A    between atoms: C_7  and  O_8
REMARK    7  A    between atoms: O_8  and  C_9
REMARK    8  A    between atoms: C_15  and  S_22
REMARK    9  A    between atoms: C_17  and  C_19
REMARK   10  A    between atoms: C_19  and  O_20
REMARK   11  A    between atoms: S_22  and  N_23
REMARK                            x       y       z     vdW  Elec       q    Type
REMARK                         _______ _______ _______ _____ _____    ______ ____
ROOT
ATOM      1  C   UNL     1      -5.439   0.914 126.460  0.00  0.00    +0.000 A 
ATOM      2  C   UNL     1      -6.235   1.622 125.528  0.00  0.00    +0.000 A 
ATOM      3  C   UNL     1      -5.733   2.846 125.024  0.00  0.00    +0.000 A 
ATOM      4  C   UNL     1      -4.569   3.444 125.547  0.00  0.00    +0.000 A 
ATOM      5  C   UNL     1      -3.840   2.791 126.532  0.00  0.00    +0.000 A 
ATOM      6  C   UNL     1      -4.299   1.549 126.986  0.00  0.00    +0.000 A 
ENDROOT
BRANCH   3   7
ATOM      7  S   UNL     1      -6.402   3.613 123.558  0.00  0.00    +0.000 S 
ATOM      8  O   UNL     1      -5.722   4.867 123.334  0.00  0.00    +0.000 OA
ATOM      9  O   UNL     1      -6.490   2.595 122.536  0.00  0.00    +0.000 OA
BRANCH   7  10
ATOM     10  N   UNL     1      -7.980   3.926 124.003  0.00  0.00    +0.000 NA
ATOM     11  H   UNL     1      -8.563   3.106 124.138  0.00  0.00    +0.000 HD
ATOM     12  H   UNL     1      -8.390   4.775 123.620  0.00  0.00    +0.000 HD
ENDBRANCH   7  10
ENDBRANCH   3   7
BRANCH   1  13
ATOM     13  N   UNL     1      -5.648  -0.422 126.830  0.00  0.00    +0.000 N 
ATOM     14  H   UNL     1      -6.083  -1.004 126.121  0.00  0.00    +0.000 HD
BRANCH  13  15
ATOM     15  C   UNL     1      -6.067  -0.723 128.201  0.00  0.00    +0.000 C 
BRANCH  15  16
ATOM     16  C   UNL     1      -7.509  -1.232 128.199  0.00  0.00    +0.000 C 
BRANCH  16  18
ATOM     17  C   UNL     1      -8.581  -3.488 128.079  0.00  0.00    +0.000 C 
ATOM     18  C   UNL     1      -7.611  -2.607 128.846  0.00  0.00    +0.000 C 
ENDBRANCH  16  18
ENDBRANCH  15  16
ENDBRANCH  13  15
ENDBRANCH   1  13
BRANCH   5  19
ATOM     19  C   UNL     1      -2.528   3.256 127.070  0.00  0.00    +0.000 C 
ATOM     20  O   UNL     1      -2.429   4.301 127.695  0.00  0.00    +0.000 OA
BRANCH  19  21
ATOM     21  O   UNL     1      -1.462   2.459 126.864  0.00  0.00    +0.000 OA
ATOM     22  H   UNL     1      -1.075   1.975 127.610  0.00  0.00    +0.000 HD
ENDBRANCH  19  21
ENDBRANCH   5  19
BRANCH   2  23
ATOM     23  O   UNL     1      -7.453   1.193 125.028  0.00  0.00    +0.000 OA
BRANCH  23  24
ATOM     24  C   UNL     1      -7.600  -0.054 124.454  0.00  0.00    +0.000 A 
ATOM     25  C   UNL     1      -8.671  -0.816 124.924  0.00  0.00    +0.000 A 
ATOM     26  C   UNL     1      -8.954  -2.064 124.366  0.00  0.00    +0.000 A 
ATOM     27  C   UNL     1      -8.211  -2.531 123.284  0.00  0.00    +0.000 A 
ATOM     28  C   UNL     1      -7.120  -1.792 122.828  0.00  0.00    +0.000 A 
ATOM     29  C   UNL     1      -6.788  -0.573 123.439  0.00  0.00    +0.000 A 
ENDBRANCH  23  24
ENDBRANCH   2  23
TORSDOF 10
ENDMDL
MODEL 7
REMARK VINA RESULT:      -6.2      2.138      5.768
REMARK  Name = Bumetanide
REMARK  11 active torsions:
REMARK  status: ('A' for Active; 'I' for Inactive)
REMARK    1  A    between atoms: C_1  and  C_2
REMARK    2  A    between atoms: C_2  and  C_3
REMARK    3  A    between atoms: C_3  and  C_4
REMARK    4  A    between atoms: C_4  and  N_5
REMARK    5  A    between atoms: N_5  and  C_6
REMARK    6  A    between atoms: C_7  and  O_8
REMARK    7  A    between atoms: O_8  and  C_9
REMARK    8  A    between atoms: C_15  and  S_22
REMARK    9  A    between atoms: C_17  and  C_19
REMARK   10  A    between atoms: C_19  and  O_20
REMARK   11  A    between atoms: S_22  and  N_23
REMARK                            x       y       z     vdW  Elec       q    Type
REMARK                         _______ _______ _______ _____ _____    ______ ____
ROOT
ATOM      1  C   UNL     1      -6.229  -0.004 126.092  0.00  0.00    +0.000 A 
ATOM      2  C   UNL     1      -6.427   1.375 125.837  0.00  0.00    +0.000 A 
ATOM      3  C   UNL     1      -6.917   1.748 124.563  0.00  0.00    +0.000 A 
ATOM      4  C   UNL     1      -7.042   0.817 123.512  0.00  0.00    +0.000 A 
ATOM      5  C   UNL     1      -6.753  -0.522 123.739  0.00  0.00    +0.000 A 
ATOM      6  C   UNL     1      -6.331  -0.905 125.017  0.00  0.00    +0.000 A 
ENDROOT
BRANCH   3   7
ATOM      7  S   UNL     1      -7.611   3.362 124.250  0.00  0.00    +0.000 S 
ATOM      8  O   UNL     1      -6.536   4.323 124.154  0.00  0.00    +0.000 OA
ATOM      9  O   UNL     1      -8.604   3.214 123.210  0.00  0.00    +0.000 OA
BRANCH   7  10
ATOM     10  N   UNL     1      -8.478   3.659 125.645  0.00  0.00    +0.000 NA
ATOM     11  H   UNL     1      -7.919   3.883 126.462  0.00  0.00    +0.000 HD
ATOM     12  H   UNL     1      -9.339   3.128 125.755  0.00  0.00    +0.000 HD
ENDBRANCH   7  10
ENDBRANCH   3   7
BRANCH   1  13
ATOM     13  N   UNL     1      -6.031  -0.556 127.366  0.00  0.00    +0.000 N 
ATOM     14  H   UNL     1      -5.216  -0.211 127.865  0.00  0.00    +0.000 HD
BRANCH  13  15
ATOM     15  C   UNL     1      -6.311  -1.978 127.576  0.00  0.00    +0.000 C 
BRANCH  15  16
ATOM     16  C   UNL     1      -7.666  -2.140 128.265  0.00  0.00    +0.000 C 
BRANCH  16  18
ATOM     17  C   UNL     1      -9.092  -2.950 126.378  0.00  0.00    +0.000 C 
ATOM     18  C   UNL     1      -8.438  -3.323 127.696  0.00  0.00    +0.000 C 
ENDBRANCH  16  18
ENDBRANCH  15  16
ENDBRANCH  13  15
ENDBRANCH   1  13
BRANCH   5  19
ATOM     19  C   UNL     1      -6.970  -1.619 122.750  0.00  0.00    +0.000 C 
ATOM     20  O   UNL     1      -6.038  -2.121 122.139  0.00  0.00    +0.000 OA
BRANCH  19  21
ATOM     21  O   UNL     1      -8.233  -2.054 122.582  0.00  0.00    +0.000 OA
ATOM     22  H   UNL     1      -8.590  -2.729 123.180  0.00  0.00    +0.000 HD
ENDBRANCH  19  21
ENDBRANCH   5  19
BRANCH   2  23
ATOM     23  O   UNL     1      -6.227   2.394 126.753  0.00  0.00    +0.000 OA
BRANCH  23  24
ATOM     24  C   UNL     1      -5.003   3.019 126.884  0.00  0.00    +0.000 A 
ATOM     25  C   UNL     1      -5.033   4.300 127.436  0.00  0.00    +0.000 A 
ATOM     26  C   UNL     1      -3.846   4.997 127.678  0.00  0.00    +0.000 A 
ATOM     27  C   UNL     1      -2.616   4.389 127.435  0.00  0.00    +0.000 A 
ATOM     28  C   UNL     1      -2.577   3.121 126.856  0.00  0.00    +0.000 A 
ATOM     29  C   UNL     1      -3.770   2.452 126.541  0.00  0.00    +0.000 A 
ENDBRANCH  23  24
ENDBRANCH   2  23
TORSDOF 10
ENDMDL
MODEL 8
REMARK VINA RESULT:      -6.2      3.730      5.451
REMARK  Name = Bumetanide
REMARK  11 active torsions:
REMARK  status: ('A' for Active; 'I' for Inactive)
REMARK    1  A    between atoms: C_1  and  C_2
REMARK    2  A    between atoms: C_2  and  C_3
REMARK    3  A    between atoms: C_3  and  C_4
REMARK    4  A    between atoms: C_4  and  N_5
REMARK    5  A    between atoms: N_5  and  C_6
REMARK    6  A    between atoms: C_7  and  O_8
REMARK    7  A    between atoms: O_8  and  C_9
REMARK    8  A    between atoms: C_15  and  S_22
REMARK    9  A    between atoms: C_17  and  C_19
REMARK   10  A    between atoms: C_19  and  O_20
REMARK   11  A    between atoms: S_22  and  N_23
REMARK                            x       y       z     vdW  Elec       q    Type
REMARK                         _______ _______ _______ _____ _____    ______ ____
ROOT
ATOM      1  C   UNL     1      -6.939   3.245 125.112  0.00  0.00    +0.000 A 
ATOM      2  C   UNL     1      -8.158   2.535 124.993  0.00  0.00    +0.000 A 
ATOM      3  C   UNL     1      -8.594   2.180 123.694  0.00  0.00    +0.000 A 
ATOM      4  C   UNL     1      -7.948   2.659 122.537  0.00  0.00    +0.000 A 
ATOM      5  C   UNL     1      -6.804   3.438 122.657  0.00  0.00    +0.000 A 
ATOM      6  C   UNL     1      -6.333   3.735 123.941  0.00  0.00    +0.000 A 
ENDROOT
BRANCH   3   7
ATOM      7  S   UNL     1      -9.850   0.942 123.420  0.00  0.00    +0.000 S 
ATOM      8  O   UNL     1     -10.255   0.985 122.034  0.00  0.00    +0.000 OA
ATOM      9  O   UNL     1      -9.401  -0.278 124.051  0.00  0.00    +0.000 OA
BRANCH   7  10
ATOM     10  N   UNL     1     -11.109   1.489 124.368  0.00  0.00    +0.000 NA
ATOM     11  H   UNL     1     -10.881   1.646 125.345  0.00  0.00    +0.000 HD
ATOM     12  H   UNL     1     -12.035   1.148 124.118  0.00  0.00    +0.000 HD
ENDBRANCH   7  10
ENDBRANCH   3   7
BRANCH   1  13
ATOM     13  N   UNL     1      -6.232   3.416 126.310  0.00  0.00    +0.000 N 
ATOM     14  H   UNL     1      -6.763   3.835 127.069  0.00  0.00    +0.000 HD
BRANCH  13  15
ATOM     15  C   UNL     1      -4.828   3.827 126.255  0.00  0.00    +0.000 C 
BRANCH  15  16
ATOM     16  C   UNL     1      -3.926   2.614 126.493  0.00  0.00    +0.000 C 
BRANCH  16  18
ATOM     17  C   UNL     1      -2.522   4.408 127.524  0.00  0.00    +0.000 C 
ATOM     18  C   UNL     1      -2.512   3.041 126.864  0.00  0.00    +0.000 C 
ENDBRANCH  16  18
ENDBRANCH  15  16
ENDBRANCH  13  15
ENDBRANCH   1  13
BRANCH   5  19
ATOM     19  C   UNL     1      -5.960   3.893 121.513  0.00  0.00    +0.000 C 
ATOM     20  O   UNL     1      -6.106   3.435 120.390  0.00  0.00    +0.000 OA
BRANCH  19  21
ATOM     21  O   UNL     1      -5.050   4.854 121.765  0.00  0.00    +0.000 OA
ATOM     22  H   UNL     1      -4.625   5.315 121.025  0.00  0.00    +0.000 HD
ENDBRANCH  19  21
ENDBRANCH   5  19
BRANCH   2  23
ATOM     23  O   UNL     1      -8.943   2.111 126.053  0.00  0.00    +0.000 OA
BRANCH  23  24
ATOM     24  C   UNL     1      -8.427   1.333 127.070  0.00  0.00    +0.000 A 
ATOM     25  C   UNL     1      -8.601   1.831 128.362  0.00  0.00    +0.000 A 
ATOM     26  C   UNL     1      -8.179   1.093 129.471  0.00  0.00    +0.000 A 
ATOM     27  C   UNL     1      -7.643  -0.182 129.299  0.00  0.00    +0.000 A 
ATOM     28  C   UNL     1      -7.437  -0.674 128.011  0.00  0.00    +0.000 A 
ATOM     29  C   UNL     1      -7.790   0.099 126.894  0.00  0.00    +0.000 A 
ENDBRANCH  23  24
ENDBRANCH   2  23
TORSDOF 10
ENDMDL
MODEL 9
REMARK VINA RESULT:      -6.2      3.172      4.382
REMARK  Name = Bumetanide
REMARK  11 active torsions:
REMARK  status: ('A' for Active; 'I' for Inactive)
REMARK    1  A    between atoms: C_1  and  C_2
REMARK    2  A    between atoms: C_2  and  C_3
REMARK    3  A    between atoms: C_3  and  C_4
REMARK    4  A    between atoms: C_4  and  N_5
REMARK    5  A    between atoms: N_5  and  C_6
REMARK    6  A    between atoms: C_7  and  O_8
REMARK    7  A    between atoms: O_8  and  C_9
REMARK    8  A    between atoms: C_15  and  S_22
REMARK    9  A    between atoms: C_17  and  C_19
REMARK   10  A    between atoms: C_19  and  O_20
REMARK   11  A    between atoms: S_22  and  N_23
REMARK                            x       y       z     vdW  Elec       q    Type
REMARK                         _______ _______ _______ _____ _____    ______ ____
ROOT
ATOM      1  C   UNL     1      -7.372   0.989 125.362  0.00  0.00    +0.000 A 
ATOM      2  C   UNL     1      -6.719   2.169 124.931  0.00  0.00    +0.000 A 
ATOM      3  C   UNL     1      -6.625   3.245 125.846  0.00  0.00    +0.000 A 
ATOM      4  C   UNL     1      -7.303   3.232 127.082  0.00  0.00    +0.000 A 
ATOM      5  C   UNL     1      -8.025   2.108 127.461  0.00  0.00    +0.000 A 
ATOM      6  C   UNL     1      -8.065   1.016 126.586  0.00  0.00    +0.000 A 
ENDROOT
BRANCH   3   7
ATOM      7  S   UNL     1      -5.484   4.596 125.607  0.00  0.00    +0.000 S 
ATOM      8  O   UNL     1      -4.184   4.057 125.280  0.00  0.00    +0.000 OA
ATOM      9  O   UNL     1      -6.140   5.576 124.773  0.00  0.00    +0.000 OA
BRANCH   7  10
ATOM     10  N   UNL     1      -5.416   5.285 127.125  0.00  0.00    +0.000 NA
ATOM     11  H   UNL     1      -4.546   5.757 127.348  0.00  0.00    +0.000 HD
ATOM     12  H   UNL     1      -5.925   4.796 127.859  0.00  0.00    +0.000 HD
ENDBRANCH   7  10
ENDBRANCH   3   7
BRANCH   1  13
ATOM     13  N   UNL     1      -7.300  -0.245 124.702  0.00  0.00    +0.000 N 
ATOM     14  H   UNL     1      -8.158  -0.790 124.708  0.00  0.00    +0.000 HD
BRANCH  13  15
ATOM     15  C   UNL     1      -6.077  -1.042 124.815  0.00  0.00    +0.000 C 
BRANCH  15  16
ATOM     16  C   UNL     1      -6.271  -2.387 124.113  0.00  0.00    +0.000 C 
BRANCH  16  18
ATOM     17  C   UNL     1      -4.774  -4.366 123.802  0.00  0.00    +0.000 C 
ATOM     18  C   UNL     1      -4.966  -2.889 123.509  0.00  0.00    +0.000 C 
ENDBRANCH  16  18
ENDBRANCH  15  16
ENDBRANCH  13  15
ENDBRANCH   1  13
BRANCH   5  19
ATOM     19  C   UNL     1      -8.674   1.921 128.793  0.00  0.00    +0.000 C 
ATOM     20  O   UNL     1      -9.517   2.703 129.206  0.00  0.00    +0.000 OA
BRANCH  19  21
ATOM     21  O   UNL     1      -8.313   0.838 129.506  0.00  0.00    +0.000 OA
ATOM     22  H   UNL     1      -7.980   0.051 129.045  0.00  0.00    +0.000 HD
ENDBRANCH  19  21
ENDBRANCH   5  19
BRANCH   2  23
ATOM     23  O   UNL     1      -6.116   2.344 123.697  0.00  0.00    +0.000 OA
BRANCH  23  24
ATOM     24  C   UNL     1      -6.791   2.916 122.637  0.00  0.00    +0.000 A 
ATOM     25  C   UNL     1      -5.990   3.449 121.626  0.00  0.00    +0.000 A 
ATOM     26  C   UNL     1      -6.567   3.991 120.475  0.00  0.00    +0.000 A 
ATOM     27  C   UNL     1      -7.947   3.941 120.294  0.00  0.00    +0.000 A 
ATOM     28  C   UNL     1      -8.757   3.438 121.312  0.00  0.00    +0.000 A 
ATOM     29  C   UNL     1      -8.183   2.964 122.501  0.00  0.00    +0.000 A 
ENDBRANCH  23  24
ENDBRANCH   2  23
TORSDOF 10
ENDMDL
