MODEL 1
REMARK VINA RESULT:      -6.9      0.000      0.000
REMARK  Name = Bupivacaine
REMARK  8 active torsions:
REMARK  status: ('A' for Active; 'I' for Inactive)
REMARK    1  A    between atoms: C_1  and  C_2
REMARK    2  A    between atoms: C_2  and  C_3
REMARK    3  A    between atoms: C_3  and  C_4
REMARK    4  A    between atoms: C_4  and  N_5
REMARK    5  A    between atoms: C_10  and  C_11
REMARK    6  A    between atoms: N_13  and  C_14
REMARK    7  A    between atoms: C_15  and  C_16
REMARK    8  A    between atoms: C_20  and  C_21
REMARK                            x       y       z     vdW  Elec       q    Type
REMARK                         _______ _______ _______ _____ _____    ______ ____
ROOT
ATOM      1  C   UNL     1      -8.466   0.220 125.700  0.00  0.00    +0.000 C 
ATOM      2  O   UNL     1      -9.546   0.341 126.298  0.00  0.00    +0.000 OA
ATOM      3  N   UNL     1      -7.552  -0.748 126.081  0.00  0.00    +0.000 N 
ATOM      4  H   UNL     1      -6.571  -0.574 125.907  0.00  0.00    +0.000 HD
ENDROOT
BRANCH   3   5
ATOM      5  C   UNL     1      -7.906  -1.635 127.137  0.00  0.00    +0.000 A 
ATOM      6  C   UNL     1      -7.546  -1.323 128.474  0.00  0.00    +0.000 A 
ATOM      7  C   UNL     1      -6.888  -0.030 128.893  0.00  0.00    +0.000 C 
ATOM      8  C   UNL     1      -7.819  -2.244 129.495  0.00  0.00    +0.000 A 
ATOM      9  C   UNL     1      -8.460  -3.443 129.218  0.00  0.00    +0.000 A 
ATOM     10  C   UNL     1      -8.839  -3.740 127.911  0.00  0.00    +0.000 A 
ATOM     11  C   UNL     1      -8.579  -2.845 126.856  0.00  0.00    +0.000 A 
ATOM     12  C   UNL     1      -8.956  -3.272 125.465  0.00  0.00    +0.000 C 
ENDBRANCH   3   5
BRANCH   1  18
ATOM     13  N   UNL     1      -7.806   0.363 123.265  0.00  0.00    +0.000 NA
ATOM     14  C   UNL     1      -9.000  -0.397 122.837  0.00  0.00    +0.000 C 
ATOM     15  C   UNL     1     -10.205   0.496 122.612  0.00  0.00    +0.000 C 
ATOM     16  C   UNL     1     -10.489   1.397 123.804  0.00  0.00    +0.000 C 
ATOM     17  C   UNL     1      -9.225   2.138 124.232  0.00  0.00    +0.000 C 
ATOM     18  C   UNL     1      -8.086   1.150 124.511  0.00  0.00    +0.000 C 
BRANCH  13  19
ATOM     19  C   UNL     1      -6.605  -0.485 123.434  0.00  0.00    +0.000 C 
BRANCH  19  20
ATOM     20  C   UNL     1      -6.727  -1.855 122.769  0.00  0.00    +0.000 C 
BRANCH  20  22
ATOM     21  C   UNL     1      -5.476  -3.403 124.230  0.00  0.00    +0.000 C 
ATOM     22  C   UNL     1      -5.462  -2.684 122.892  0.00  0.00    +0.000 C 
ENDBRANCH  20  22
ENDBRANCH  19  20
ENDBRANCH  13  19
ENDBRANCH   1  18
TORSDOF 5
ENDMDL
MODEL 2
REMARK VINA RESULT:      -6.8      0.165      1.916
REMARK  Name = Bupivacaine
REMARK  8 active torsions:
REMARK  status: ('A' for Active; 'I' for Inactive)
REMARK    1  A    between atoms: C_1  and  C_2
REMARK    2  A    between atoms: C_2  and  C_3
REMARK    3  A    between atoms: C_3  and  C_4
REMARK    4  A    between atoms: C_4  and  N_5
REMARK    5  A    between atoms: C_10  and  C_11
REMARK    6  A    between atoms: N_13  and  C_14
REMARK    7  A    between atoms: C_15  and  C_16
REMARK    8  A    between atoms: C_20  and  C_21
REMARK                            x       y       z     vdW  Elec       q    Type
REMARK                         _______ _______ _______ _____ _____    ______ ____
ROOT
ATOM      1  C   UNL     1      -8.470   0.142 125.699  0.00  0.00    +0.000 C 
ATOM      2  O   UNL     1      -9.544   0.217 126.316  0.00  0.00    +0.000 OA
ATOM      3  N   UNL     1      -7.539  -0.832 126.021  0.00  0.00    +0.000 N 
ATOM      4  H   UNL     1      -6.563  -0.636 125.845  0.00  0.00    +0.000 HD
ENDROOT
BRANCH   3   5
ATOM      5  C   UNL     1      -7.868  -1.775 127.035  0.00  0.00    +0.000 A 
ATOM      6  C   UNL     1      -8.590  -2.951 126.702  0.00  0.00    +0.000 A 
ATOM      7  C   UNL     1      -8.958  -3.346 125.292  0.00  0.00    +0.000 C 
ATOM      8  C   UNL     1      -8.987  -3.828 127.720  0.00  0.00    +0.000 A 
ATOM      9  C   UNL     1      -8.659  -3.576 129.045  0.00  0.00    +0.000 A 
ATOM     10  C   UNL     1      -7.927  -2.437 129.371  0.00  0.00    +0.000 A 
ATOM     11  C   UNL     1      -7.513  -1.528 128.380  0.00  0.00    +0.000 A 
ATOM     12  C   UNL     1      -6.788  -0.288 128.824  0.00  0.00    +0.000 C 
ENDBRANCH   3   5
BRANCH   1  18
ATOM     13  N   UNL     1      -7.827   0.414 123.271  0.00  0.00    +0.000 NA
ATOM     14  C   UNL     1      -9.006  -0.351 122.813  0.00  0.00    +0.000 C 
ATOM     15  C   UNL     1     -10.232   0.525 122.636  0.00  0.00    +0.000 C 
ATOM     16  C   UNL     1     -10.528   1.361 123.870  0.00  0.00    +0.000 C 
ATOM     17  C   UNL     1      -9.279   2.110 124.327  0.00  0.00    +0.000 C 
ATOM     18  C   UNL     1      -8.117   1.135 124.554  0.00  0.00    +0.000 C 
BRANCH  13  19
ATOM     19  C   UNL     1      -6.606  -0.415 123.395  0.00  0.00    +0.000 C 
BRANCH  19  20
ATOM     20  C   UNL     1      -6.731  -1.788 122.736  0.00  0.00    +0.000 C 
BRANCH  20  22
ATOM     21  C   UNL     1      -5.587  -3.490 124.109  0.00  0.00    +0.000 C 
ATOM     22  C   UNL     1      -5.471  -2.621 122.868  0.00  0.00    +0.000 C 
ENDBRANCH  20  22
ENDBRANCH  19  20
ENDBRANCH  13  19
ENDBRANCH   1  18
TORSDOF 5
ENDMDL
MODEL 3
REMARK VINA RESULT:      -6.8      3.290      6.631
REMARK  Name = Bupivacaine
REMARK  8 active torsions:
REMARK  status: ('A' for Active; 'I' for Inactive)
REMARK    1  A    between atoms: C_1  and  C_2
REMARK    2  A    between atoms: C_2  and  C_3
REMARK    3  A    between atoms: C_3  and  C_4
REMARK    4  A    between atoms: C_4  and  N_5
REMARK    5  A    between atoms: C_10  and  C_11
REMARK    6  A    between atoms: N_13  and  C_14
REMARK    7  A    between atoms: C_15  and  C_16
REMARK    8  A    between atoms: C_20  and  C_21
REMARK                            x       y       z     vdW  Elec       q    Type
REMARK                         _______ _______ _______ _____ _____    ______ ____
ROOT
ATOM      1  C   UNL     1      -7.850   1.888 123.620  0.00  0.00    +0.000 C 
ATOM      2  O   UNL     1      -7.046   1.148 123.033  0.00  0.00    +0.000 OA
ATOM      3  N   UNL     1      -7.888   3.246 123.348  0.00  0.00    +0.000 N 
ATOM      4  H   UNL     1      -8.199   3.871 124.079  0.00  0.00    +0.000 HD
ENDROOT
BRANCH   3   5
ATOM      5  C   UNL     1      -7.021   3.760 122.343  0.00  0.00    +0.000 A 
ATOM      6  C   UNL     1      -7.472   3.856 121.000  0.00  0.00    +0.000 A 
ATOM      7  C   UNL     1      -8.882   3.544 120.557  0.00  0.00    +0.000 C 
ATOM      8  C   UNL     1      -6.583   4.277 120.002  0.00  0.00    +0.000 A 
ATOM      9  C   UNL     1      -5.277   4.628 120.314  0.00  0.00    +0.000 A 
ATOM     10  C   UNL     1      -4.840   4.562 121.636  0.00  0.00    +0.000 A 
ATOM     11  C   UNL     1      -5.699   4.139 122.667  0.00  0.00    +0.000 A 
ATOM     12  C   UNL     1      -5.130   4.027 124.053  0.00  0.00    +0.000 C 
ENDBRANCH   3   5
BRANCH   1  18
ATOM     13  N   UNL     1      -8.760  -0.161 124.784  0.00  0.00    +0.000 NA
ATOM     14  C   UNL     1      -7.409  -0.597 125.198  0.00  0.00    +0.000 C 
ATOM     15  C   UNL     1      -6.981   0.020 126.515  0.00  0.00    +0.000 C 
ATOM     16  C   UNL     1      -7.128   1.532 126.522  0.00  0.00    +0.000 C 
ATOM     17  C   UNL     1      -8.525   1.940 126.060  0.00  0.00    +0.000 C 
ATOM     18  C   UNL     1      -8.839   1.333 124.687  0.00  0.00    +0.000 C 
BRANCH  13  19
ATOM     19  C   UNL     1      -9.219  -0.798 123.528  0.00  0.00    +0.000 C 
BRANCH  19  20
ATOM     20  C   UNL     1      -8.485  -2.097 123.199  0.00  0.00    +0.000 C 
BRANCH  20  22
ATOM     21  C   UNL     1      -8.401  -4.019 124.746  0.00  0.00    +0.000 C 
ATOM     22  C   UNL     1      -9.229  -3.330 123.675  0.00  0.00    +0.000 C 
ENDBRANCH  20  22
ENDBRANCH  19  20
ENDBRANCH  13  19
ENDBRANCH   1  18
TORSDOF 5
ENDMDL
MODEL 4
REMARK VINA RESULT:      -6.5      1.630      3.590
REMARK  Name = Bupivacaine
REMARK  8 active torsions:
REMARK  status: ('A' for Active; 'I' for Inactive)
REMARK    1  A    between atoms: C_1  and  C_2
REMARK    2  A    between atoms: C_2  and  C_3
REMARK    3  A    between atoms: C_3  and  C_4
REMARK    4  A    between atoms: C_4  and  N_5
REMARK    5  A    between atoms: C_10  and  C_11
REMARK    6  A    between atoms: N_13  and  C_14
REMARK    7  A    between atoms: C_15  and  C_16
REMARK    8  A    between atoms: C_20  and  C_21
REMARK                            x       y       z     vdW  Elec       q    Type
REMARK                         _______ _______ _______ _____ _____    ______ ____
ROOT
ATOM      1  C   UNL     1      -8.525  -1.525 125.597  0.00  0.00    +0.000 C 
ATOM      2  O   UNL     1      -8.866  -0.591 126.339  0.00  0.00    +0.000 OA
ATOM      3  N   UNL     1      -7.744  -2.563 126.080  0.00  0.00    +0.000 N 
ATOM      4  H   UNL     1      -7.141  -3.049 125.431  0.00  0.00    +0.000 HD
ENDROOT
BRANCH   3   5
ATOM      5  C   UNL     1      -7.391  -2.559 127.460  0.00  0.00    +0.000 A 
ATOM      6  C   UNL     1      -6.236  -1.858 127.893  0.00  0.00    +0.000 A 
ATOM      7  C   UNL     1      -5.380  -0.999 126.992  0.00  0.00    +0.000 C 
ATOM      8  C   UNL     1      -5.846  -1.934 129.237  0.00  0.00    +0.000 A 
ATOM      9  C   UNL     1      -6.591  -2.662 130.153  0.00  0.00    +0.000 A 
ATOM     10  C   UNL     1      -7.741  -3.328 129.736  0.00  0.00    +0.000 A 
ATOM     11  C   UNL     1      -8.164  -3.282 128.395  0.00  0.00    +0.000 A 
ATOM     12  C   UNL     1      -9.375  -4.086 128.013  0.00  0.00    +0.000 C 
ENDBRANCH   3   5
BRANCH   1  18
ATOM     13  N   UNL     1      -8.423  -0.380 123.347  0.00  0.00    +0.000 NA
ATOM     14  C   UNL     1      -6.945  -0.343 123.368  0.00  0.00    +0.000 C 
ATOM     15  C   UNL     1      -6.328  -1.609 122.805  0.00  0.00    +0.000 C 
ATOM     16  C   UNL     1      -6.884  -2.864 123.456  0.00  0.00    +0.000 C 
ATOM     17  C   UNL     1      -8.411  -2.848 123.441  0.00  0.00    +0.000 C 
ATOM     18  C   UNL     1      -8.944  -1.569 124.098  0.00  0.00    +0.000 C 
BRANCH  13  19
ATOM     19  C   UNL     1      -9.045   0.870 123.840  0.00  0.00    +0.000 C 
BRANCH  19  20
ATOM     20  C   UNL     1      -9.462   1.826 122.723  0.00  0.00    +0.000 C 
BRANCH  20  22
ATOM     21  C   UNL     1      -8.714   3.553 121.125  0.00  0.00    +0.000 C 
ATOM     22  C   UNL     1      -8.451   2.932 122.486  0.00  0.00    +0.000 C 
ENDBRANCH  20  22
ENDBRANCH  19  20
ENDBRANCH  13  19
ENDBRANCH   1  18
TORSDOF 5
ENDMDL
MODEL 5
REMARK VINA RESULT:      -6.5      7.279     10.229
REMARK  Name = Bupivacaine
REMARK  8 active torsions:
REMARK  status: ('A' for Active; 'I' for Inactive)
REMARK    1  A    between atoms: C_1  and  C_2
REMARK    2  A    between atoms: C_2  and  C_3
REMARK    3  A    between atoms: C_3  and  C_4
REMARK    4  A    between atoms: C_4  and  N_5
REMARK    5  A    between atoms: C_10  and  C_11
REMARK    6  A    between atoms: N_13  and  C_14
REMARK    7  A    between atoms: C_15  and  C_16
REMARK    8  A    between atoms: C_20  and  C_21
REMARK                            x       y       z     vdW  Elec       q    Type
REMARK                         _______ _______ _______ _____ _____    ______ ____
ROOT
ATOM      1  C   UNL     1      -8.996   6.041 129.994  0.00  0.00    +0.000 C 
ATOM      2  O   UNL     1      -8.652   7.189 130.313  0.00  0.00    +0.000 OA
ATOM      3  N   UNL     1     -10.287   5.785 129.561  0.00  0.00    +0.000 N 
ATOM      4  H   UNL     1     -10.669   4.862 129.716  0.00  0.00    +0.000 HD
ENDROOT
BRANCH   3   5
ATOM      5  C   UNL     1     -11.189   6.879 129.440  0.00  0.00    +0.000 A 
ATOM      6  C   UNL     1     -11.286   7.586 128.213  0.00  0.00    +0.000 A 
ATOM      7  C   UNL     1     -10.559   7.190 126.949  0.00  0.00    +0.000 C 
ATOM      8  C   UNL     1     -12.109   8.716 128.129  0.00  0.00    +0.000 A 
ATOM      9  C   UNL     1     -12.853   9.137 129.224  0.00  0.00    +0.000 A 
ATOM     10  C   UNL     1     -12.782   8.429 130.421  0.00  0.00    +0.000 A 
ATOM     11  C   UNL     1     -11.963   7.291 130.548  0.00  0.00    +0.000 A 
ATOM     12  C   UNL     1     -11.887   6.627 131.894  0.00  0.00    +0.000 C 
ENDBRANCH   3   5
BRANCH   1  18
ATOM     13  N   UNL     1      -7.429   4.697 131.450  0.00  0.00    +0.000 NA
ATOM     14  C   UNL     1      -8.490   4.431 132.446  0.00  0.00    +0.000 C 
ATOM     15  C   UNL     1      -9.307   3.200 132.106  0.00  0.00    +0.000 C 
ATOM     16  C   UNL     1      -9.844   3.235 130.684  0.00  0.00    +0.000 C 
ATOM     17  C   UNL     1      -8.724   3.542 129.693  0.00  0.00    +0.000 C 
ATOM     18  C   UNL     1      -8.006   4.842 130.073  0.00  0.00    +0.000 C 
BRANCH  13  19
ATOM     19  C   UNL     1      -6.584   5.862 131.795  0.00  0.00    +0.000 C 
BRANCH  19  20
ATOM     20  C   UNL     1      -5.326   5.978 130.937  0.00  0.00    +0.000 C 
BRANCH  20  22
ATOM     21  C   UNL     1      -3.600   7.739 131.075  0.00  0.00    +0.000 C 
ATOM     22  C   UNL     1      -4.995   7.412 130.569  0.00  0.00    +0.000 C 
ENDBRANCH  20  22
ENDBRANCH  19  20
ENDBRANCH  13  19
ENDBRANCH   1  18
TORSDOF 5
ENDMDL
MODEL 6
REMARK VINA RESULT:      -6.5      7.311     10.170
REMARK  Name = Bupivacaine
REMARK  8 active torsions:
REMARK  status: ('A' for Active; 'I' for Inactive)
REMARK    1  A    between atoms: C_1  and  C_2
REMARK    2  A    between atoms: C_2  and  C_3
REMARK    3  A    between atoms: C_3  and  C_4
REMARK    4  A    between atoms: C_4  and  N_5
REMARK    5  A    between atoms: C_10  and  C_11
REMARK    6  A    between atoms: N_13  and  C_14
REMARK    7  A    between atoms: C_15  and  C_16
REMARK    8  A    between atoms: C_20  and  C_21
REMARK                            x       y       z     vdW  Elec       q    Type
REMARK                         _______ _______ _______ _____ _____    ______ ____
ROOT
ATOM      1  C   UNL     1      -8.960   6.132 130.015  0.00  0.00    +0.000 C 
ATOM      2  O   UNL     1      -8.635   7.287 130.332  0.00  0.00    +0.000 OA
ATOM      3  N   UNL     1     -10.238   5.860 129.553  0.00  0.00    +0.000 N 
ATOM      4  H   UNL     1     -10.614   4.934 129.708  0.00  0.00    +0.000 HD
ENDROOT
BRANCH   3   5
ATOM      5  C   UNL     1     -11.148   6.944 129.400  0.00  0.00    +0.000 A 
ATOM      6  C   UNL     1     -11.967   7.340 130.489  0.00  0.00    +0.000 A 
ATOM      7  C   UNL     1     -11.872   6.753 131.877  0.00  0.00    +0.000 C 
ATOM      8  C   UNL     1     -12.923   8.348 130.303  0.00  0.00    +0.000 A 
ATOM      9  C   UNL     1     -13.059   8.981 129.075  0.00  0.00    +0.000 A 
ATOM     10  C   UNL     1     -12.237   8.613 128.012  0.00  0.00    +0.000 A 
ATOM     11  C   UNL     1     -11.269   7.603 128.156  0.00  0.00    +0.000 A 
ATOM     12  C   UNL     1     -10.472   7.216 126.941  0.00  0.00    +0.000 C 
ENDBRANCH   3   5
BRANCH   1  18
ATOM     13  N   UNL     1      -7.496   4.753 131.543  0.00  0.00    +0.000 NA
ATOM     14  C   UNL     1      -8.630   4.435 132.437  0.00  0.00    +0.000 C 
ATOM     15  C   UNL     1      -9.396   3.207 131.985  0.00  0.00    +0.000 C 
ATOM     16  C   UNL     1      -9.816   3.291 130.527  0.00  0.00    +0.000 C 
ATOM     17  C   UNL     1      -8.625   3.651 129.643  0.00  0.00    +0.000 C 
ATOM     18  C   UNL     1      -7.961   4.944 130.130  0.00  0.00    +0.000 C 
BRANCH  13  19
ATOM     19  C   UNL     1      -6.701   5.914 132.000  0.00  0.00    +0.000 C 
BRANCH  19  20
ATOM     20  C   UNL     1      -5.303   5.976 131.387  0.00  0.00    +0.000 C 
BRANCH  20  22
ATOM     21  C   UNL     1      -3.637   7.751 130.974  0.00  0.00    +0.000 C 
ATOM     22  C   UNL     1      -5.041   7.273 130.646  0.00  0.00    +0.000 C 
ENDBRANCH  20  22
ENDBRANCH  19  20
ENDBRANCH  13  19
ENDBRANCH   1  18
TORSDOF 5
ENDMDL
MODEL 7
REMARK VINA RESULT:      -6.3      2.391      3.492
REMARK  Name = Bupivacaine
REMARK  8 active torsions:
REMARK  status: ('A' for Active; 'I' for Inactive)
REMARK    1  A    between atoms: C_1  and  C_2
REMARK    2  A    between atoms: C_2  and  C_3
REMARK    3  A    between atoms: C_3  and  C_4
REMARK    4  A    between atoms: C_4  and  N_5
REMARK    5  A    between atoms: C_10  and  C_11
REMARK    6  A    between atoms: N_13  and  C_14
REMARK    7  A    between atoms: C_15  and  C_16
REMARK    8  A    between atoms: C_20  and  C_21
REMARK                            x       y       z     vdW  Elec       q    Type
REMARK                         _______ _______ _______ _____ _____    ______ ____
ROOT
ATOM      1  C   UNL     1      -6.486  -1.880 127.382  0.00  0.00    +0.000 C 
ATOM      2  O   UNL     1      -7.209  -2.889 127.390  0.00  0.00    +0.000 OA
ATOM      3  N   UNL     1      -5.768  -1.517 128.510  0.00  0.00    +0.000 N 
ATOM      4  H   UNL     1      -5.552  -0.538 128.643  0.00  0.00    +0.000 HD
ENDROOT
BRANCH   3   5
ATOM      5  C   UNL     1      -5.837  -2.358 129.657  0.00  0.00    +0.000 A 
ATOM      6  C   UNL     1      -4.872  -3.381 129.844  0.00  0.00    +0.000 A 
ATOM      7  C   UNL     1      -3.675  -3.589 128.947  0.00  0.00    +0.000 C 
ATOM      8  C   UNL     1      -5.000  -4.261 130.927  0.00  0.00    +0.000 A 
ATOM      9  C   UNL     1      -6.042  -4.126 131.834  0.00  0.00    +0.000 A 
ATOM     10  C   UNL     1      -6.975  -3.104 131.668  0.00  0.00    +0.000 A 
ATOM     11  C   UNL     1      -6.886  -2.204 130.591  0.00  0.00    +0.000 A 
ATOM     12  C   UNL     1      -7.972  -1.175 130.444  0.00  0.00    +0.000 C 
ENDBRANCH   3   5
BRANCH   1  18
ATOM     13  N   UNL     1      -7.166  -1.521 124.975  0.00  0.00    +0.000 NA
ATOM     14  C   UNL     1      -8.604  -1.571 125.313  0.00  0.00    +0.000 C 
ATOM     15  C   UNL     1      -9.151  -0.217 125.720  0.00  0.00    +0.000 C 
ATOM     16  C   UNL     1      -8.323   0.437 126.814  0.00  0.00    +0.000 C 
ATOM     17  C   UNL     1      -6.843   0.442 126.439  0.00  0.00    +0.000 C 
ATOM     18  C   UNL     1      -6.361  -0.978 126.119  0.00  0.00    +0.000 C 
BRANCH  13  19
ATOM     19  C   UNL     1      -6.627  -2.822 124.520  0.00  0.00    +0.000 C 
BRANCH  19  20
ATOM     20  C   UNL     1      -5.714  -2.711 123.300  0.00  0.00    +0.000 C 
BRANCH  20  22
ATOM     21  C   UNL     1      -4.455  -4.816 123.582  0.00  0.00    +0.000 C 
ATOM     22  C   UNL     1      -4.338  -3.302 123.538  0.00  0.00    +0.000 C 
ENDBRANCH  20  22
ENDBRANCH  19  20
ENDBRANCH  13  19
ENDBRANCH   1  18
TORSDOF 5
ENDMDL
MODEL 8
REMARK VINA RESULT:      -6.3      4.232      7.357
REMARK  Name = Bupivacaine
REMARK  8 active torsions:
REMARK  status: ('A' for Active; 'I' for Inactive)
REMARK    1  A    between atoms: C_1  and  C_2
REMARK    2  A    between atoms: C_2  and  C_3
REMARK    3  A    between atoms: C_3  and  C_4
REMARK    4  A    between atoms: C_4  and  N_5
REMARK    5  A    between atoms: C_10  and  C_11
REMARK    6  A    between atoms: N_13  and  C_14
REMARK    7  A    between atoms: C_15  and  C_16
REMARK    8  A    between atoms: C_20  and  C_21
REMARK                            x       y       z     vdW  Elec       q    Type
REMARK                         _______ _______ _______ _____ _____    ______ ____
ROOT
ATOM      1  C   UNL     1      -6.208   3.222 124.391  0.00  0.00    +0.000 C 
ATOM      2  O   UNL     1      -6.666   4.376 124.406  0.00  0.00    +0.000 OA
ATOM      3  N   UNL     1      -6.357   2.418 123.273  0.00  0.00    +0.000 N 
ATOM      4  H   UNL     1      -6.382   1.416 123.406  0.00  0.00    +0.000 HD
ENDROOT
BRANCH   3   5
ATOM      5  C   UNL     1      -6.999   2.965 122.126  0.00  0.00    +0.000 A 
ATOM      6  C   UNL     1      -6.231   3.628 121.134  0.00  0.00    +0.000 A 
ATOM      7  C   UNL     1      -4.723   3.710 121.146  0.00  0.00    +0.000 C 
ATOM      8  C   UNL     1      -6.880   4.241 120.054  0.00  0.00    +0.000 A 
ATOM      9  C   UNL     1      -8.261   4.184 119.929  0.00  0.00    +0.000 A 
ATOM     10  C   UNL     1      -9.015   3.510 120.887  0.00  0.00    +0.000 A 
ATOM     11  C   UNL     1      -8.403   2.885 121.989  0.00  0.00    +0.000 A 
ATOM     12  C   UNL     1      -9.293   2.241 123.015  0.00  0.00    +0.000 C 
ENDBRANCH   3   5
BRANCH   1  18
ATOM     13  N   UNL     1      -5.505   3.559 126.794  0.00  0.00    +0.000 NA
ATOM     14  C   UNL     1      -6.897   3.802 127.228  0.00  0.00    +0.000 C 
ATOM     15  C   UNL     1      -7.628   2.518 127.572  0.00  0.00    +0.000 C 
ATOM     16  C   UNL     1      -7.541   1.486 126.460  0.00  0.00    +0.000 C 
ATOM     17  C   UNL     1      -6.092   1.289 126.021  0.00  0.00    +0.000 C 
ATOM     18  C   UNL     1      -5.460   2.627 125.620  0.00  0.00    +0.000 C 
BRANCH  13  19
ATOM     19  C   UNL     1      -4.757   4.805 126.510  0.00  0.00    +0.000 C 
BRANCH  19  20
ATOM     20  C   UNL     1      -3.473   4.946 127.326  0.00  0.00    +0.000 C 
BRANCH  20  22
ATOM     21  C   UNL     1      -1.856   3.152 126.815  0.00  0.00    +0.000 C 
ATOM     22  C   UNL     1      -2.923   3.612 127.793  0.00  0.00    +0.000 C 
ENDBRANCH  20  22
ENDBRANCH  19  20
ENDBRANCH  13  19
ENDBRANCH   1  18
TORSDOF 5
ENDMDL
MODEL 9
REMARK VINA RESULT:      -6.3      2.440      4.461
REMARK  Name = Bupivacaine
REMARK  8 active torsions:
REMARK  status: ('A' for Active; 'I' for Inactive)
REMARK    1  A    between atoms: C_1  and  C_2
REMARK    2  A    between atoms: C_2  and  C_3
REMARK    3  A    between atoms: C_3  and  C_4
REMARK    4  A    between atoms: C_4  and  N_5
REMARK    5  A    between atoms: C_10  and  C_11
REMARK    6  A    between atoms: N_13  and  C_14
REMARK    7  A    between atoms: C_15  and  C_16
REMARK    8  A    between atoms: C_20  and  C_21
REMARK                            x       y       z     vdW  Elec       q    Type
REMARK                         _______ _______ _______ _____ _____    ______ ____
ROOT
ATOM      1  C   UNL     1      -6.941   0.960 124.730  0.00  0.00    +0.000 C 
ATOM      2  O   UNL     1      -8.147   0.889 124.448  0.00  0.00    +0.000 OA
ATOM      3  N   UNL     1      -6.255  -0.154 125.185  0.00  0.00    +0.000 N 
ATOM      4  H   UNL     1      -5.459  -0.010 125.790  0.00  0.00    +0.000 HD
ENDROOT
BRANCH   3   5
ATOM      5  C   UNL     1      -6.953  -1.392 125.267  0.00  0.00    +0.000 A 
ATOM      6  C   UNL     1      -6.976  -2.268 124.151  0.00  0.00    +0.000 A 
ATOM      7  C   UNL     1      -6.204  -2.032 122.874  0.00  0.00    +0.000 C 
ATOM      8  C   UNL     1      -7.739  -3.442 124.210  0.00  0.00    +0.000 A 
ATOM      9  C   UNL     1      -8.451  -3.771 125.356  0.00  0.00    +0.000 A 
ATOM     10  C   UNL     1      -8.408  -2.927 126.463  0.00  0.00    +0.000 A 
ATOM     11  C   UNL     1      -7.657  -1.736 126.443  0.00  0.00    +0.000 A 
ATOM     12  C   UNL     1      -7.721  -0.845 127.652  0.00  0.00    +0.000 C 
ENDBRANCH   3   5
BRANCH   1  18
ATOM     13  N   UNL     1      -6.942   3.329 123.851  0.00  0.00    +0.000 NA
ATOM     14  C   UNL     1      -8.198   3.653 124.560  0.00  0.00    +0.000 C 
ATOM     15  C   UNL     1      -7.955   4.129 125.980  0.00  0.00    +0.000 C 
ATOM     16  C   UNL     1      -7.075   3.173 126.768  0.00  0.00    +0.000 C 
ATOM     17  C   UNL     1      -5.806   2.840 125.989  0.00  0.00    +0.000 C 
ATOM     18  C   UNL     1      -6.152   2.295 124.598  0.00  0.00    +0.000 C 
BRANCH  13  19
ATOM     19  C   UNL     1      -7.156   2.917 122.445  0.00  0.00    +0.000 C 
BRANCH  19  20
ATOM     20  C   UNL     1      -8.587   3.135 121.956  0.00  0.00    +0.000 C 
BRANCH  20  22
ATOM     21  C   UNL     1      -7.237   4.027 120.092  0.00  0.00    +0.000 C 
ATOM     22  C   UNL     1      -8.650   3.848 120.620  0.00  0.00    +0.000 C 
ENDBRANCH  20  22
ENDBRANCH  19  20
ENDBRANCH  13  19
ENDBRANCH   1  18
TORSDOF 5
ENDMDL
