MODEL 1
REMARK VINA RESULT:      -6.4      0.000      0.000
REMARK  Name = Bupropion
REMARK  8 active torsions:
REMARK  status: ('A' for Active; 'I' for Inactive)
REMARK    1  A    between atoms: C_1  and  C_2
REMARK    2  A    between atoms: C_2  and  N_3
REMARK    3  A    between atoms: C_2  and  C_8
REMARK    4  A    between atoms: N_3  and  C_4
REMARK    5  A    between atoms: C_4  and  C_5
REMARK    6  A    between atoms: C_4  and  C_6
REMARK    7  A    between atoms: C_4  and  C_7
REMARK    8  A    between atoms: C_8  and  C_10
REMARK                            x       y       z     vdW  Elec       q    Type
REMARK                         _______ _______ _______ _____ _____    ______ ____
ROOT
ATOM      1  C   UNL     1     -11.760   6.399 131.118  0.00  0.00    +0.000 C 
ATOM      2  O   UNL     1     -12.258   6.486 132.235  0.00  0.00    +0.000 OA
ENDROOT
BRANCH   1   3
ATOM      3  C   UNL     1     -12.435   7.164 130.037  0.00  0.00    +0.000 A 
ATOM      4  C   UNL     1     -12.660   8.537 130.118  0.00  0.00    +0.000 A 
ATOM      5  C   UNL     1     -13.279   9.208 129.073  0.00  0.00    +0.000 A 
ATOM      6 CL   UNL     1     -13.615  10.887 129.243  0.00  0.00    +0.000 Cl
ATOM      7  C   UNL     1     -13.606   8.537 127.902  0.00  0.00    +0.000 A 
ATOM      8  C   UNL     1     -13.341   7.171 127.789  0.00  0.00    +0.000 A 
ATOM      9  C   UNL     1     -12.769   6.480 128.860  0.00  0.00    +0.000 A 
ENDBRANCH   1   3
BRANCH   1  11
ATOM     10  C   UNL     1      -9.381   6.849 130.679  0.00  0.00    +0.000 C 
ATOM     11  C   UNL     1     -10.392   5.714 130.851  0.00  0.00    +0.000 C 
BRANCH  11  12
ATOM     12  N   UNL     1     -10.029   4.748 131.921  0.00  0.00    +0.000 NA
ATOM     13  H   UNL     1     -10.897   4.350 132.266  0.00  0.00    +0.000 HD
BRANCH  12  14
ATOM     14  C   UNL     1      -9.250   3.548 131.544  0.00  0.00    +0.000 C 
ATOM     15  C   UNL     1      -9.655   3.097 130.133  0.00  0.00    +0.000 C 
ATOM     16  C   UNL     1      -7.736   3.719 131.674  0.00  0.00    +0.000 C 
ATOM     17  C   UNL     1      -9.622   2.429 132.543  0.00  0.00    +0.000 C 
ENDBRANCH  12  14
ENDBRANCH  11  12
ENDBRANCH   1  11
TORSDOF 4
ENDMDL
MODEL 2
REMARK VINA RESULT:      -6.3      3.246      6.040
REMARK  Name = Bupropion
REMARK  8 active torsions:
REMARK  status: ('A' for Active; 'I' for Inactive)
REMARK    1  A    between atoms: C_1  and  C_2
REMARK    2  A    between atoms: C_2  and  N_3
REMARK    3  A    between atoms: C_2  and  C_8
REMARK    4  A    between atoms: N_3  and  C_4
REMARK    5  A    between atoms: C_4  and  C_5
REMARK    6  A    between atoms: C_4  and  C_6
REMARK    7  A    between atoms: C_4  and  C_7
REMARK    8  A    between atoms: C_8  and  C_10
REMARK                            x       y       z     vdW  Elec       q    Type
REMARK                         _______ _______ _______ _____ _____    ______ ____
ROOT
ATOM      1  C   UNL     1     -10.620   6.397 131.414  0.00  0.00    +0.000 C 
ATOM      2  O   UNL     1     -11.403   6.802 132.267  0.00  0.00    +0.000 OA
ENDROOT
BRANCH   1   3
ATOM      3  C   UNL     1      -9.191   6.320 131.818  0.00  0.00    +0.000 A 
ATOM      4  C   UNL     1      -8.776   5.685 132.987  0.00  0.00    +0.000 A 
ATOM      5  C   UNL     1      -7.428   5.625 133.310  0.00  0.00    +0.000 A 
ATOM      6 CL   UNL     1      -6.959   4.908 134.802  0.00  0.00    +0.000 Cl
ATOM      7  C   UNL     1      -6.472   6.123 132.434  0.00  0.00    +0.000 A 
ATOM      8  C   UNL     1      -6.872   6.717 131.236  0.00  0.00    +0.000 A 
ATOM      9  C   UNL     1      -8.232   6.830 130.934  0.00  0.00    +0.000 A 
ENDBRANCH   1   3
BRANCH   1  11
ATOM     10  C   UNL     1     -11.151   4.283 130.273  0.00  0.00    +0.000 C 
ATOM     11  C   UNL     1     -11.080   5.796 130.059  0.00  0.00    +0.000 C 
BRANCH  11  12
ATOM     12  N   UNL     1     -12.357   6.392 129.584  0.00  0.00    +0.000 NA
ATOM     13  H   UNL     1     -12.836   6.754 130.402  0.00  0.00    +0.000 HD
BRANCH  12  14
ATOM     14  C   UNL     1     -12.289   7.576 128.699  0.00  0.00    +0.000 C 
ATOM     15  C   UNL     1     -12.667   8.833 129.497  0.00  0.00    +0.000 C 
ATOM     16  C   UNL     1     -10.951   7.742 127.977  0.00  0.00    +0.000 C 
ATOM     17  C   UNL     1     -13.335   7.371 127.580  0.00  0.00    +0.000 C 
ENDBRANCH  12  14
ENDBRANCH  11  12
ENDBRANCH   1  11
TORSDOF 4
ENDMDL
MODEL 3
REMARK VINA RESULT:      -6.2      8.834      9.988
REMARK  Name = Bupropion
REMARK  8 active torsions:
REMARK  status: ('A' for Active; 'I' for Inactive)
REMARK    1  A    between atoms: C_1  and  C_2
REMARK    2  A    between atoms: C_2  and  N_3
REMARK    3  A    between atoms: C_2  and  C_8
REMARK    4  A    between atoms: N_3  and  C_4
REMARK    5  A    between atoms: C_4  and  C_5
REMARK    6  A    between atoms: C_4  and  C_6
REMARK    7  A    between atoms: C_4  and  C_7
REMARK    8  A    between atoms: C_8  and  C_10
REMARK                            x       y       z     vdW  Elec       q    Type
REMARK                         _______ _______ _______ _____ _____    ______ ____
ROOT
ATOM      1  C   UNL     1      -8.014   2.702 123.643  0.00  0.00    +0.000 C 
ATOM      2  O   UNL     1      -8.642   3.492 124.338  0.00  0.00    +0.000 OA
ENDROOT
BRANCH   1   3
ATOM      3  C   UNL     1      -7.665   3.164 122.273  0.00  0.00    +0.000 A 
ATOM      4  C   UNL     1      -8.631   3.526 121.336  0.00  0.00    +0.000 A 
ATOM      5  C   UNL     1      -8.252   3.969 120.076  0.00  0.00    +0.000 A 
ATOM      6 CL   UNL     1      -9.472   4.328 118.917  0.00  0.00    +0.000 Cl
ATOM      7  C   UNL     1      -6.909   4.134 119.763  0.00  0.00    +0.000 A 
ATOM      8  C   UNL     1      -5.933   3.821 120.711  0.00  0.00    +0.000 A 
ATOM      9  C   UNL     1      -6.309   3.322 121.960  0.00  0.00    +0.000 A 
ENDBRANCH   1   3
BRANCH   1  11
ATOM     10  C   UNL     1      -6.803   1.722 125.547  0.00  0.00    +0.000 C 
ATOM     11  C   UNL     1      -7.421   1.376 124.191  0.00  0.00    +0.000 C 
BRANCH  11  12
ATOM     12  N   UNL     1      -8.437   0.292 124.258  0.00  0.00    +0.000 NA
ATOM     13  H   UNL     1      -9.136   0.498 123.552  0.00  0.00    +0.000 HD
BRANCH  12  14
ATOM     14  C   UNL     1      -8.016  -1.082 123.905  0.00  0.00    +0.000 C 
ATOM     15  C   UNL     1      -7.637  -1.846 125.182  0.00  0.00    +0.000 C 
ATOM     16  C   UNL     1      -9.036  -1.852 123.064  0.00  0.00    +0.000 C 
ATOM     17  C   UNL     1      -6.760  -0.960 123.013  0.00  0.00    +0.000 C 
ENDBRANCH  12  14
ENDBRANCH  11  12
ENDBRANCH   1  11
TORSDOF 4
ENDMDL
MODEL 4
REMARK VINA RESULT:      -6.2      2.954      5.959
REMARK  Name = Bupropion
REMARK  8 active torsions:
REMARK  status: ('A' for Active; 'I' for Inactive)
REMARK    1  A    between atoms: C_1  and  C_2
REMARK    2  A    between atoms: C_2  and  N_3
REMARK    3  A    between atoms: C_2  and  C_8
REMARK    4  A    between atoms: N_3  and  C_4
REMARK    5  A    between atoms: C_4  and  C_5
REMARK    6  A    between atoms: C_4  and  C_6
REMARK    7  A    between atoms: C_4  and  C_7
REMARK    8  A    between atoms: C_8  and  C_10
REMARK                            x       y       z     vdW  Elec       q    Type
REMARK                         _______ _______ _______ _____ _____    ______ ____
ROOT
ATOM      1  C   UNL     1     -10.406   6.318 131.481  0.00  0.00    +0.000 C 
ATOM      2  O   UNL     1     -11.156   6.769 132.339  0.00  0.00    +0.000 OA
ENDROOT
BRANCH   1   3
ATOM      3  C   UNL     1      -8.972   6.204 131.855  0.00  0.00    +0.000 A 
ATOM      4  C   UNL     1      -7.952   6.779 131.099  0.00  0.00    +0.000 A 
ATOM      5  C   UNL     1      -6.629   6.658 131.502  0.00  0.00    +0.000 A 
ATOM      6 CL   UNL     1      -5.391   7.309 130.501  0.00  0.00    +0.000 Cl
ATOM      7  C   UNL     1      -6.313   6.036 132.703  0.00  0.00    +0.000 A 
ATOM      8  C   UNL     1      -7.330   5.499 133.493  0.00  0.00    +0.000 A 
ATOM      9  C   UNL     1      -8.658   5.568 133.064  0.00  0.00    +0.000 A 
ENDBRANCH   1   3
BRANCH   1  11
ATOM     10  C   UNL     1     -10.909   4.185 130.362  0.00  0.00    +0.000 C 
ATOM     11  C   UNL     1     -10.915   5.700 130.151  0.00  0.00    +0.000 C 
BRANCH  11  12
ATOM     12  N   UNL     1     -12.241   6.241 129.750  0.00  0.00    +0.000 NA
ATOM     13  H   UNL     1     -12.632   6.699 130.568  0.00  0.00    +0.000 HD
BRANCH  12  14
ATOM     14  C   UNL     1     -12.280   7.312 128.731  0.00  0.00    +0.000 C 
ATOM     15  C   UNL     1     -10.920   7.393 128.021  0.00  0.00    +0.000 C 
ATOM     16  C   UNL     1     -13.435   7.186 127.735  0.00  0.00    +0.000 C 
ATOM     17  C   UNL     1     -12.527   8.643 129.476  0.00  0.00    +0.000 C 
ENDBRANCH  12  14
ENDBRANCH  11  12
ENDBRANCH   1  11
TORSDOF 4
ENDMDL
MODEL 5
REMARK VINA RESULT:      -6.1      8.347      9.693
REMARK  Name = Bupropion
REMARK  8 active torsions:
REMARK  status: ('A' for Active; 'I' for Inactive)
REMARK    1  A    between atoms: C_1  and  C_2
REMARK    2  A    between atoms: C_2  and  N_3
REMARK    3  A    between atoms: C_2  and  C_8
REMARK    4  A    between atoms: N_3  and  C_4
REMARK    5  A    between atoms: C_4  and  C_5
REMARK    6  A    between atoms: C_4  and  C_6
REMARK    7  A    between atoms: C_4  and  C_7
REMARK    8  A    between atoms: C_8  and  C_10
REMARK                            x       y       z     vdW  Elec       q    Type
REMARK                         _______ _______ _______ _____ _____    ______ ____
ROOT
ATOM      1  C   UNL     1      -9.514   0.959 124.083  0.00  0.00    +0.000 C 
ATOM      2  O   UNL     1     -10.716   1.202 124.104  0.00  0.00    +0.000 OA
ENDROOT
BRANCH   1   3
ATOM      3  C   UNL     1      -8.687   1.810 123.187  0.00  0.00    +0.000 A 
ATOM      4  C   UNL     1      -9.228   2.510 122.111  0.00  0.00    +0.000 A 
ATOM      5  C   UNL     1      -8.415   3.305 121.314  0.00  0.00    +0.000 A 
ATOM      6 CL   UNL     1      -9.100   4.089 119.945  0.00  0.00    +0.000 Cl
ATOM      7  C   UNL     1      -7.073   3.477 121.629  0.00  0.00    +0.000 A 
ATOM      8  C   UNL     1      -6.531   2.819 122.733  0.00  0.00    +0.000 A 
ATOM      9  C   UNL     1      -7.332   1.973 123.505  0.00  0.00    +0.000 A 
ENDBRANCH   1   3
BRANCH   1  11
ATOM     10  C   UNL     1      -8.965   0.610 126.456  0.00  0.00    +0.000 C 
ATOM     11  C   UNL     1      -8.832  -0.025 125.071  0.00  0.00    +0.000 C 
BRANCH  11  12
ATOM     12  N   UNL     1      -9.404  -1.395 124.985  0.00  0.00    +0.000 NA
ATOM     13  H   UNL     1     -10.238  -1.331 124.410  0.00  0.00    +0.000 HD
BRANCH  12  14
ATOM     14  C   UNL     1      -8.615  -2.440 124.297  0.00  0.00    +0.000 C 
ATOM     15  C   UNL     1      -9.537  -3.252 123.375  0.00  0.00    +0.000 C 
ATOM     16  C   UNL     1      -7.389  -1.909 123.551  0.00  0.00    +0.000 C 
ATOM     17  C   UNL     1      -8.055  -3.382 125.386  0.00  0.00    +0.000 C 
ENDBRANCH  12  14
ENDBRANCH  11  12
ENDBRANCH   1  11
TORSDOF 4
ENDMDL
MODEL 6
REMARK VINA RESULT:      -6.0      9.641     10.825
REMARK  Name = Bupropion
REMARK  8 active torsions:
REMARK  status: ('A' for Active; 'I' for Inactive)
REMARK    1  A    between atoms: C_1  and  C_2
REMARK    2  A    between atoms: C_2  and  N_3
REMARK    3  A    between atoms: C_2  and  C_8
REMARK    4  A    between atoms: N_3  and  C_4
REMARK    5  A    between atoms: C_4  and  C_5
REMARK    6  A    between atoms: C_4  and  C_6
REMARK    7  A    between atoms: C_4  and  C_7
REMARK    8  A    between atoms: C_8  and  C_10
REMARK                            x       y       z     vdW  Elec       q    Type
REMARK                         _______ _______ _______ _____ _____    ______ ____
ROOT
ATOM      1  C   UNL     1      -8.973  -1.915 123.781  0.00  0.00    +0.000 C 
ATOM      2  O   UNL     1      -9.901  -2.522 123.257  0.00  0.00    +0.000 OA
ENDROOT
BRANCH   1   3
ATOM      3  C   UNL     1      -8.910  -0.454 123.513  0.00  0.00    +0.000 A 
ATOM      4  C   UNL     1      -7.819   0.329 123.887  0.00  0.00    +0.000 A 
ATOM      5  C   UNL     1      -7.802   1.687 123.598  0.00  0.00    +0.000 A 
ATOM      6 CL   UNL     1      -6.478   2.639 124.147  0.00  0.00    +0.000 Cl
ATOM      7  C   UNL     1      -8.830   2.264 122.863  0.00  0.00    +0.000 A 
ATOM      8  C   UNL     1      -9.904   1.479 122.441  0.00  0.00    +0.000 A 
ATOM      9  C   UNL     1      -9.953   0.124 122.778  0.00  0.00    +0.000 A 
ENDBRANCH   1   3
BRANCH   1  11
ATOM     10  C   UNL     1      -8.935  -3.191 125.884  0.00  0.00    +0.000 C 
ATOM     11  C   UNL     1      -8.026  -2.556 124.830  0.00  0.00    +0.000 C 
BRANCH  11  12
ATOM     12  N   UNL     1      -7.069  -3.513 124.214  0.00  0.00    +0.000 NA
ATOM     13  H   UNL     1      -7.418  -3.721 123.283  0.00  0.00    +0.000 HD
BRANCH  12  14
ATOM     14  C   UNL     1      -5.690  -3.049 123.947  0.00  0.00    +0.000 C 
ATOM     15  C   UNL     1      -5.287  -2.010 125.004  0.00  0.00    +0.000 C 
ATOM     16  C   UNL     1      -4.661  -4.175 123.834  0.00  0.00    +0.000 C 
ATOM     17  C   UNL     1      -5.699  -2.364 122.562  0.00  0.00    +0.000 C 
ENDBRANCH  12  14
ENDBRANCH  11  12
ENDBRANCH   1  11
TORSDOF 4
ENDMDL
MODEL 7
REMARK VINA RESULT:      -6.0      2.308      3.451
REMARK  Name = Bupropion
REMARK  8 active torsions:
REMARK  status: ('A' for Active; 'I' for Inactive)
REMARK    1  A    between atoms: C_1  and  C_2
REMARK    2  A    between atoms: C_2  and  N_3
REMARK    3  A    between atoms: C_2  and  C_8
REMARK    4  A    between atoms: N_3  and  C_4
REMARK    5  A    between atoms: C_4  and  C_5
REMARK    6  A    between atoms: C_4  and  C_6
REMARK    7  A    between atoms: C_4  and  C_7
REMARK    8  A    between atoms: C_8  and  C_10
REMARK                            x       y       z     vdW  Elec       q    Type
REMARK                         _______ _______ _______ _____ _____    ______ ____
ROOT
ATOM      1  C   UNL     1      -8.367   6.431 131.089  0.00  0.00    +0.000 C 
ATOM      2  O   UNL     1      -7.525   7.242 130.722  0.00  0.00    +0.000 OA
ENDROOT
BRANCH   1   3
ATOM      3  C   UNL     1      -9.787   6.810 130.861  0.00  0.00    +0.000 A 
ATOM      4  C   UNL     1     -10.207   7.487 129.718  0.00  0.00    +0.000 A 
ATOM      5  C   UNL     1     -11.548   7.803 129.545  0.00  0.00    +0.000 A 
ATOM      6 CL   UNL     1     -12.018   8.711 128.162  0.00  0.00    +0.000 Cl
ATOM      7  C   UNL     1     -12.496   7.376 130.467  0.00  0.00    +0.000 A 
ATOM      8  C   UNL     1     -12.093   6.655 131.591  0.00  0.00    +0.000 A 
ATOM      9  C   UNL     1     -10.738   6.384 131.798  0.00  0.00    +0.000 A 
ENDBRANCH   1   3
BRANCH   1  11
ATOM     10  C   UNL     1      -7.288   4.329 130.406  0.00  0.00    +0.000 C 
ATOM     11  C   UNL     1      -8.012   5.001 131.574  0.00  0.00    +0.000 C 
BRANCH  11  12
ATOM     12  N   UNL     1      -7.224   5.014 132.836  0.00  0.00    +0.000 NA
ATOM     13  H   UNL     1      -7.216   5.973 133.169  0.00  0.00    +0.000 HD
BRANCH  12  14
ATOM     14  C   UNL     1      -7.754   4.271 134.000  0.00  0.00    +0.000 C 
ATOM     15  C   UNL     1      -7.733   5.178 135.239  0.00  0.00    +0.000 C 
ATOM     16  C   UNL     1      -9.135   3.652 133.771  0.00  0.00    +0.000 C 
ATOM     17  C   UNL     1      -6.807   3.075 134.249  0.00  0.00    +0.000 C 
ENDBRANCH  12  14
ENDBRANCH  11  12
ENDBRANCH   1  11
TORSDOF 4
ENDMDL
MODEL 8
REMARK VINA RESULT:      -5.9      8.640     11.076
REMARK  Name = Bupropion
REMARK  8 active torsions:
REMARK  status: ('A' for Active; 'I' for Inactive)
REMARK    1  A    between atoms: C_1  and  C_2
REMARK    2  A    between atoms: C_2  and  N_3
REMARK    3  A    between atoms: C_2  and  C_8
REMARK    4  A    between atoms: N_3  and  C_4
REMARK    5  A    between atoms: C_4  and  C_5
REMARK    6  A    between atoms: C_4  and  C_6
REMARK    7  A    between atoms: C_4  and  C_7
REMARK    8  A    between atoms: C_8  and  C_10
REMARK                            x       y       z     vdW  Elec       q    Type
REMARK                         _______ _______ _______ _____ _____    ______ ____
ROOT
ATOM      1  C   UNL     1      -7.603  -2.728 124.905  0.00  0.00    +0.000 C 
ATOM      2  O   UNL     1      -6.534  -3.125 124.453  0.00  0.00    +0.000 OA
ENDROOT
BRANCH   1   3
ATOM      3  C   UNL     1      -7.788  -2.868 126.374  0.00  0.00    +0.000 A 
ATOM      4  C   UNL     1      -7.087  -2.091 127.294  0.00  0.00    +0.000 A 
ATOM      5  C   UNL     1      -7.309  -2.249 128.656  0.00  0.00    +0.000 A 
ATOM      6 CL   UNL     1      -6.367  -1.333 129.766  0.00  0.00    +0.000 Cl
ATOM      7  C   UNL     1      -8.290  -3.121 129.112  0.00  0.00    +0.000 A 
ATOM      8  C   UNL     1      -9.032  -3.869 128.197  0.00  0.00    +0.000 A 
ATOM      9  C   UNL     1      -8.772  -3.755 126.828  0.00  0.00    +0.000 A 
ENDBRANCH   1   3
BRANCH   1  11
ATOM     10  C   UNL     1      -9.478  -2.981 123.334  0.00  0.00    +0.000 C 
ATOM     11  C   UNL     1      -8.636  -1.933 124.062  0.00  0.00    +0.000 C 
BRANCH  11  12
ATOM     12  N   UNL     1      -9.438  -0.996 124.893  0.00  0.00    +0.000 NA
ATOM     13  H   UNL     1      -9.327  -1.289 125.859  0.00  0.00    +0.000 HD
BRANCH  12  14
ATOM     14  C   UNL     1      -9.029   0.425 124.937  0.00  0.00    +0.000 C 
ATOM     15  C   UNL     1      -8.988   0.901 126.397  0.00  0.00    +0.000 C 
ATOM     16  C   UNL     1      -7.719   0.722 124.205  0.00  0.00    +0.000 C 
ATOM     17  C   UNL     1     -10.110   1.235 124.185  0.00  0.00    +0.000 C 
ENDBRANCH  12  14
ENDBRANCH  11  12
ENDBRANCH   1  11
TORSDOF 4
ENDMDL
MODEL 9
REMARK VINA RESULT:      -5.9      1.824      2.408
REMARK  Name = Bupropion
REMARK  8 active torsions:
REMARK  status: ('A' for Active; 'I' for Inactive)
REMARK    1  A    between atoms: C_1  and  C_2
REMARK    2  A    between atoms: C_2  and  N_3
REMARK    3  A    between atoms: C_2  and  C_8
REMARK    4  A    between atoms: N_3  and  C_4
REMARK    5  A    between atoms: C_4  and  C_5
REMARK    6  A    between atoms: C_4  and  C_6
REMARK    7  A    between atoms: C_4  and  C_7
REMARK    8  A    between atoms: C_8  and  C_10
REMARK                            x       y       z     vdW  Elec       q    Type
REMARK                         _______ _______ _______ _____ _____    ______ ____
ROOT
ATOM      1  C   UNL     1      -9.500   6.056 131.986  0.00  0.00    +0.000 C 
ATOM      2  O   UNL     1      -9.561   6.278 133.190  0.00  0.00    +0.000 OA
ENDROOT
BRANCH   1   3
ATOM      3  C   UNL     1     -10.543   6.703 131.145  0.00  0.00    +0.000 A 
ATOM      4  C   UNL     1     -10.275   7.202 129.872  0.00  0.00    +0.000 A 
ATOM      5  C   UNL     1     -11.288   7.781 129.120  0.00  0.00    +0.000 A 
ATOM      6 CL   UNL     1     -10.904   8.461 127.587  0.00  0.00    +0.000 Cl
ATOM      7  C   UNL     1     -12.594   7.796 129.593  0.00  0.00    +0.000 A 
ATOM      8  C   UNL     1     -12.883   7.255 130.846  0.00  0.00    +0.000 A 
ATOM      9  C   UNL     1     -11.857   6.722 131.630  0.00  0.00    +0.000 A 
ENDBRANCH   1   3
BRANCH   1  11
ATOM     10  C   UNL     1      -7.118   6.282 131.415  0.00  0.00    +0.000 C 
ATOM     11  C   UNL     1      -8.306   5.324 131.318  0.00  0.00    +0.000 C 
BRANCH  11  12
ATOM     12  N   UNL     1      -8.050   3.993 131.930  0.00  0.00    +0.000 NA
ATOM     13  H   UNL     1      -8.527   3.983 132.826  0.00  0.00    +0.000 HD
BRANCH  12  14
ATOM     14  C   UNL     1      -8.600   2.796 131.257  0.00  0.00    +0.000 C 
ATOM     15  C   UNL     1      -9.164   3.195 129.885  0.00  0.00    +0.000 C 
ATOM     16  C   UNL     1      -7.616   1.630 131.150  0.00  0.00    +0.000 C 
ATOM     17  C   UNL     1      -9.760   2.272 132.133  0.00  0.00    +0.000 C 
ENDBRANCH  12  14
ENDBRANCH  11  12
ENDBRANCH   1  11
TORSDOF 4
ENDMDL
