MODEL 1
REMARK VINA RESULT:      -8.4      0.000      0.000
REMARK  Name = Buprenorphine
REMARK  12 active torsions:
REMARK  status: ('A' for Active; 'I' for Inactive)
REMARK    1  A    between atoms: C_1  and  O_2
REMARK    2  A    between atoms: O_2  and  C_3
REMARK    3  A    between atoms: C_8  and  C_9
REMARK    4  A    between atoms: C_9  and  C_10
REMARK    5  A    between atoms: C_9  and  O_11
REMARK    6  A    between atoms: C_9  and  C_12
REMARK    7  A    between atoms: C_12  and  C_13
REMARK    8  A    between atoms: C_12  and  C_14
REMARK    9  A    between atoms: C_12  and  C_15
REMARK   10  A    between atoms: N_26  and  C_27
REMARK   11  A    between atoms: C_27  and  C_28
REMARK   12  A    between atoms: C_31  and  O_32
REMARK                            x       y       z     vdW  Elec       q    Type
REMARK                         _______ _______ _______ _____ _____    ______ ____
ROOT
ATOM      1  C   UNL     1      -7.928   2.908 129.777  0.00  0.00    +0.000 C 
ATOM      2  C   UNL     1      -7.399   1.563 130.074  0.00  0.00    +0.000 C 
ATOM      3  C   UNL     1      -6.122   1.677 129.303  0.00  0.00    +0.000 C 
ATOM      4  C   UNL     1      -6.296   2.847 128.296  0.00  0.00    +0.000 C 
ATOM      5  C   UNL     1      -6.957   4.318 128.468  0.00  0.00    +0.000 C 
ATOM      6  C   UNL     1      -7.676   4.346 129.702  0.00  0.00    +0.000 C 
ATOM      7  C   UNL     1      -5.311   2.964 127.439  0.00  0.00    +0.000 C 
ATOM      8  C   UNL     1      -5.000   0.970 126.775  0.00  0.00    +0.000 C 
ATOM      9  C   UNL     1      -6.146   0.301 126.210  0.00  0.00    +0.000 A 
ATOM     10  C   UNL     1      -7.084   1.181 126.385  0.00  0.00    +0.000 A 
ATOM     11  C   UNL     1      -8.394   0.778 126.373  0.00  0.00    +0.000 A 
ATOM     12  O   UNL     1      -9.064   1.619 127.221  0.00  0.00    +0.000 OA
ATOM     13  C   UNL     1      -7.914   2.557 127.764  0.00  0.00    +0.000 C 
ATOM     14  C   UNL     1      -6.268   2.414 126.797  0.00  0.00    +0.000 C 
ATOM     15  C   UNL     1      -4.089   2.583 126.261  0.00  0.00    +0.000 C 
ATOM     16  C   UNL     1      -3.376   3.784 126.826  0.00  0.00    +0.000 C 
ATOM     17  N   UNL     1      -4.174   3.702 127.991  0.00  0.00    +0.000 NA
ATOM     18  C   UNL     1      -8.663  -0.423 125.635  0.00  0.00    +0.000 A 
ATOM     19  C   UNL     1      -7.549  -1.108 125.070  0.00  0.00    +0.000 A 
ATOM     20  C   UNL     1      -6.272  -0.712 125.350  0.00  0.00    +0.000 A 
ENDROOT
BRANCH   1  22
ATOM     21  C   UNL     1      -7.136   3.259 132.642  0.00  0.00    +0.000 C 
ATOM     22  O   UNL     1      -6.897   3.171 131.194  0.00  0.00    +0.000 OA
ENDBRANCH   1  22
BRANCH   6  23
ATOM     23  C   UNL     1      -8.931   5.097 129.830  0.00  0.00    +0.000 C 
ATOM     24  C   UNL     1      -9.970   4.083 130.283  0.00  0.00    +0.000 C 
BRANCH  23  25
ATOM     25  C   UNL     1      -8.808   6.290 130.821  0.00  0.00    +0.000 C 
ATOM     26  C   UNL     1      -9.474   7.457 130.107  0.00  0.00    +0.000 C 
ATOM     27  C   UNL     1      -9.536   6.050 132.161  0.00  0.00    +0.000 C 
ATOM     28  C   UNL     1      -7.356   6.702 131.114  0.00  0.00    +0.000 C 
ENDBRANCH  23  25
BRANCH  23  29
ATOM     29  O   UNL     1      -9.142   5.564 128.498  0.00  0.00    +0.000 OA
ATOM     30  H   UNL     1      -9.012   4.825 127.896  0.00  0.00    +0.000 HD
ENDBRANCH  23  29
ENDBRANCH   6  23
BRANCH  18  31
ATOM     31  O   UNL     1      -9.788  -1.126 125.282  0.00  0.00    +0.000 OA
ATOM     32  H   UNL     1     -10.603  -0.973 125.772  0.00  0.00    +0.000 HD
ENDBRANCH  18  31
BRANCH  17  33
ATOM     33  C   UNL     1      -4.394   5.076 128.357  0.00  0.00    +0.000 C 
BRANCH  33  34
ATOM     34  C   UNL     1      -3.258   5.881 127.999  0.00  0.00    +0.000 C 
ATOM     35  C   UNL     1      -3.282   7.328 128.442  0.00  0.00    +0.000 C 
ATOM     36  C   UNL     1      -2.359   6.347 129.123  0.00  0.00    +0.000 C 
ENDBRANCH  33  34
ENDBRANCH  17  33
TORSDOF 7
ENDMDL
MODEL 2
REMARK VINA RESULT:      -8.4      2.711      4.965
REMARK  Name = Buprenorphine
REMARK  12 active torsions:
REMARK  status: ('A' for Active; 'I' for Inactive)
REMARK    1  A    between atoms: C_1  and  O_2
REMARK    2  A    between atoms: O_2  and  C_3
REMARK    3  A    between atoms: C_8  and  C_9
REMARK    4  A    between atoms: C_9  and  C_10
REMARK    5  A    between atoms: C_9  and  O_11
REMARK    6  A    between atoms: C_9  and  C_12
REMARK    7  A    between atoms: C_12  and  C_13
REMARK    8  A    between atoms: C_12  and  C_14
REMARK    9  A    between atoms: C_12  and  C_15
REMARK   10  A    between atoms: N_26  and  C_27
REMARK   11  A    between atoms: C_27  and  C_28
REMARK   12  A    between atoms: C_31  and  O_32
REMARK                            x       y       z     vdW  Elec       q    Type
REMARK                         _______ _______ _______ _____ _____    ______ ____
ROOT
ATOM      1  C   UNL     1      -6.638   1.843 127.718  0.00  0.00    +0.000 C 
ATOM      2  C   UNL     1      -8.015   1.592 128.181  0.00  0.00    +0.000 C 
ATOM      3  C   UNL     1      -7.725   0.389 129.023  0.00  0.00    +0.000 C 
ATOM      4  C   UNL     1      -6.351  -0.172 128.565  0.00  0.00    +0.000 C 
ATOM      5  C   UNL     1      -4.960   0.574 128.191  0.00  0.00    +0.000 C 
ATOM      6  C   UNL     1      -5.223   1.973 128.061  0.00  0.00    +0.000 C 
ATOM      7  C   UNL     1      -6.037  -1.324 129.108  0.00  0.00    +0.000 C 
ATOM      8  C   UNL     1      -7.820  -2.461 128.906  0.00  0.00    +0.000 C 
ATOM      9  C   UNL     1      -8.335  -2.606 127.567  0.00  0.00    +0.000 A 
ATOM     10  C   UNL     1      -7.520  -1.862 126.884  0.00  0.00    +0.000 A 
ATOM     11  C   UNL     1      -7.907  -1.394 125.655  0.00  0.00    +0.000 A 
ATOM     12  O   UNL     1      -7.289  -0.183 125.491  0.00  0.00    +0.000 OA
ATOM     13  C   UNL     1      -6.505  -0.004 126.853  0.00  0.00    +0.000 C 
ATOM     14  C   UNL     1      -6.420  -1.591 127.918  0.00  0.00    +0.000 C 
ATOM     15  C   UNL     1      -6.132  -2.964 129.679  0.00  0.00    +0.000 C 
ATOM     16  C   UNL     1      -5.099  -2.521 130.682  0.00  0.00    +0.000 C 
ATOM     17  N   UNL     1      -5.451  -1.173 130.440  0.00  0.00    +0.000 NA
ATOM     18  C   UNL     1      -8.901  -2.180 124.981  0.00  0.00    +0.000 A 
ATOM     19  C   UNL     1      -9.435  -3.300 125.680  0.00  0.00    +0.000 A 
ATOM     20  C   UNL     1      -9.118  -3.520 126.990  0.00  0.00    +0.000 A 
ENDROOT
BRANCH   1  22
ATOM     21  C   UNL     1      -7.055   4.070 129.674  0.00  0.00    +0.000 C 
ATOM     22  O   UNL     1      -6.716   2.698 129.267  0.00  0.00    +0.000 OA
ENDBRANCH   1  22
BRANCH   6  23
ATOM     23  C   UNL     1      -4.521   2.784 127.058  0.00  0.00    +0.000 C 
ATOM     24  C   UNL     1      -5.607   3.342 126.151  0.00  0.00    +0.000 C 
BRANCH  23  25
ATOM     25  C   UNL     1      -3.664   3.910 127.704  0.00  0.00    +0.000 C 
ATOM     26  C   UNL     1      -2.311   3.811 127.015  0.00  0.00    +0.000 C 
ATOM     27  C   UNL     1      -4.235   5.325 127.469  0.00  0.00    +0.000 C 
ATOM     28  C   UNL     1      -3.425   3.717 129.211  0.00  0.00    +0.000 C 
ENDBRANCH  23  25
BRANCH  23  29
ATOM     29  O   UNL     1      -3.689   1.819 126.415  0.00  0.00    +0.000 OA
ATOM     30  H   UNL     1      -3.743   0.997 126.912  0.00  0.00    +0.000 HD
ENDBRANCH  23  29
ENDBRANCH   6  23
BRANCH  18  31
ATOM     31  O   UNL     1      -9.499  -2.154 123.746  0.00  0.00    +0.000 OA
ATOM     32  H   UNL     1     -10.385  -1.784 123.667  0.00  0.00    +0.000 HD
ENDBRANCH  18  31
BRANCH  17  33
ATOM     33  C   UNL     1      -4.202  -0.466 130.535  0.00  0.00    +0.000 C 
BRANCH  33  34
ATOM     34  C   UNL     1      -4.089   0.189 131.811  0.00  0.00    +0.000 C 
ATOM     35  C   UNL     1      -4.026   1.700 131.797  0.00  0.00    +0.000 C 
ATOM     36  C   UNL     1      -5.275   1.003 132.277  0.00  0.00    +0.000 C 
ENDBRANCH  33  34
ENDBRANCH  17  33
TORSDOF 7
ENDMDL
MODEL 3
REMARK VINA RESULT:      -8.3      3.302      5.126
REMARK  Name = Buprenorphine
REMARK  12 active torsions:
REMARK  status: ('A' for Active; 'I' for Inactive)
REMARK    1  A    between atoms: C_1  and  O_2
REMARK    2  A    between atoms: O_2  and  C_3
REMARK    3  A    between atoms: C_8  and  C_9
REMARK    4  A    between atoms: C_9  and  C_10
REMARK    5  A    between atoms: C_9  and  O_11
REMARK    6  A    between atoms: C_9  and  C_12
REMARK    7  A    between atoms: C_12  and  C_13
REMARK    8  A    between atoms: C_12  and  C_14
REMARK    9  A    between atoms: C_12  and  C_15
REMARK   10  A    between atoms: N_26  and  C_27
REMARK   11  A    between atoms: C_27  and  C_28
REMARK   12  A    between atoms: C_31  and  O_32
REMARK                            x       y       z     vdW  Elec       q    Type
REMARK                         _______ _______ _______ _____ _____    ______ ____
ROOT
ATOM      1  C   UNL     1      -6.854   1.371 129.459  0.00  0.00    +0.000 C 
ATOM      2  C   UNL     1      -8.172   0.904 129.931  0.00  0.00    +0.000 C 
ATOM      3  C   UNL     1      -7.725  -0.403 130.506  0.00  0.00    +0.000 C 
ATOM      4  C   UNL     1      -6.341  -0.732 129.881  0.00  0.00    +0.000 C 
ATOM      5  C   UNL     1      -5.047   0.203 129.592  0.00  0.00    +0.000 C 
ATOM      6  C   UNL     1      -5.436   1.569 129.752  0.00  0.00    +0.000 C 
ATOM      7  C   UNL     1      -5.895  -1.930 130.172  0.00  0.00    +0.000 C 
ATOM      8  C   UNL     1      -7.583  -3.175 129.838  0.00  0.00    +0.000 C 
ATOM      9  C   UNL     1      -8.172  -3.111 128.523  0.00  0.00    +0.000 A 
ATOM     10  C   UNL     1      -7.471  -2.175 127.960  0.00  0.00    +0.000 A 
ATOM     11  C   UNL     1      -7.977  -1.522 126.867  0.00  0.00    +0.000 A 
ATOM     12  O   UNL     1      -7.476  -0.248 126.913  0.00  0.00    +0.000 OA
ATOM     13  C   UNL     1      -6.623  -0.256 128.244  0.00  0.00    +0.000 C 
ATOM     14  C   UNL     1      -6.331  -2.002 128.973  0.00  0.00    +0.000 C 
ATOM     15  C   UNL     1      -5.811  -3.650 130.415  0.00  0.00    +0.000 C 
ATOM     16  C   UNL     1      -4.756  -3.309 131.433  0.00  0.00    +0.000 C 
ATOM     17  N   UNL     1      -5.237  -1.979 131.478  0.00  0.00    +0.000 NA
ATOM     18  C   UNL     1      -8.942  -2.257 126.101  0.00  0.00    +0.000 A 
ATOM     19  C   UNL     1      -9.332  -3.536 126.593  0.00  0.00    +0.000 A 
ATOM     20  C   UNL     1      -8.911  -3.970 127.818  0.00  0.00    +0.000 A 
ENDROOT
BRANCH   1  22
ATOM     21  C   UNL     1      -7.465   3.068 131.848  0.00  0.00    +0.000 C 
ATOM     22  O   UNL     1      -6.902   1.903 131.148  0.00  0.00    +0.000 OA
ENDBRANCH   1  22
BRANCH   6  23
ATOM     23  C   UNL     1      -4.874   2.620 128.895  0.00  0.00    +0.000 C 
ATOM     24  C   UNL     1      -6.020   3.078 128.006  0.00  0.00    +0.000 C 
BRANCH  23  25
ATOM     25  C   UNL     1      -4.268   3.792 129.718  0.00  0.00    +0.000 C 
ATOM     26  C   UNL     1      -3.040   4.226 128.930  0.00  0.00    +0.000 C 
ATOM     27  C   UNL     1      -5.219   5.001 129.853  0.00  0.00    +0.000 C 
ATOM     28  C   UNL     1      -3.790   3.381 131.120  0.00  0.00    +0.000 C 
ENDBRANCH  23  25
BRANCH  23  29
ATOM     29  O   UNL     1      -3.854   1.919 128.184  0.00  0.00    +0.000 OA
ATOM     30  H   UNL     1      -4.277   1.281 127.601  0.00  0.00    +0.000 HD
ENDBRANCH  23  29
ENDBRANCH   6  23
BRANCH  18  31
ATOM     31  O   UNL     1      -9.622  -2.054 124.926  0.00  0.00    +0.000 OA
ATOM     32  H   UNL     1     -10.573  -2.206 124.907  0.00  0.00    +0.000 HD
ENDBRANCH  18  31
BRANCH  17  33
ATOM     33  C   UNL     1      -4.049  -1.186 131.649  0.00  0.00    +0.000 C 
BRANCH  33  34
ATOM     34  C   UNL     1      -3.916  -0.767 133.018  0.00  0.00    +0.000 C 
ATOM     35  C   UNL     1      -3.138   0.507 133.267  0.00  0.00    +0.000 C 
ATOM     36  C   UNL     1      -4.638   0.498 133.426  0.00  0.00    +0.000 C 
ENDBRANCH  33  34
ENDBRANCH  17  33
TORSDOF 7
ENDMDL
MODEL 4
REMARK VINA RESULT:      -8.2      2.506      6.645
REMARK  Name = Buprenorphine
REMARK  12 active torsions:
REMARK  status: ('A' for Active; 'I' for Inactive)
REMARK    1  A    between atoms: C_1  and  O_2
REMARK    2  A    between atoms: O_2  and  C_3
REMARK    3  A    between atoms: C_8  and  C_9
REMARK    4  A    between atoms: C_9  and  C_10
REMARK    5  A    between atoms: C_9  and  O_11
REMARK    6  A    between atoms: C_9  and  C_12
REMARK    7  A    between atoms: C_12  and  C_13
REMARK    8  A    between atoms: C_12  and  C_14
REMARK    9  A    between atoms: C_12  and  C_15
REMARK   10  A    between atoms: N_26  and  C_27
REMARK   11  A    between atoms: C_27  and  C_28
REMARK   12  A    between atoms: C_31  and  O_32
REMARK                            x       y       z     vdW  Elec       q    Type
REMARK                         _______ _______ _______ _____ _____    ______ ____
ROOT
ATOM      1  C   UNL     1      -6.947   3.097 127.146  0.00  0.00    +0.000 C 
ATOM      2  C   UNL     1      -6.013   3.327 128.263  0.00  0.00    +0.000 C 
ATOM      3  C   UNL     1      -6.072   1.955 128.857  0.00  0.00    +0.000 C 
ATOM      4  C   UNL     1      -7.360   1.275 128.317  0.00  0.00    +0.000 C 
ATOM      5  C   UNL     1      -8.017   1.251 126.834  0.00  0.00    +0.000 C 
ATOM      6  C   UNL     1      -7.360   2.239 126.037  0.00  0.00    +0.000 C 
ATOM      7  C   UNL     1      -7.629   0.120 128.877  0.00  0.00    +0.000 C 
ATOM      8  C   UNL     1      -7.369   0.510 130.949  0.00  0.00    +0.000 C 
ATOM      9  C   UNL     1      -8.157   1.586 131.499  0.00  0.00    +0.000 A 
ATOM     10  C   UNL     1      -8.749   2.052 130.442  0.00  0.00    +0.000 A 
ATOM     11  C   UNL     1      -9.249   3.327 130.462  0.00  0.00    +0.000 A 
ATOM     12  O   UNL     1      -9.152   3.800 129.179  0.00  0.00    +0.000 OA
ATOM     13  C   UNL     1      -8.469   2.596 128.415  0.00  0.00    +0.000 C 
ATOM     14  C   UNL     1      -8.428   0.962 129.411  0.00  0.00    +0.000 C 
ATOM     15  C   UNL     1      -7.884  -1.121 130.069  0.00  0.00    +0.000 C 
ATOM     16  C   UNL     1      -7.477  -2.061 128.965  0.00  0.00    +0.000 C 
ATOM     17  N   UNL     1      -6.880  -0.982 128.273  0.00  0.00    +0.000 NA
ATOM     18  C   UNL     1      -9.586   3.839 131.759  0.00  0.00    +0.000 A 
ATOM     19  C   UNL     1      -9.292   3.015 132.884  0.00  0.00    +0.000 A 
ATOM     20  C   UNL     1      -8.586   1.856 132.734  0.00  0.00    +0.000 A 
ENDROOT
BRANCH   1  22
ATOM     21  C   UNL     1      -4.194   3.253 125.983  0.00  0.00    +0.000 C 
ATOM     22  O   UNL     1      -5.387   2.564 126.498  0.00  0.00    +0.000 OA
ENDBRANCH   1  22
BRANCH   6  23
ATOM     23  C   UNL     1      -8.100   3.013 125.032  0.00  0.00    +0.000 C 
ATOM     24  C   UNL     1      -7.964   4.468 125.457  0.00  0.00    +0.000 C 
BRANCH  23  25
ATOM     25  C   UNL     1      -7.567   2.773 123.591  0.00  0.00    +0.000 C 
ATOM     26  C   UNL     1      -7.038   1.346 123.606  0.00  0.00    +0.000 C 
ATOM     27  C   UNL     1      -8.661   2.882 122.508  0.00  0.00    +0.000 C 
ATOM     28  C   UNL     1      -6.396   3.691 123.204  0.00  0.00    +0.000 C 
ENDBRANCH  23  25
BRANCH  23  29
ATOM     29  O   UNL     1      -9.427   2.506 125.174  0.00  0.00    +0.000 OA
ATOM     30  H   UNL     1      -9.939   3.143 125.680  0.00  0.00    +0.000 HD
ENDBRANCH  23  29
ENDBRANCH   6  23
BRANCH  18  31
ATOM     31  O   UNL     1     -10.179   4.979 132.240  0.00  0.00    +0.000 OA
ATOM     32  H   UNL     1     -10.966   4.897 132.789  0.00  0.00    +0.000 HD
ENDBRANCH  18  31
BRANCH  17  33
ATOM     33  C   UNL     1      -7.136  -1.274 126.888  0.00  0.00    +0.000 C 
BRANCH  33  34
ATOM     34  C   UNL     1      -8.048  -2.379 126.766  0.00  0.00    +0.000 C 
ATOM     35  C   UNL     1      -9.215  -2.197 125.820  0.00  0.00    +0.000 C 
ATOM     36  C   UNL     1      -8.074  -3.110 125.442  0.00  0.00    +0.000 C 
ENDBRANCH  33  34
ENDBRANCH  17  33
TORSDOF 7
ENDMDL
MODEL 5
REMARK VINA RESULT:      -8.0      2.766      6.928
REMARK  Name = Buprenorphine
REMARK  12 active torsions:
REMARK  status: ('A' for Active; 'I' for Inactive)
REMARK    1  A    between atoms: C_1  and  O_2
REMARK    2  A    between atoms: O_2  and  C_3
REMARK    3  A    between atoms: C_8  and  C_9
REMARK    4  A    between atoms: C_9  and  C_10
REMARK    5  A    between atoms: C_9  and  O_11
REMARK    6  A    between atoms: C_9  and  C_12
REMARK    7  A    between atoms: C_12  and  C_13
REMARK    8  A    between atoms: C_12  and  C_14
REMARK    9  A    between atoms: C_12  and  C_15
REMARK   10  A    between atoms: N_26  and  C_27
REMARK   11  A    between atoms: C_27  and  C_28
REMARK   12  A    between atoms: C_31  and  O_32
REMARK                            x       y       z     vdW  Elec       q    Type
REMARK                         _______ _______ _______ _____ _____    ______ ____
ROOT
ATOM      1  C   UNL     1      -7.173   4.931 131.827  0.00  0.00    +0.000 C 
ATOM      2  C   UNL     1      -7.367   6.390 131.925  0.00  0.00    +0.000 C 
ATOM      3  C   UNL     1      -6.398   6.790 130.857  0.00  0.00    +0.000 C 
ATOM      4  C   UNL     1      -5.444   5.585 130.626  0.00  0.00    +0.000 C 
ATOM      5  C   UNL     1      -5.736   3.993 130.523  0.00  0.00    +0.000 C 
ATOM      6  C   UNL     1      -7.072   3.752 130.968  0.00  0.00    +0.000 C 
ATOM      7  C   UNL     1      -4.438   5.846 129.827  0.00  0.00    +0.000 C 
ATOM      8  C   UNL     1      -3.713   7.709 130.545  0.00  0.00    +0.000 C 
ATOM      9  C   UNL     1      -3.337   7.753 131.937  0.00  0.00    +0.000 A 
ATOM     10  C   UNL     1      -3.672   6.566 132.343  0.00  0.00    +0.000 A 
ATOM     11  C   UNL     1      -3.870   6.346 133.680  0.00  0.00    +0.000 A 
ATOM     12  O   UNL     1      -4.825   5.368 133.773  0.00  0.00    +0.000 OA
ATOM     13  C   UNL     1      -5.181   5.084 132.259  0.00  0.00    +0.000 C 
ATOM     14  C   UNL     1      -3.956   5.861 131.010  0.00  0.00    +0.000 C 
ATOM     15  C   UNL     1      -3.072   6.631 129.088  0.00  0.00    +0.000 C 
ATOM     16  C   UNL     1      -3.525   5.921 127.839  0.00  0.00    +0.000 C 
ATOM     17  N   UNL     1      -4.804   5.736 128.414  0.00  0.00    +0.000 NA
ATOM     18  C   UNL     1      -3.175   7.238 134.563  0.00  0.00    +0.000 A 
ATOM     19  C   UNL     1      -2.428   8.296 133.969  0.00  0.00    +0.000 A 
ATOM     20  C   UNL     1      -2.499   8.531 132.626  0.00  0.00    +0.000 A 
ENDROOT
BRANCH   1  22
ATOM     21  C   UNL     1      -9.870   5.385 130.611  0.00  0.00    +0.000 C 
ATOM     22  O   UNL     1      -8.404   5.268 130.599  0.00  0.00    +0.000 OA
ENDBRANCH   1  22
BRANCH   6  23
ATOM     23  C   UNL     1      -7.410   2.536 131.719  0.00  0.00    +0.000 C 
ATOM     24  C   UNL     1      -7.904   3.017 133.075  0.00  0.00    +0.000 C 
BRANCH  23  25
ATOM     25  C   UNL     1      -8.471   1.666 130.986  0.00  0.00    +0.000 C 
ATOM     26  C   UNL     1      -9.763   1.900 131.755  0.00  0.00    +0.000 C 
ATOM     27  C   UNL     1      -8.692   2.080 129.515  0.00  0.00    +0.000 C 
ATOM     28  C   UNL     1      -8.175   0.158 131.036  0.00  0.00    +0.000 C 
ENDBRANCH  23  25
BRANCH  23  29
ATOM     29  O   UNL     1      -6.155   1.859 131.782  0.00  0.00    +0.000 OA
ATOM     30  H   UNL     1      -5.494   2.482 132.097  0.00  0.00    +0.000 HD
ENDBRANCH  23  29
ENDBRANCH   6  23
BRANCH  18  31
ATOM     31  O   UNL     1      -3.004   7.338 135.921  0.00  0.00    +0.000 OA
ATOM     32  H   UNL     1      -2.932   6.531 136.441  0.00  0.00    +0.000 HD
ENDBRANCH  18  31
BRANCH  17  33
ATOM     33  C   UNL     1      -5.214   4.443 127.938  0.00  0.00    +0.000 C 
BRANCH  33  34
ATOM     34  C   UNL     1      -4.394   4.029 126.831  0.00  0.00    +0.000 C 
ATOM     35  C   UNL     1      -4.236   2.540 126.620  0.00  0.00    +0.000 C 
ATOM     36  C   UNL     1      -5.088   3.348 125.673  0.00  0.00    +0.000 C 
ENDBRANCH  33  34
ENDBRANCH  17  33
TORSDOF 7
ENDMDL
MODEL 6
REMARK VINA RESULT:      -7.9      3.347      5.938
REMARK  Name = Buprenorphine
REMARK  12 active torsions:
REMARK  status: ('A' for Active; 'I' for Inactive)
REMARK    1  A    between atoms: C_1  and  O_2
REMARK    2  A    between atoms: O_2  and  C_3
REMARK    3  A    between atoms: C_8  and  C_9
REMARK    4  A    between atoms: C_9  and  C_10
REMARK    5  A    between atoms: C_9  and  O_11
REMARK    6  A    between atoms: C_9  and  C_12
REMARK    7  A    between atoms: C_12  and  C_13
REMARK    8  A    between atoms: C_12  and  C_14
REMARK    9  A    between atoms: C_12  and  C_15
REMARK   10  A    between atoms: N_26  and  C_27
REMARK   11  A    between atoms: C_27  and  C_28
REMARK   12  A    between atoms: C_31  and  O_32
REMARK                            x       y       z     vdW  Elec       q    Type
REMARK                         _______ _______ _______ _____ _____    ______ ____
ROOT
ATOM      1  C   UNL     1      -6.793   1.727 128.728  0.00  0.00    +0.000 C 
ATOM      2  C   UNL     1      -8.070   2.207 128.167  0.00  0.00    +0.000 C 
ATOM      3  C   UNL     1      -8.337   1.048 127.260  0.00  0.00    +0.000 C 
ATOM      4  C   UNL     1      -6.989   0.304 127.055  0.00  0.00    +0.000 C 
ATOM      5  C   UNL     1      -5.812  -0.087 128.100  0.00  0.00    +0.000 C 
ATOM      6  C   UNL     1      -6.041   0.621 129.320  0.00  0.00    +0.000 C 
ATOM      7  C   UNL     1      -7.035  -0.646 126.152  0.00  0.00    +0.000 C 
ATOM      8  C   UNL     1      -8.050   0.272 124.528  0.00  0.00    +0.000 C 
ATOM      9  C   UNL     1      -7.468   1.489 124.018  0.00  0.00    +0.000 A 
ATOM     10  C   UNL     1      -6.483   1.681 124.842  0.00  0.00    +0.000 A 
ATOM     11  C   UNL     1      -5.945   2.935 124.964  0.00  0.00    +0.000 A 
ATOM     12  O   UNL     1      -5.507   3.042 126.257  0.00  0.00    +0.000 OA
ATOM     13  C   UNL     1      -5.919   1.650 126.882  0.00  0.00    +0.000 C 
ATOM     14  C   UNL     1      -6.451   0.342 125.590  0.00  0.00    +0.000 C 
ATOM     15  C   UNL     1      -7.345  -1.510 124.674  0.00  0.00    +0.000 C 
ATOM     16  C   UNL     1      -7.354  -2.729 125.560  0.00  0.00    +0.000 C 
ATOM     17  N   UNL     1      -7.564  -1.901 126.688  0.00  0.00    +0.000 NA
ATOM     18  C   UNL     1      -6.104   3.789 123.822  0.00  0.00    +0.000 A 
ATOM     19  C   UNL     1      -6.864   3.285 122.728  0.00  0.00    +0.000 A 
ATOM     20  C   UNL     1      -7.533   2.098 122.832  0.00  0.00    +0.000 A 
ENDROOT
BRANCH   1  22
ATOM     21  C   UNL     1      -8.793   1.418 130.933  0.00  0.00    +0.000 C 
ATOM     22  O   UNL     1      -8.012   0.973 129.769  0.00  0.00    +0.000 OA
ENDBRANCH   1  22
BRANCH   6  23
ATOM     23  C   UNL     1      -4.920   1.130 130.120  0.00  0.00    +0.000 C 
ATOM     24  C   UNL     1      -5.310   2.546 130.515  0.00  0.00    +0.000 C 
BRANCH  23  25
ATOM     25  C   UNL     1      -4.628   0.238 131.360  0.00  0.00    +0.000 C 
ATOM     26  C   UNL     1      -3.822   1.127 132.296  0.00  0.00    +0.000 C 
ATOM     27  C   UNL     1      -5.903  -0.225 132.096  0.00  0.00    +0.000 C 
ATOM     28  C   UNL     1      -3.765  -0.995 131.044  0.00  0.00    +0.000 C 
ENDBRANCH  23  25
BRANCH  23  29
ATOM     29  O   UNL     1      -3.837   1.081 129.192  0.00  0.00    +0.000 OA
ATOM     30  H   UNL     1      -3.899   0.256 128.702  0.00  0.00    +0.000 HD
ENDBRANCH  23  29
ENDBRANCH   6  23
BRANCH  18  31
ATOM     31  O   UNL     1      -5.669   5.041 123.466  0.00  0.00    +0.000 OA
ATOM     32  H   UNL     1      -5.707   5.749 124.119  0.00  0.00    +0.000 HD
ENDBRANCH  18  31
BRANCH  17  33
ATOM     33  C   UNL     1      -6.811  -2.541 127.733  0.00  0.00    +0.000 C 
BRANCH  33  34
ATOM     34  C   UNL     1      -7.695  -3.187 128.667  0.00  0.00    +0.000 C 
ATOM     35  C   UNL     1      -7.099  -3.594 129.996  0.00  0.00    +0.000 C 
ATOM     36  C   UNL     1      -8.048  -2.423 129.924  0.00  0.00    +0.000 C 
ENDBRANCH  33  34
ENDBRANCH  17  33
TORSDOF 7
ENDMDL
MODEL 7
REMARK VINA RESULT:      -7.9      2.808      5.345
REMARK  Name = Buprenorphine
REMARK  12 active torsions:
REMARK  status: ('A' for Active; 'I' for Inactive)
REMARK    1  A    between atoms: C_1  and  O_2
REMARK    2  A    between atoms: O_2  and  C_3
REMARK    3  A    between atoms: C_8  and  C_9
REMARK    4  A    between atoms: C_9  and  C_10
REMARK    5  A    between atoms: C_9  and  O_11
REMARK    6  A    between atoms: C_9  and  C_12
REMARK    7  A    between atoms: C_12  and  C_13
REMARK    8  A    between atoms: C_12  and  C_14
REMARK    9  A    between atoms: C_12  and  C_15
REMARK   10  A    between atoms: N_26  and  C_27
REMARK   11  A    between atoms: C_27  and  C_28
REMARK   12  A    between atoms: C_31  and  O_32
REMARK                            x       y       z     vdW  Elec       q    Type
REMARK                         _______ _______ _______ _____ _____    ______ ____
ROOT
ATOM      1  C   UNL     1      -6.684   1.574 127.629  0.00  0.00    +0.000 C 
ATOM      2  C   UNL     1      -7.982   1.371 126.959  0.00  0.00    +0.000 C 
ATOM      3  C   UNL     1      -8.380   0.118 127.672  0.00  0.00    +0.000 C 
ATOM      4  C   UNL     1      -7.090  -0.490 128.288  0.00  0.00    +0.000 C 
ATOM      5  C   UNL     1      -5.845   0.201 129.064  0.00  0.00    +0.000 C 
ATOM      6  C   UNL     1      -5.933   1.616 128.883  0.00  0.00    +0.000 C 
ATOM      7  C   UNL     1      -7.259  -1.680 128.812  0.00  0.00    +0.000 C 
ATOM      8  C   UNL     1      -8.370  -2.716 127.327  0.00  0.00    +0.000 C 
ATOM      9  C   UNL     1      -7.780  -2.771 126.013  0.00  0.00    +0.000 A 
ATOM     10  C   UNL     1      -6.719  -2.039 126.164  0.00  0.00    +0.000 A 
ATOM     11  C   UNL     1      -6.116  -1.495 125.060  0.00  0.00    +0.000 A 
ATOM     12  O   UNL     1      -5.561  -0.311 125.467  0.00  0.00    +0.000 OA
ATOM     13  C   UNL     1      -5.979  -0.235 126.990  0.00  0.00    +0.000 C 
ATOM     14  C   UNL     1      -6.682  -1.872 127.689  0.00  0.00    +0.000 C 
ATOM     15  C   UNL     1      -7.736  -3.338 129.033  0.00  0.00    +0.000 C 
ATOM     16  C   UNL     1      -7.723  -2.995 130.500  0.00  0.00    +0.000 C 
ATOM     17  N   UNL     1      -7.795  -1.621 130.173  0.00  0.00    +0.000 NA
ATOM     18  C   UNL     1      -6.335  -2.197 123.828  0.00  0.00    +0.000 A 
ATOM     19  C   UNL     1      -7.211  -3.321 123.862  0.00  0.00    +0.000 A 
ATOM     20  C   UNL     1      -7.921  -3.617 124.990  0.00  0.00    +0.000 A 
ENDROOT
BRANCH   1  22
ATOM     21  C   UNL     1      -8.421   3.706 128.809  0.00  0.00    +0.000 C 
ATOM     22  O   UNL     1      -7.840   2.359 128.718  0.00  0.00    +0.000 OA
ENDBRANCH   1  22
BRANCH   6  23
ATOM     23  C   UNL     1      -4.725   2.437 128.734  0.00  0.00    +0.000 C 
ATOM     24  C   UNL     1      -4.764   2.967 127.309  0.00  0.00    +0.000 C 
BRANCH  23  25
ATOM     25  C   UNL     1      -4.656   3.583 129.783  0.00  0.00    +0.000 C 
ATOM     26  C   UNL     1      -5.225   4.799 129.066  0.00  0.00    +0.000 C 
ATOM     27  C   UNL     1      -5.506   3.311 131.043  0.00  0.00    +0.000 C 
ATOM     28  C   UNL     1      -3.225   3.937 130.219  0.00  0.00    +0.000 C 
ENDBRANCH  23  25
BRANCH  23  29
ATOM     29  O   UNL     1      -3.683   1.485 128.953  0.00  0.00    +0.000 OA
ATOM     30  H   UNL     1      -3.354   1.602 129.849  0.00  0.00    +0.000 HD
ENDBRANCH  23  29
ENDBRANCH   6  23
BRANCH  18  31
ATOM     31  O   UNL     1      -5.877  -2.084 122.539  0.00  0.00    +0.000 OA
ATOM     32  H   UNL     1      -5.072  -2.551 122.290  0.00  0.00    +0.000 HD
ENDBRANCH  18  31
BRANCH  17  33
ATOM     33  C   UNL     1      -6.983  -0.984 131.175  0.00  0.00    +0.000 C 
BRANCH  33  34
ATOM     34  C   UNL     1      -7.810  -0.400 132.197  0.00  0.00    +0.000 C 
ATOM     35  C   UNL     1      -7.952   1.106 132.179  0.00  0.00    +0.000 C 
ATOM     36  C   UNL     1      -9.109   0.236 131.754  0.00  0.00    +0.000 C 
ENDBRANCH  33  34
ENDBRANCH  17  33
TORSDOF 7
ENDMDL
MODEL 8
REMARK VINA RESULT:      -7.9      2.394      6.998
REMARK  Name = Buprenorphine
REMARK  12 active torsions:
REMARK  status: ('A' for Active; 'I' for Inactive)
REMARK    1  A    between atoms: C_1  and  O_2
REMARK    2  A    between atoms: O_2  and  C_3
REMARK    3  A    between atoms: C_8  and  C_9
REMARK    4  A    between atoms: C_9  and  C_10
REMARK    5  A    between atoms: C_9  and  O_11
REMARK    6  A    between atoms: C_9  and  C_12
REMARK    7  A    between atoms: C_12  and  C_13
REMARK    8  A    between atoms: C_12  and  C_14
REMARK    9  A    between atoms: C_12  and  C_15
REMARK   10  A    between atoms: N_26  and  C_27
REMARK   11  A    between atoms: C_27  and  C_28
REMARK   12  A    between atoms: C_31  and  O_32
REMARK                            x       y       z     vdW  Elec       q    Type
REMARK                         _______ _______ _______ _____ _____    ______ ____
ROOT
ATOM      1  C   UNL     1      -7.024   2.849 127.871  0.00  0.00    +0.000 C 
ATOM      2  C   UNL     1      -6.118   3.457 128.863  0.00  0.00    +0.000 C 
ATOM      3  C   UNL     1      -6.295   2.437 129.944  0.00  0.00    +0.000 C 
ATOM      4  C   UNL     1      -7.606   1.664 129.636  0.00  0.00    +0.000 C 
ATOM      5  C   UNL     1      -8.208   1.087 128.244  0.00  0.00    +0.000 C 
ATOM      6  C   UNL     1      -7.455   1.643 127.165  0.00  0.00    +0.000 C 
ATOM      7  C   UNL     1      -7.977   0.841 130.587  0.00  0.00    +0.000 C 
ATOM      8  C   UNL     1      -7.767   2.006 132.351  0.00  0.00    +0.000 C 
ATOM      9  C   UNL     1      -8.497   3.249 132.384  0.00  0.00    +0.000 A 
ATOM     10  C   UNL     1      -9.015   3.288 131.194  0.00  0.00    +0.000 A 
ATOM     11  C   UNL     1      -9.425   4.490 130.680  0.00  0.00    +0.000 A 
ATOM     12  O   UNL     1      -9.247   4.409 129.324  0.00  0.00    +0.000 OA
ATOM     13  C   UNL     1      -8.623   2.969 129.138  0.00  0.00    +0.000 C 
ATOM     14  C   UNL     1      -8.734   1.864 130.697  0.00  0.00    +0.000 C 
ATOM     15  C   UNL     1      -8.362   0.188 132.153  0.00  0.00    +0.000 C 
ATOM     16  C   UNL     1      -7.981  -1.132 131.535  0.00  0.00    +0.000 C 
ATOM     17  N   UNL     1      -7.284  -0.446 130.513  0.00  0.00    +0.000 NA
ATOM     18  C   UNL     1      -9.773   5.489 131.648  0.00  0.00    +0.000 A 
ATOM     19  C   UNL     1      -9.580   5.165 133.022  0.00  0.00    +0.000 A 
ATOM     20  C   UNL     1      -8.951   4.008 133.383  0.00  0.00    +0.000 A 
ENDROOT
BRANCH   1  22
ATOM     21  C   UNL     1      -4.313   2.294 126.731  0.00  0.00    +0.000 C 
ATOM     22  O   UNL     1      -5.482   2.026 127.582  0.00  0.00    +0.000 OA
ENDBRANCH   1  22
BRANCH   6  23
ATOM     23  C   UNL     1      -8.101   1.992 125.893  0.00  0.00    +0.000 C 
ATOM     24  C   UNL     1      -7.989   3.505 125.780  0.00  0.00    +0.000 C 
BRANCH  23  25
ATOM     25  C   UNL     1      -7.450   1.266 124.682  0.00  0.00    +0.000 C 
ATOM     26  C   UNL     1      -8.624   0.756 123.860  0.00  0.00    +0.000 C 
ATOM     27  C   UNL     1      -6.596   2.199 123.796  0.00  0.00    +0.000 C 
ATOM     28  C   UNL     1      -6.602   0.046 125.076  0.00  0.00    +0.000 C 
ENDBRANCH  23  25
BRANCH  23  29
ATOM     29  O   UNL     1      -9.439   1.539 126.098  0.00  0.00    +0.000 OA
ATOM     30  H   UNL     1      -9.764   1.922 126.918  0.00  0.00    +0.000 HD
ENDBRANCH  23  29
ENDBRANCH   6  23
BRANCH  18  31
ATOM     31  O   UNL     1     -10.302   6.755 131.604  0.00  0.00    +0.000 OA
ATOM     32  H   UNL     1     -10.416   7.239 132.429  0.00  0.00    +0.000 HD
ENDBRANCH  18  31
BRANCH  17  33
ATOM     33  C   UNL     1      -7.509  -1.250 129.341  0.00  0.00    +0.000 C 
BRANCH  33  34
ATOM     34  C   UNL     1      -8.008  -2.548 129.709  0.00  0.00    +0.000 C 
ATOM     35  C   UNL     1      -8.496  -3.433 128.583  0.00  0.00    +0.000 C 
ATOM     36  C   UNL     1      -7.194  -3.748 129.278  0.00  0.00    +0.000 C 
ENDBRANCH  33  34
ENDBRANCH  17  33
TORSDOF 7
ENDMDL
MODEL 9
REMARK VINA RESULT:      -7.8      3.423      6.961
REMARK  Name = Buprenorphine
REMARK  12 active torsions:
REMARK  status: ('A' for Active; 'I' for Inactive)
REMARK    1  A    between atoms: C_1  and  O_2
REMARK    2  A    between atoms: O_2  and  C_3
REMARK    3  A    between atoms: C_8  and  C_9
REMARK    4  A    between atoms: C_9  and  C_10
REMARK    5  A    between atoms: C_9  and  O_11
REMARK    6  A    between atoms: C_9  and  C_12
REMARK    7  A    between atoms: C_12  and  C_13
REMARK    8  A    between atoms: C_12  and  C_14
REMARK    9  A    between atoms: C_12  and  C_15
REMARK   10  A    between atoms: N_26  and  C_27
REMARK   11  A    between atoms: C_27  and  C_28
REMARK   12  A    between atoms: C_31  and  O_32
REMARK                            x       y       z     vdW  Elec       q    Type
REMARK                         _______ _______ _______ _____ _____    ______ ____
ROOT
ATOM      1  C   UNL     1      -6.511   0.112 129.203  0.00  0.00    +0.000 C 
ATOM      2  C   UNL     1      -7.637   1.056 129.080  0.00  0.00    +0.000 C 
ATOM      3  C   UNL     1      -7.975   0.776 127.649  0.00  0.00    +0.000 C 
ATOM      4  C   UNL     1      -6.737   0.089 127.010  0.00  0.00    +0.000 C 
ATOM      5  C   UNL     1      -5.747  -1.068 127.568  0.00  0.00    +0.000 C 
ATOM      6  C   UNL     1      -5.997  -1.236 128.965  0.00  0.00    +0.000 C 
ATOM      7  C   UNL     1      -6.828  -0.073 125.712  0.00  0.00    +0.000 C 
ATOM      8  C   UNL     1      -7.520   1.816 125.030  0.00  0.00    +0.000 C 
ATOM      9  C   UNL     1      -6.714   2.957 125.388  0.00  0.00    +0.000 A 
ATOM     10  C   UNL     1      -5.804   2.418 126.140  0.00  0.00    +0.000 A 
ATOM     11  C   UNL     1      -5.103   3.206 127.014  0.00  0.00    +0.000 A 
ATOM     12  O   UNL     1      -4.792   2.411 128.086  0.00  0.00    +0.000 OA
ATOM     13  C   UNL     1      -5.469   1.033 127.706  0.00  0.00    +0.000 C 
ATOM     14  C   UNL     1      -6.049   0.924 125.885  0.00  0.00    +0.000 C 
ATOM     15  C   UNL     1      -7.105   0.232 124.022  0.00  0.00    +0.000 C 
ATOM     16  C   UNL     1      -7.387  -1.246 123.951  0.00  0.00    +0.000 C 
ATOM     17  N   UNL     1      -7.589  -1.269 125.351  0.00  0.00    +0.000 NA
ATOM     18  C   UNL     1      -5.013   4.593 126.660  0.00  0.00    +0.000 A 
ATOM     19  C   UNL     1      -5.721   5.019 125.498  0.00  0.00    +0.000 A 
ATOM     20  C   UNL     1      -6.564   4.167 124.844  0.00  0.00    +0.000 A 
ENDROOT
BRANCH   1  22
ATOM     21  C   UNL     1      -8.630  -1.289 130.786  0.00  0.00    +0.000 C 
ATOM     22  O   UNL     1      -7.930  -0.887 129.557  0.00  0.00    +0.000 OA
ENDBRANCH   1  22
BRANCH   6  23
ATOM     23  C   UNL     1      -4.904  -1.543 129.897  0.00  0.00    +0.000 C 
ATOM     24  C   UNL     1      -4.803  -0.338 130.820  0.00  0.00    +0.000 C 
BRANCH  23  25
ATOM     25  C   UNL     1      -5.150  -2.863 130.682  0.00  0.00    +0.000 C 
ATOM     26  C   UNL     1      -3.798  -3.560 130.702  0.00  0.00    +0.000 C 
ATOM     27  C   UNL     1      -5.607  -2.631 132.139  0.00  0.00    +0.000 C 
ATOM     28  C   UNL     1      -6.146  -3.813 129.997  0.00  0.00    +0.000 C 
ENDBRANCH  23  25
BRANCH  23  29
ATOM     29  O   UNL     1      -3.786  -1.676 129.019  0.00  0.00    +0.000 OA
ATOM     30  H   UNL     1      -3.936  -2.440 128.455  0.00  0.00    +0.000 HD
ENDBRANCH  23  29
ENDBRANCH   6  23
BRANCH  18  31
ATOM     31  O   UNL     1      -4.364   5.693 127.161  0.00  0.00    +0.000 OA
ATOM     32  H   UNL     1      -3.602   5.561 127.736  0.00  0.00    +0.000 HD
ENDBRANCH  18  31
BRANCH  17  33
ATOM     33  C   UNL     1      -7.054  -2.541 125.757  0.00  0.00    +0.000 C 
BRANCH  33  34
ATOM     34  C   UNL     1      -8.112  -3.496 125.948  0.00  0.00    +0.000 C 
ATOM     35  C   UNL     1      -8.694  -3.597 127.341  0.00  0.00    +0.000 C 
ATOM     36  C   UNL     1      -9.492  -2.949 126.237  0.00  0.00    +0.000 C 
ENDBRANCH  33  34
ENDBRANCH  17  33
TORSDOF 7
ENDMDL
