MODEL 1
REMARK VINA RESULT:      -8.2      0.000      0.000
REMARK  Name = Buspirone
REMARK  5 active torsions:
REMARK  status: ('A' for Active; 'I' for Inactive)
REMARK    1  A    between atoms: N_12  and  C_13
REMARK    2  A    between atoms: C_13  and  C_14
REMARK    3  A    between atoms: C_14  and  C_15
REMARK    4  A    between atoms: C_15  and  C_16
REMARK    5  A    between atoms: C_16  and  N_17
REMARK                            x       y       z     vdW  Elec       q    Type
REMARK                         _______ _______ _______ _____ _____    ______ ____
ROOT
ATOM      1  C   UNL     1      -8.996   3.860 130.518  0.00  0.00    +0.000 C 
ENDROOT
BRANCH   1   2
ATOM      2  C   UNL     1      -9.023   5.257 131.128  0.00  0.00    +0.000 C 
BRANCH   2  14
ATOM      3  O   UNL     1      -8.795   7.949 129.933  0.00  0.00    +0.000 OA
ATOM      4  C   UNL     1      -9.714   7.155 129.745  0.00  0.00    +0.000 C 
ATOM      5  C   UNL     1     -10.598   7.193 128.523  0.00  0.00    +0.000 C 
ATOM      6  C   UNL     1     -12.077   7.162 128.933  0.00  0.00    +0.000 C 
ATOM      7  C   UNL     1     -12.960   7.014 127.684  0.00  0.00    +0.000 C 
ATOM      8  C   UNL     1     -13.885   8.220 127.685  0.00  0.00    +0.000 C 
ATOM      9  C   UNL     1     -13.164   9.281 128.499  0.00  0.00    +0.000 C 
ATOM     10  C   UNL     1     -12.493   8.488 129.602  0.00  0.00    +0.000 C 
ATOM     11  C   UNL     1     -12.316   5.987 129.880  0.00  0.00    +0.000 C 
ATOM     12  C   UNL     1     -11.352   6.077 131.026  0.00  0.00    +0.000 C 
ATOM     13  O   UNL     1     -11.716   6.066 132.199  0.00  0.00    +0.000 OA
ATOM     14  N   UNL     1     -10.054   6.100 130.562  0.00  0.00    +0.000 N 
ENDBRANCH   2  14
ENDBRANCH   1   2
BRANCH   1  15
ATOM     15  C   UNL     1      -8.166   3.807 129.252  0.00  0.00    +0.000 C 
BRANCH  15  16
ATOM     16  C   UNL     1      -8.514   2.546 128.456  0.00  0.00    +0.000 C 
BRANCH  16  17
ATOM     17  N   UNL     1      -7.509   2.245 127.422  0.00  0.00    +0.000 NA
ATOM     18  C   UNL     1      -7.061   0.826 127.489  0.00  0.00    +0.000 C 
ATOM     19  C   UNL     1      -8.188  -0.197 127.216  0.00  0.00    +0.000 C 
ATOM     20  N   UNL     1      -8.783   0.093 125.923  0.00  0.00    +0.000 N 
ATOM     21  C   UNL     1      -9.205   1.458 125.666  0.00  0.00    +0.000 C 
ATOM     22  C   UNL     1      -8.091   2.462 126.062  0.00  0.00    +0.000 C 
ATOM     23  C   UNL     1      -8.773  -0.893 124.983  0.00  0.00    +0.000 A 
ATOM     24  N   UNL     1      -9.304  -2.075 125.343  0.00  0.00    +0.000 NA
ATOM     25  C   UNL     1      -9.272  -3.075 124.449  0.00  0.00    +0.000 A 
ATOM     26  C   UNL     1      -8.672  -2.972 123.223  0.00  0.00    +0.000 A 
ATOM     27  C   UNL     1      -8.128  -1.742 122.950  0.00  0.00    +0.000 A 
ATOM     28  N   UNL     1      -8.193  -0.683 123.789  0.00  0.00    +0.000 NA
ENDBRANCH  16  17
ENDBRANCH  15  16
ENDBRANCH   1  15
TORSDOF 5
ENDMDL
MODEL 2
REMARK VINA RESULT:      -8.2      3.236      4.223
REMARK  Name = Buspirone
REMARK  5 active torsions:
REMARK  status: ('A' for Active; 'I' for Inactive)
REMARK    1  A    between atoms: N_12  and  C_13
REMARK    2  A    between atoms: C_13  and  C_14
REMARK    3  A    between atoms: C_14  and  C_15
REMARK    4  A    between atoms: C_15  and  C_16
REMARK    5  A    between atoms: C_16  and  N_17
REMARK                            x       y       z     vdW  Elec       q    Type
REMARK                         _______ _______ _______ _____ _____    ______ ____
ROOT
ATOM      1  C   UNL     1      -7.302   5.076 130.031  0.00  0.00    +0.000 C 
ENDROOT
BRANCH   1   2
ATOM      2  C   UNL     1      -8.662   4.400 130.171  0.00  0.00    +0.000 C 
BRANCH   2  14
ATOM      3  O   UNL     1     -11.567   3.865 130.199  0.00  0.00    +0.000 OA
ATOM      4  C   UNL     1     -11.041   4.967 130.069  0.00  0.00    +0.000 C 
ATOM      5  C   UNL     1     -11.745   6.260 130.404  0.00  0.00    +0.000 C 
ATOM      6  C   UNL     1     -11.626   7.250 129.236  0.00  0.00    +0.000 C 
ATOM      7  C   UNL     1     -12.182   8.619 129.658  0.00  0.00    +0.000 C 
ATOM      8  C   UNL     1     -13.294   8.936 128.672  0.00  0.00    +0.000 C 
ATOM      9  C   UNL     1     -13.756   7.591 128.140  0.00  0.00    +0.000 C 
ATOM     10  C   UNL     1     -12.473   6.791 128.033  0.00  0.00    +0.000 C 
ATOM     11  C   UNL     1     -10.158   7.387 128.836  0.00  0.00    +0.000 C 
ATOM     12  C   UNL     1      -9.596   6.024 128.558  0.00  0.00    +0.000 C 
ATOM     13  O   UNL     1      -9.034   5.742 127.504  0.00  0.00    +0.000 OA
ATOM     14  N   UNL     1      -9.749   5.206 129.658  0.00  0.00    +0.000 N 
ENDBRANCH   2  14
ENDBRANCH   1   2
BRANCH   1  15
ATOM     15  C   UNL     1      -6.221   4.098 129.619  0.00  0.00    +0.000 C 
BRANCH  15  16
ATOM     16  C   UNL     1      -6.482   3.608 128.191  0.00  0.00    +0.000 C 
BRANCH  16  17
ATOM     17  N   UNL     1      -5.251   3.569 127.383  0.00  0.00    +0.000 NA
ATOM     18  C   UNL     1      -5.308   2.499 126.349  0.00  0.00    +0.000 C 
ATOM     19  C   UNL     1      -6.429   2.703 125.302  0.00  0.00    +0.000 C 
ATOM     20  N   UNL     1      -6.264   4.006 124.684  0.00  0.00    +0.000 N 
ATOM     21  C   UNL     1      -6.113   5.154 125.561  0.00  0.00    +0.000 C 
ATOM     22  C   UNL     1      -5.065   4.868 126.667  0.00  0.00    +0.000 C 
ATOM     23  C   UNL     1      -6.111   4.054 123.331  0.00  0.00    +0.000 A 
ATOM     24  N   UNL     1      -7.060   3.447 122.596  0.00  0.00    +0.000 NA
ATOM     25  C   UNL     1      -6.915   3.446 121.262  0.00  0.00    +0.000 A 
ATOM     26  C   UNL     1      -5.824   3.969 120.622  0.00  0.00    +0.000 A 
ATOM     27  C   UNL     1      -4.889   4.539 121.450  0.00  0.00    +0.000 A 
ATOM     28  N   UNL     1      -5.021   4.626 122.793  0.00  0.00    +0.000 NA
ENDBRANCH  16  17
ENDBRANCH  15  16
ENDBRANCH   1  15
TORSDOF 5
ENDMDL
MODEL 3
REMARK VINA RESULT:      -8.1      1.118      1.977
REMARK  Name = Buspirone
REMARK  5 active torsions:
REMARK  status: ('A' for Active; 'I' for Inactive)
REMARK    1  A    between atoms: N_12  and  C_13
REMARK    2  A    between atoms: C_13  and  C_14
REMARK    3  A    between atoms: C_14  and  C_15
REMARK    4  A    between atoms: C_15  and  C_16
REMARK    5  A    between atoms: C_16  and  N_17
REMARK                            x       y       z     vdW  Elec       q    Type
REMARK                         _______ _______ _______ _____ _____    ______ ____
ROOT
ATOM      1  C   UNL     1      -8.797   3.273 129.826  0.00  0.00    +0.000 C 
ENDROOT
BRANCH   1   2
ATOM      2  C   UNL     1      -9.051   4.602 130.529  0.00  0.00    +0.000 C 
BRANCH   2  14
ATOM      3  O   UNL     1     -11.941   4.070 130.227  0.00  0.00    +0.000 OA
ATOM      4  C   UNL     1     -11.400   5.169 130.140  0.00  0.00    +0.000 C 
ATOM      5  C   UNL     1     -12.134   6.469 130.367  0.00  0.00    +0.000 C 
ATOM      6  C   UNL     1     -11.876   7.437 129.204  0.00  0.00    +0.000 C 
ATOM      7  C   UNL     1     -12.474   8.815 129.533  0.00  0.00    +0.000 C 
ATOM      8  C   UNL     1     -13.462   9.115 128.419  0.00  0.00    +0.000 C 
ATOM      9  C   UNL     1     -13.862   7.760 127.860  0.00  0.00    +0.000 C 
ATOM     10  C   UNL     1     -12.579   6.958 127.918  0.00  0.00    +0.000 C 
ATOM     11  C   UNL     1     -10.371   7.565 128.976  0.00  0.00    +0.000 C 
ATOM     12  C   UNL     1      -9.785   6.197 128.789  0.00  0.00    +0.000 C 
ATOM     13  O   UNL     1      -9.104   5.896 127.813  0.00  0.00    +0.000 OA
ATOM     14  N   UNL     1     -10.068   5.400 129.879  0.00  0.00    +0.000 N 
ENDBRANCH   2  14
ENDBRANCH   1   2
BRANCH   1  15
ATOM     15  C   UNL     1      -7.410   3.204 129.222  0.00  0.00    +0.000 C 
BRANCH  15  16
ATOM     16  C   UNL     1      -7.123   1.778 128.745  0.00  0.00    +0.000 C 
BRANCH  16  17
ATOM     17  N   UNL     1      -6.688   1.739 127.337  0.00  0.00    +0.000 NA
ATOM     18  C   UNL     1      -6.177   0.392 126.958  0.00  0.00    +0.000 C 
ATOM     19  C   UNL     1      -7.242  -0.726 127.046  0.00  0.00    +0.000 C 
ATOM     20  N   UNL     1      -8.380  -0.358 126.222  0.00  0.00    +0.000 N 
ATOM     21  C   UNL     1      -8.951   0.964 126.413  0.00  0.00    +0.000 C 
ATOM     22  C   UNL     1      -7.841   2.046 126.435  0.00  0.00    +0.000 C 
ATOM     23  C   UNL     1      -8.744  -1.210 125.223  0.00  0.00    +0.000 A 
ATOM     24  N   UNL     1      -8.981  -2.486 125.577  0.00  0.00    +0.000 NA
ATOM     25  C   UNL     1      -9.305  -3.355 124.607  0.00  0.00    +0.000 A 
ATOM     26  C   UNL     1      -9.341  -3.025 123.279  0.00  0.00    +0.000 A 
ATOM     27  C   UNL     1      -9.055  -1.710 123.005  0.00  0.00    +0.000 A 
ATOM     28  N   UNL     1      -8.789  -0.781 123.951  0.00  0.00    +0.000 NA
ENDBRANCH  16  17
ENDBRANCH  15  16
ENDBRANCH   1  15
TORSDOF 5
ENDMDL
MODEL 4
REMARK VINA RESULT:      -8.1      3.287      4.366
REMARK  Name = Buspirone
REMARK  5 active torsions:
REMARK  status: ('A' for Active; 'I' for Inactive)
REMARK    1  A    between atoms: N_12  and  C_13
REMARK    2  A    between atoms: C_13  and  C_14
REMARK    3  A    between atoms: C_14  and  C_15
REMARK    4  A    between atoms: C_15  and  C_16
REMARK    5  A    between atoms: C_16  and  N_17
REMARK                            x       y       z     vdW  Elec       q    Type
REMARK                         _______ _______ _______ _____ _____    ______ ____
ROOT
ATOM      1  C   UNL     1      -6.887   3.121 130.360  0.00  0.00    +0.000 C 
ENDROOT
BRANCH   1   2
ATOM      2  C   UNL     1      -6.686   4.576 129.949  0.00  0.00    +0.000 C 
BRANCH   2  14
ATOM      3  O   UNL     1      -8.832   4.959 127.955  0.00  0.00    +0.000 OA
ATOM      4  C   UNL     1      -8.935   5.142 129.166  0.00  0.00    +0.000 C 
ATOM      5  C   UNL     1     -10.255   5.101 129.896  0.00  0.00    +0.000 C 
ATOM      6  C   UNL     1     -10.421   6.351 130.771  0.00  0.00    +0.000 C 
ATOM      7  C   UNL     1     -11.676   6.209 131.646  0.00  0.00    +0.000 C 
ATOM      8  C   UNL     1     -12.558   7.398 131.302  0.00  0.00    +0.000 C 
ATOM      9  C   UNL     1     -12.138   7.820 129.904  0.00  0.00    +0.000 C 
ATOM     10  C   UNL     1     -10.638   7.608 129.904  0.00  0.00    +0.000 C 
ATOM     11  C   UNL     1      -9.187   6.517 131.655  0.00  0.00    +0.000 C 
ATOM     12  C   UNL     1      -7.960   6.519 130.792  0.00  0.00    +0.000 C 
ATOM     13  O   UNL     1      -7.127   7.420 130.827  0.00  0.00    +0.000 OA
ATOM     14  N   UNL     1      -7.897   5.362 130.044  0.00  0.00    +0.000 N 
ENDBRANCH   2  14
ENDBRANCH   1   2
BRANCH   1  15
ATOM     15  C   UNL     1      -6.188   2.162 129.418  0.00  0.00    +0.000 C 
BRANCH  15  16
ATOM     16  C   UNL     1      -6.461   2.570 127.967  0.00  0.00    +0.000 C 
BRANCH  16  17
ATOM     17  N   UNL     1      -5.219   2.736 127.193  0.00  0.00    +0.000 NA
ATOM     18  C   UNL     1      -5.206   1.867 125.984  0.00  0.00    +0.000 C 
ATOM     19  C   UNL     1      -6.322   2.200 124.965  0.00  0.00    +0.000 C 
ATOM     20  N   UNL     1      -6.217   3.599 124.593  0.00  0.00    +0.000 N 
ATOM     21  C   UNL     1      -6.138   4.577 125.663  0.00  0.00    +0.000 C 
ATOM     22  C   UNL     1      -5.091   4.150 126.724  0.00  0.00    +0.000 C 
ATOM     23  C   UNL     1      -6.049   3.895 123.273  0.00  0.00    +0.000 A 
ATOM     24  N   UNL     1      -6.955   3.385 122.421  0.00  0.00    +0.000 NA
ATOM     25  C   UNL     1      -6.792   3.630 121.112  0.00  0.00    +0.000 A 
ATOM     26  C   UNL     1      -5.721   4.311 120.600  0.00  0.00    +0.000 A 
ATOM     27  C   UNL     1      -4.828   4.769 121.537  0.00  0.00    +0.000 A 
ATOM     28  N   UNL     1      -4.983   4.607 122.871  0.00  0.00    +0.000 NA
ENDBRANCH  16  17
ENDBRANCH  15  16
ENDBRANCH   1  15
TORSDOF 5
ENDMDL
MODEL 5
REMARK VINA RESULT:      -8.0      4.944      8.607
REMARK  Name = Buspirone
REMARK  5 active torsions:
REMARK  status: ('A' for Active; 'I' for Inactive)
REMARK    1  A    between atoms: N_12  and  C_13
REMARK    2  A    between atoms: C_13  and  C_14
REMARK    3  A    between atoms: C_14  and  C_15
REMARK    4  A    between atoms: C_15  and  C_16
REMARK    5  A    between atoms: C_16  and  N_17
REMARK                            x       y       z     vdW  Elec       q    Type
REMARK                         _______ _______ _______ _____ _____    ______ ____
ROOT
ATOM      1  C   UNL     1      -5.896   7.051 131.295  0.00  0.00    +0.000 C 
ENDROOT
BRANCH   1   2
ATOM      2  C   UNL     1      -4.387   6.829 131.308  0.00  0.00    +0.000 C 
BRANCH   2  14
ATOM      3  O   UNL     1      -2.082   4.986 131.181  0.00  0.00    +0.000 OA
ATOM      4  C   UNL     1      -3.061   4.964 130.439  0.00  0.00    +0.000 C 
ATOM      5  C   UNL     1      -3.498   3.729 129.689  0.00  0.00    +0.000 C 
ATOM      6  C   UNL     1      -3.715   4.055 128.205  0.00  0.00    +0.000 C 
ATOM      7  C   UNL     1      -4.335   2.843 127.492  0.00  0.00    +0.000 C 
ATOM      8  C   UNL     1      -3.371   2.481 126.375  0.00  0.00    +0.000 C 
ATOM      9  C   UNL     1      -2.023   3.026 126.814  0.00  0.00    +0.000 C 
ATOM     10  C   UNL     1      -2.372   4.332 127.498  0.00  0.00    +0.000 C 
ATOM     11  C   UNL     1      -4.643   5.262 128.081  0.00  0.00    +0.000 C 
ATOM     12  C   UNL     1      -4.088   6.394 128.893  0.00  0.00    +0.000 C 
ATOM     13  O   UNL     1      -3.880   7.508 128.421  0.00  0.00    +0.000 OA
ATOM     14  N   UNL     1      -3.927   6.010 130.208  0.00  0.00    +0.000 N 
ENDBRANCH   2  14
ENDBRANCH   1   2
BRANCH   1  15
ATOM     15  C   UNL     1      -6.624   6.055 132.173  0.00  0.00    +0.000 C 
BRANCH  15  16
ATOM     16  C   UNL     1      -7.188   4.920 131.312  0.00  0.00    +0.000 C 
BRANCH  16  17
ATOM     17  N   UNL     1      -8.603   4.642 131.616  0.00  0.00    +0.000 NA
ATOM     18  C   UNL     1      -9.348   5.887 131.949  0.00  0.00    +0.000 C 
ATOM     19  C   UNL     1      -9.416   6.903 130.785  0.00  0.00    +0.000 C 
ATOM     20  N   UNL     1      -9.997   6.251 129.625  0.00  0.00    +0.000 N 
ATOM     21  C   UNL     1      -9.432   4.978 129.213  0.00  0.00    +0.000 C 
ATOM     22  C   UNL     1      -9.272   4.028 130.428  0.00  0.00    +0.000 C 
ATOM     23  C   UNL     1     -11.125   6.796 129.088  0.00  0.00    +0.000 A 
ATOM     24  N   UNL     1     -11.064   8.096 128.751  0.00  0.00    +0.000 NA
ATOM     25  C   UNL     1     -12.173   8.668 128.255  0.00  0.00    +0.000 A 
ATOM     26  C   UNL     1     -13.370   8.015 128.139  0.00  0.00    +0.000 A 
ATOM     27  C   UNL     1     -13.350   6.700 128.535  0.00  0.00    +0.000 A 
ATOM     28  N   UNL     1     -12.244   6.061 128.977  0.00  0.00    +0.000 NA
ENDBRANCH  16  17
ENDBRANCH  15  16
ENDBRANCH   1  15
TORSDOF 5
ENDMDL
MODEL 6
REMARK VINA RESULT:      -8.0      3.207      4.402
REMARK  Name = Buspirone
REMARK  5 active torsions:
REMARK  status: ('A' for Active; 'I' for Inactive)
REMARK    1  A    between atoms: N_12  and  C_13
REMARK    2  A    between atoms: C_13  and  C_14
REMARK    3  A    between atoms: C_14  and  C_15
REMARK    4  A    between atoms: C_15  and  C_16
REMARK    5  A    between atoms: C_16  and  N_17
REMARK                            x       y       z     vdW  Elec       q    Type
REMARK                         _______ _______ _______ _____ _____    ______ ____
ROOT
ATOM      1  C   UNL     1      -8.372   1.703 129.207  0.00  0.00    +0.000 C 
ENDROOT
BRANCH   1   2
ATOM      2  C   UNL     1      -7.832   2.958 129.883  0.00  0.00    +0.000 C 
BRANCH   2  14
ATOM      3  O   UNL     1      -7.618   5.873 130.310  0.00  0.00    +0.000 OA
ATOM      4  C   UNL     1      -8.644   5.263 130.019  0.00  0.00    +0.000 C 
ATOM      5  C   UNL     1      -9.828   5.915 129.347  0.00  0.00    +0.000 C 
ATOM      6  C   UNL     1     -11.121   5.586 130.107  0.00  0.00    +0.000 C 
ATOM      7  C   UNL     1     -12.333   6.099 129.313  0.00  0.00    +0.000 C 
ATOM      8  C   UNL     1     -13.061   7.056 130.241  0.00  0.00    +0.000 C 
ATOM      9  C   UNL     1     -12.012   7.537 131.228  0.00  0.00    +0.000 C 
ATOM     10  C   UNL     1     -11.160   6.307 131.469  0.00  0.00    +0.000 C 
ATOM     11  C   UNL     1     -11.225   4.075 130.298  0.00  0.00    +0.000 C 
ATOM     12  C   UNL     1      -9.973   3.575 130.954  0.00  0.00    +0.000 C 
ATOM     13  O   UNL     1      -9.986   2.906 131.983  0.00  0.00    +0.000 OA
ATOM     14  N   UNL     1      -8.867   3.916 130.204  0.00  0.00    +0.000 N 
ENDBRANCH   2  14
ENDBRANCH   1   2
BRANCH   1  15
ATOM     15  C   UNL     1      -7.786   1.505 127.824  0.00  0.00    +0.000 C 
BRANCH  15  16
ATOM     16  C   UNL     1      -7.452   2.865 127.204  0.00  0.00    +0.000 C 
BRANCH  16  17
ATOM     17  N   UNL     1      -8.338   3.194 126.074  0.00  0.00    +0.000 NA
ATOM     18  C   UNL     1      -7.994   4.514 125.475  0.00  0.00    +0.000 C 
ATOM     19  C   UNL     1      -6.576   4.569 124.858  0.00  0.00    +0.000 C 
ATOM     20  N   UNL     1      -6.450   3.509 123.874  0.00  0.00    +0.000 N 
ATOM     21  C   UNL     1      -6.824   2.165 124.278  0.00  0.00    +0.000 C 
ATOM     22  C   UNL     1      -8.198   2.168 124.996  0.00  0.00    +0.000 C 
ATOM     23  C   UNL     1      -6.134   3.862 122.596  0.00  0.00    +0.000 A 
ATOM     24  N   UNL     1      -5.028   4.609 122.434  0.00  0.00    +0.000 NA
ATOM     25  C   UNL     1      -4.714   5.002 121.190  0.00  0.00    +0.000 A 
ATOM     26  C   UNL     1      -5.494   4.739 120.097  0.00  0.00    +0.000 A 
ATOM     27  C   UNL     1      -6.621   3.999 120.358  0.00  0.00    +0.000 A 
ATOM     28  N   UNL     1      -6.945   3.522 121.581  0.00  0.00    +0.000 NA
ENDBRANCH  16  17
ENDBRANCH  15  16
ENDBRANCH   1  15
TORSDOF 5
ENDMDL
MODEL 7
REMARK VINA RESULT:      -7.9      2.844      9.053
REMARK  Name = Buspirone
REMARK  5 active torsions:
REMARK  status: ('A' for Active; 'I' for Inactive)
REMARK    1  A    between atoms: N_12  and  C_13
REMARK    2  A    between atoms: C_13  and  C_14
REMARK    3  A    between atoms: C_14  and  C_15
REMARK    4  A    between atoms: C_15  and  C_16
REMARK    5  A    between atoms: C_16  and  N_17
REMARK                            x       y       z     vdW  Elec       q    Type
REMARK                         _______ _______ _______ _____ _____    ______ ____
ROOT
ATOM      1  C   UNL     1      -7.554  -0.374 129.560  0.00  0.00    +0.000 C 
ENDROOT
BRANCH   1   2
ATOM      2  C   UNL     1      -6.921   0.347 128.375  0.00  0.00    +0.000 C 
BRANCH   2  14
ATOM      3  O   UNL     1      -5.317  -0.375 126.001  0.00  0.00    +0.000 OA
ATOM      4  C   UNL     1      -6.451  -0.777 126.252  0.00  0.00    +0.000 C 
ATOM      5  C   UNL     1      -7.013  -2.060 125.688  0.00  0.00    +0.000 C 
ATOM      6  C   UNL     1      -8.393  -1.808 125.063  0.00  0.00    +0.000 C 
ATOM      7  C   UNL     1      -9.032  -3.147 124.661  0.00  0.00    +0.000 C 
ATOM      8  C   UNL     1      -9.303  -3.045 123.170  0.00  0.00    +0.000 C 
ATOM      9  C   UNL     1      -8.324  -2.006 122.652  0.00  0.00    +0.000 C 
ATOM     10  C   UNL     1      -8.270  -0.981 123.767  0.00  0.00    +0.000 C 
ATOM     11  C   UNL     1      -9.283  -1.090 126.074  0.00  0.00    +0.000 C 
ATOM     12  C   UNL     1      -8.583   0.146 126.556  0.00  0.00    +0.000 C 
ATOM     13  O   UNL     1      -9.097   1.260 126.507  0.00  0.00    +0.000 OA
ATOM     14  N   UNL     1      -7.356  -0.177 127.098  0.00  0.00    +0.000 N 
ENDBRANCH   2  14
ENDBRANCH   1   2
BRANCH   1  15
ATOM     15  C   UNL     1      -8.213   0.589 130.525  0.00  0.00    +0.000 C 
BRANCH  15  16
ATOM     16  C   UNL     1      -7.937   2.031 130.088  0.00  0.00    +0.000 C 
BRANCH  16  17
ATOM     17  N   UNL     1      -8.182   2.998 131.172  0.00  0.00    +0.000 NA
ATOM     18  C   UNL     1      -7.991   4.401 130.709  0.00  0.00    +0.000 C 
ATOM     19  C   UNL     1      -8.981   4.832 129.601  0.00  0.00    +0.000 C 
ATOM     20  N   UNL     1     -10.337   4.628 130.077  0.00  0.00    +0.000 N 
ATOM     21  C   UNL     1     -10.668   3.329 130.637  0.00  0.00    +0.000 C 
ATOM     22  C   UNL     1      -9.591   2.879 131.658  0.00  0.00    +0.000 C 
ATOM     23  C   UNL     1     -11.169   5.706 130.108  0.00  0.00    +0.000 A 
ATOM     24  N   UNL     1     -11.312   6.389 128.958  0.00  0.00    +0.000 NA
ATOM     25  C   UNL     1     -12.097   7.479 128.970  0.00  0.00    +0.000 A 
ATOM     26  C   UNL     1     -12.699   7.962 130.100  0.00  0.00    +0.000 A 
ATOM     27  C   UNL     1     -12.474   7.222 131.234  0.00  0.00    +0.000 A 
ATOM     28  N   UNL     1     -11.748   6.081 131.261  0.00  0.00    +0.000 NA
ENDBRANCH  16  17
ENDBRANCH  15  16
ENDBRANCH   1  15
TORSDOF 5
ENDMDL
MODEL 8
REMARK VINA RESULT:      -7.9      3.301      9.184
REMARK  Name = Buspirone
REMARK  5 active torsions:
REMARK  status: ('A' for Active; 'I' for Inactive)
REMARK    1  A    between atoms: N_12  and  C_13
REMARK    2  A    between atoms: C_13  and  C_14
REMARK    3  A    between atoms: C_14  and  C_15
REMARK    4  A    between atoms: C_15  and  C_16
REMARK    5  A    between atoms: C_16  and  N_17
REMARK                            x       y       z     vdW  Elec       q    Type
REMARK                         _______ _______ _______ _____ _____    ______ ____
ROOT
ATOM      1  C   UNL     1      -8.127  -0.332 130.663  0.00  0.00    +0.000 C 
ENDROOT
BRANCH   1   2
ATOM      2  C   UNL     1      -6.948  -0.222 129.701  0.00  0.00    +0.000 C 
BRANCH   2  14
ATOM      3  O   UNL     1      -6.196  -2.998 129.028  0.00  0.00    +0.000 OA
ATOM      4  C   UNL     1      -7.056  -2.329 128.460  0.00  0.00    +0.000 C 
ATOM      5  C   UNL     1      -8.199  -2.942 127.686  0.00  0.00    +0.000 C 
ATOM      6  C   UNL     1      -8.302  -2.304 126.294  0.00  0.00    +0.000 C 
ATOM      7  C   UNL     1      -9.574  -2.800 125.589  0.00  0.00    +0.000 C 
ATOM      8  C   UNL     1      -9.106  -3.453 124.299  0.00  0.00    +0.000 C 
ATOM      9  C   UNL     1      -7.666  -3.862 124.555  0.00  0.00    +0.000 C 
ATOM     10  C   UNL     1      -7.119  -2.730 125.401  0.00  0.00    +0.000 C 
ATOM     11  C   UNL     1      -8.345  -0.784 126.435  0.00  0.00    +0.000 C 
ATOM     12  C   UNL     1      -7.164  -0.332 127.241  0.00  0.00    +0.000 C 
ATOM     13  O   UNL     1      -6.378   0.523 126.842  0.00  0.00    +0.000 OA
ATOM     14  N   UNL     1      -7.154  -0.956 128.471  0.00  0.00    +0.000 N 
ENDBRANCH   2  14
ENDBRANCH   1   2
BRANCH   1  15
ATOM     15  C   UNL     1      -8.212   0.858 131.596  0.00  0.00    +0.000 C 
BRANCH  15  16
ATOM     16  C   UNL     1      -7.720   2.117 130.875  0.00  0.00    +0.000 C 
BRANCH  16  17
ATOM     17  N   UNL     1      -8.021   3.345 131.632  0.00  0.00    +0.000 NA
ATOM     18  C   UNL     1      -7.485   4.555 130.949  0.00  0.00    +0.000 C 
ATOM     19  C   UNL     1      -8.114   4.817 129.560  0.00  0.00    +0.000 C 
ATOM     20  N   UNL     1      -9.556   4.904 129.706  0.00  0.00    +0.000 N 
ATOM     21  C   UNL     1     -10.228   3.835 130.423  0.00  0.00    +0.000 C 
ATOM     22  C   UNL     1      -9.500   3.524 131.756  0.00  0.00    +0.000 C 
ATOM     23  C   UNL     1     -10.168   6.051 129.296  0.00  0.00    +0.000 A 
ATOM     24  N   UNL     1      -9.931   6.440 128.031  0.00  0.00    +0.000 NA
ATOM     25  C   UNL     1     -10.491   7.586 127.612  0.00  0.00    +0.000 A 
ATOM     26  C   UNL     1     -11.230   8.404 128.423  0.00  0.00    +0.000 A 
ATOM     27  C   UNL     1     -11.396   7.946 129.707  0.00  0.00    +0.000 A 
ATOM     28  N   UNL     1     -10.910   6.767 130.157  0.00  0.00    +0.000 NA
ENDBRANCH  16  17
ENDBRANCH  15  16
ENDBRANCH   1  15
TORSDOF 5
ENDMDL
MODEL 9
REMARK VINA RESULT:      -7.8      3.405      4.684
REMARK  Name = Buspirone
REMARK  5 active torsions:
REMARK  status: ('A' for Active; 'I' for Inactive)
REMARK    1  A    between atoms: N_12  and  C_13
REMARK    2  A    between atoms: C_13  and  C_14
REMARK    3  A    between atoms: C_14  and  C_15
REMARK    4  A    between atoms: C_15  and  C_16
REMARK    5  A    between atoms: C_16  and  N_17
REMARK                            x       y       z     vdW  Elec       q    Type
REMARK                         _______ _______ _______ _____ _____    ______ ____
ROOT
ATOM      1  C   UNL     1      -9.834   2.013 132.130  0.00  0.00    +0.000 C 
ENDROOT
BRANCH   1   2
ATOM      2  C   UNL     1      -8.992   3.268 132.332  0.00  0.00    +0.000 C 
BRANCH   2  14
ATOM      3  O   UNL     1      -9.333   3.886 129.464  0.00  0.00    +0.000 OA
ATOM      4  C   UNL     1      -9.958   4.399 130.388  0.00  0.00    +0.000 C 
ATOM      5  C   UNL     1     -11.316   5.035 130.212  0.00  0.00    +0.000 C 
ATOM      6  C   UNL     1     -11.333   6.439 130.834  0.00  0.00    +0.000 C 
ATOM      7  C   UNL     1     -12.764   6.999 130.813  0.00  0.00    +0.000 C 
ATOM      8  C   UNL     1     -12.689   8.296 130.026  0.00  0.00    +0.000 C 
ATOM      9  C   UNL     1     -11.465   8.159 129.138  0.00  0.00    +0.000 C 
ATOM     10  C   UNL     1     -10.473   7.419 130.010  0.00  0.00    +0.000 C 
ATOM     11  C   UNL     1     -10.826   6.361 132.273  0.00  0.00    +0.000 C 
ATOM     12  C   UNL     1      -9.485   5.690 132.285  0.00  0.00    +0.000 C 
ATOM     13  O   UNL     1      -8.495   6.198 132.805  0.00  0.00    +0.000 OA
ATOM     14  N   UNL     1      -9.567   4.440 131.708  0.00  0.00    +0.000 N 
ENDBRANCH   2  14
ENDBRANCH   1   2
BRANCH   1  15
ATOM     15  C   UNL     1      -8.978   0.776 131.948  0.00  0.00    +0.000 C 
BRANCH  15  16
ATOM     16  C   UNL     1      -8.464   0.710 130.507  0.00  0.00    +0.000 C 
BRANCH  16  17
ATOM     17  N   UNL     1      -7.060   0.270 130.437  0.00  0.00    +0.000 NA
ATOM     18  C   UNL     1      -6.637   0.007 129.034  0.00  0.00    +0.000 C 
ATOM     19  C   UNL     1      -6.675   1.259 128.126  0.00  0.00    +0.000 C 
ATOM     20  N   UNL     1      -5.856   2.298 128.724  0.00  0.00    +0.000 N 
ATOM     21  C   UNL     1      -6.089   2.622 130.120  0.00  0.00    +0.000 C 
ATOM     22  C   UNL     1      -6.160   1.334 130.980  0.00  0.00    +0.000 C 
ATOM     23  C   UNL     1      -4.824   2.797 127.987  0.00  0.00    +0.000 A 
ATOM     24  N   UNL     1      -5.130   3.267 126.765  0.00  0.00    +0.000 NA
ATOM     25  C   UNL     1      -4.127   3.730 126.002  0.00  0.00    +0.000 A 
ATOM     26  C   UNL     1      -2.812   3.686 126.378  0.00  0.00    +0.000 A 
ATOM     27  C   UNL     1      -2.587   3.162 127.627  0.00  0.00    +0.000 A 
ATOM     28  N   UNL     1      -3.568   2.745 128.459  0.00  0.00    +0.000 NA
ENDBRANCH  16  17
ENDBRANCH  15  16
ENDBRANCH   1  15
TORSDOF 5
ENDMDL
