MODEL 1
REMARK VINA RESULT:      -4.6      0.000      0.000
REMARK  Name = Busulfan
REMARK  9 active torsions:
REMARK  status: ('A' for Active; 'I' for Inactive)
REMARK    1  A    between atoms: C_1  and  S_2
REMARK    2  A    between atoms: S_2  and  O_5
REMARK    3  A    between atoms: O_5  and  C_6
REMARK    4  A    between atoms: C_6  and  C_7
REMARK    5  A    between atoms: C_7  and  C_8
REMARK    6  A    between atoms: C_8  and  C_9
REMARK    7  A    between atoms: C_9  and  O_10
REMARK    8  A    between atoms: O_10  and  S_11
REMARK    9  A    between atoms: S_11  and  C_12
REMARK                            x       y       z     vdW  Elec       q    Type
REMARK                         _______ _______ _______ _____ _____    ______ ____
ROOT
ATOM      1  C   UNL     1     -10.662   5.733 131.015  0.00  0.00    +0.000 C 
ENDROOT
BRANCH   1   2
ATOM      2  C   UNL     1      -9.502   6.723 131.047  0.00  0.00    +0.000 C 
BRANCH   2   3
ATOM      3  O   UNL     1      -8.564   6.489 132.104  0.00  0.00    +0.000 OA
BRANCH   3   5
ATOM      4  C   UNL     1      -7.061   4.851 130.639  0.00  0.00    +0.000 C 
ATOM      5  S   UNL     1      -7.011   6.367 131.576  0.00  0.00    +0.000 S 
ATOM      6  O   UNL     1      -6.166   6.153 132.732  0.00  0.00    +0.000 OA
ATOM      7  O   UNL     1      -6.771   7.458 130.654  0.00  0.00    +0.000 OA
ENDBRANCH   3   5
ENDBRANCH   2   3
ENDBRANCH   1   2
BRANCH   1   8
ATOM      8  C   UNL     1     -12.015   6.472 131.026  0.00  0.00    +0.000 C 
BRANCH   8   9
ATOM      9  C   UNL     1     -12.263   7.133 129.673  0.00  0.00    +0.000 C 
BRANCH   9  10
ATOM     10  O   UNL     1     -11.904   6.295 128.582  0.00  0.00    +0.000 OA
BRANCH  10  11
ATOM     11  S   UNL     1     -10.895   6.912 127.445  0.00  0.00    +0.000 S 
ATOM     12  C   UNL     1     -10.737   8.578 128.068  0.00  0.00    +0.000 C 
ATOM     13  O   UNL     1      -9.608   6.263 127.554  0.00  0.00    +0.000 OA
ATOM     14  O   UNL     1     -11.608   6.975 126.183  0.00  0.00    +0.000 OA
ENDBRANCH  10  11
ENDBRANCH   9  10
ENDBRANCH   8   9
ENDBRANCH   1   8
TORSDOF 7
ENDMDL
MODEL 2
REMARK VINA RESULT:      -4.5      2.205      4.974
REMARK  Name = Busulfan
REMARK  9 active torsions:
REMARK  status: ('A' for Active; 'I' for Inactive)
REMARK    1  A    between atoms: C_1  and  S_2
REMARK    2  A    between atoms: S_2  and  O_5
REMARK    3  A    between atoms: O_5  and  C_6
REMARK    4  A    between atoms: C_6  and  C_7
REMARK    5  A    between atoms: C_7  and  C_8
REMARK    6  A    between atoms: C_8  and  C_9
REMARK    7  A    between atoms: C_9  and  O_10
REMARK    8  A    between atoms: O_10  and  S_11
REMARK    9  A    between atoms: S_11  and  C_12
REMARK                            x       y       z     vdW  Elec       q    Type
REMARK                         _______ _______ _______ _____ _____    ______ ____
ROOT
ATOM      1  C   UNL     1     -10.350   6.500 131.190  0.00  0.00    +0.000 C 
ENDROOT
BRANCH   1   2
ATOM      2  C   UNL     1     -11.273   6.802 130.014  0.00  0.00    +0.000 C 
BRANCH   2   3
ATOM      3  O   UNL     1     -10.801   6.303 128.757  0.00  0.00    +0.000 OA
BRANCH   3   5
ATOM      4  C   UNL     1     -12.806   7.417 127.404  0.00  0.00    +0.000 C 
ATOM      5  S   UNL     1     -11.027   7.359 127.517  0.00  0.00    +0.000 S 
ATOM      6  O   UNL     1     -10.521   6.738 126.310  0.00  0.00    +0.000 OA
ATOM      7  O   UNL     1     -10.562   8.659 127.952  0.00  0.00    +0.000 OA
ENDBRANCH   3   5
ENDBRANCH   2   3
ENDBRANCH   1   2
BRANCH   1   8
ATOM      8  C   UNL     1      -8.891   6.866 130.850  0.00  0.00    +0.000 C 
BRANCH   8   9
ATOM      9  C   UNL     1      -8.022   5.611 130.848  0.00  0.00    +0.000 C 
BRANCH   9  10
ATOM     10  O   UNL     1      -7.275   5.466 129.648  0.00  0.00    +0.000 OA
BRANCH  10  11
ATOM     11  S   UNL     1      -7.623   4.187 128.681  0.00  0.00    +0.000 S 
ATOM     12  C   UNL     1      -8.861   3.388 129.690  0.00  0.00    +0.000 C 
ATOM     13  O   UNL     1      -8.260   4.665 127.475  0.00  0.00    +0.000 OA
ATOM     14  O   UNL     1      -6.462   3.318 128.632  0.00  0.00    +0.000 OA
ENDBRANCH  10  11
ENDBRANCH   9  10
ENDBRANCH   8   9
ENDBRANCH   1   8
TORSDOF 7
ENDMDL
MODEL 3
REMARK VINA RESULT:      -4.4      2.299      4.961
REMARK  Name = Busulfan
REMARK  9 active torsions:
REMARK  status: ('A' for Active; 'I' for Inactive)
REMARK    1  A    between atoms: C_1  and  S_2
REMARK    2  A    between atoms: S_2  and  O_5
REMARK    3  A    between atoms: O_5  and  C_6
REMARK    4  A    between atoms: C_6  and  C_7
REMARK    5  A    between atoms: C_7  and  C_8
REMARK    6  A    between atoms: C_8  and  C_9
REMARK    7  A    between atoms: C_9  and  O_10
REMARK    8  A    between atoms: O_10  and  S_11
REMARK    9  A    between atoms: S_11  and  C_12
REMARK                            x       y       z     vdW  Elec       q    Type
REMARK                         _______ _______ _______ _____ _____    ______ ____
ROOT
ATOM      1  C   UNL     1      -8.502   6.792 130.971  0.00  0.00    +0.000 C 
ENDROOT
BRANCH   1   2
ATOM      2  C   UNL     1      -9.671   7.267 130.116  0.00  0.00    +0.000 C 
BRANCH   2   3
ATOM      3  O   UNL     1      -9.532   6.971 128.720  0.00  0.00    +0.000 OA
BRANCH   3   5
ATOM      4  C   UNL     1     -11.536   8.626 128.141  0.00  0.00    +0.000 C 
ATOM      5  S   UNL     1     -10.967   6.951 127.918  0.00  0.00    +0.000 S 
ATOM      6  O   UNL     1     -11.865   6.072 128.639  0.00  0.00    +0.000 OA
ATOM      7  O   UNL     1     -10.684   6.756 126.511  0.00  0.00    +0.000 OA
ENDBRANCH   3   5
ENDBRANCH   2   3
ENDBRANCH   1   2
BRANCH   1   8
ATOM      8  C   UNL     1      -9.006   6.120 132.264  0.00  0.00    +0.000 C 
BRANCH   8   9
ATOM      9  C   UNL     1      -9.088   4.607 132.072  0.00  0.00    +0.000 C 
BRANCH   9  10
ATOM     10  O   UNL     1      -8.331   4.156 130.958  0.00  0.00    +0.000 OA
BRANCH  10  11
ATOM     11  S   UNL     1      -9.128   3.364 129.763  0.00  0.00    +0.000 S 
ATOM     12  C   UNL     1      -8.525   1.708 130.058  0.00  0.00    +0.000 C 
ATOM     13  O   UNL     1     -10.545   3.387 130.044  0.00  0.00    +0.000 OA
ATOM     14  O   UNL     1      -8.601   3.807 128.486  0.00  0.00    +0.000 OA
ENDBRANCH  10  11
ENDBRANCH   9  10
ENDBRANCH   8   9
ENDBRANCH   1   8
TORSDOF 7
ENDMDL
MODEL 4
REMARK VINA RESULT:      -4.4      9.247     10.364
REMARK  Name = Busulfan
REMARK  9 active torsions:
REMARK  status: ('A' for Active; 'I' for Inactive)
REMARK    1  A    between atoms: C_1  and  S_2
REMARK    2  A    between atoms: S_2  and  O_5
REMARK    3  A    between atoms: O_5  and  C_6
REMARK    4  A    between atoms: C_6  and  C_7
REMARK    5  A    between atoms: C_7  and  C_8
REMARK    6  A    between atoms: C_8  and  C_9
REMARK    7  A    between atoms: C_9  and  O_10
REMARK    8  A    between atoms: O_10  and  S_11
REMARK    9  A    between atoms: S_11  and  C_12
REMARK                            x       y       z     vdW  Elec       q    Type
REMARK                         _______ _______ _______ _____ _____    ______ ____
ROOT
ATOM      1  C   UNL     1      -9.241  -2.891 123.601  0.00  0.00    +0.000 C 
ENDROOT
BRANCH   1   2
ATOM      2  C   UNL     1      -8.061  -2.937 124.566  0.00  0.00    +0.000 C 
BRANCH   2   3
ATOM      3  O   UNL     1      -6.944  -3.696 124.086  0.00  0.00    +0.000 OA
BRANCH   3   5
ATOM      4  C   UNL     1      -4.337  -3.972 123.619  0.00  0.00    +0.000 C 
ATOM      5  S   UNL     1      -5.644  -2.763 123.707  0.00  0.00    +0.000 S 
ATOM      6  O   UNL     1      -5.378  -1.895 124.836  0.00  0.00    +0.000 OA
ATOM      7  O   UNL     1      -5.855  -2.231 122.377  0.00  0.00    +0.000 OA
ENDBRANCH   3   5
ENDBRANCH   2   3
ENDBRANCH   1   2
BRANCH   1   8
ATOM      8  C   UNL     1      -9.223  -1.590 122.773  0.00  0.00    +0.000 C 
BRANCH   8   9
ATOM      9  C   UNL     1      -8.985  -0.390 123.687  0.00  0.00    +0.000 C 
BRANCH   9  10
ATOM     10  O   UNL     1      -9.538   0.811 123.166  0.00  0.00    +0.000 OA
BRANCH  10  11
ATOM     11  S   UNL     1      -8.823   2.226 123.588  0.00  0.00    +0.000 S 
ATOM     12  C   UNL     1      -7.138   1.660 123.768  0.00  0.00    +0.000 C 
ATOM     13  O   UNL     1      -8.878   3.136 122.467  0.00  0.00    +0.000 OA
ATOM     14  O   UNL     1      -9.304   2.610 124.902  0.00  0.00    +0.000 OA
ENDBRANCH  10  11
ENDBRANCH   9  10
ENDBRANCH   8   9
ENDBRANCH   1   8
TORSDOF 7
ENDMDL
MODEL 5
REMARK VINA RESULT:      -4.4      2.470      5.597
REMARK  Name = Busulfan
REMARK  9 active torsions:
REMARK  status: ('A' for Active; 'I' for Inactive)
REMARK    1  A    between atoms: C_1  and  S_2
REMARK    2  A    between atoms: S_2  and  O_5
REMARK    3  A    between atoms: O_5  and  C_6
REMARK    4  A    between atoms: C_6  and  C_7
REMARK    5  A    between atoms: C_7  and  C_8
REMARK    6  A    between atoms: C_8  and  C_9
REMARK    7  A    between atoms: C_9  and  O_10
REMARK    8  A    between atoms: O_10  and  S_11
REMARK    9  A    between atoms: S_11  and  C_12
REMARK                            x       y       z     vdW  Elec       q    Type
REMARK                         _______ _______ _______ _____ _____    ______ ____
ROOT
ATOM      1  C   UNL     1     -11.201   5.291 130.608  0.00  0.00    +0.000 C 
ENDROOT
BRANCH   1   2
ATOM      2  C   UNL     1     -12.008   6.175 129.663  0.00  0.00    +0.000 C 
BRANCH   2   3
ATOM      3  O   UNL     1     -11.370   6.418 128.403  0.00  0.00    +0.000 OA
BRANCH   3   5
ATOM      4  C   UNL     1     -12.202   8.882 128.972  0.00  0.00    +0.000 C 
ATOM      5  S   UNL     1     -10.865   7.972 128.223  0.00  0.00    +0.000 S 
ATOM      6  O   UNL     1     -10.855   8.272 126.806  0.00  0.00    +0.000 OA
ATOM      7  O   UNL     1      -9.685   8.151 129.043  0.00  0.00    +0.000 OA
ENDBRANCH   3   5
ENDBRANCH   2   3
ENDBRANCH   1   2
BRANCH   1   8
ATOM      8  C   UNL     1     -10.667   6.109 131.802  0.00  0.00    +0.000 C 
BRANCH   8   9
ATOM      9  C   UNL     1      -9.371   5.493 132.322  0.00  0.00    +0.000 C 
BRANCH   9  10
ATOM     10  O   UNL     1      -9.598   4.375 133.169  0.00  0.00    +0.000 OA
BRANCH  10  11
ATOM     11  S   UNL     1      -8.948   2.936 132.724  0.00  0.00    +0.000 S 
ATOM     12  C   UNL     1      -7.948   3.480 131.347  0.00  0.00    +0.000 C 
ATOM     13  O   UNL     1      -8.065   2.472 133.770  0.00  0.00    +0.000 OA
ATOM     14  O   UNL     1     -10.008   2.096 132.198  0.00  0.00    +0.000 OA
ENDBRANCH  10  11
ENDBRANCH   9  10
ENDBRANCH   8   9
ENDBRANCH   1   8
TORSDOF 7
ENDMDL
MODEL 6
REMARK VINA RESULT:      -4.4      2.153      2.968
REMARK  Name = Busulfan
REMARK  9 active torsions:
REMARK  status: ('A' for Active; 'I' for Inactive)
REMARK    1  A    between atoms: C_1  and  S_2
REMARK    2  A    between atoms: S_2  and  O_5
REMARK    3  A    between atoms: O_5  and  C_6
REMARK    4  A    between atoms: C_6  and  C_7
REMARK    5  A    between atoms: C_7  and  C_8
REMARK    6  A    between atoms: C_8  and  C_9
REMARK    7  A    between atoms: C_9  and  O_10
REMARK    8  A    between atoms: O_10  and  S_11
REMARK    9  A    between atoms: S_11  and  C_12
REMARK                            x       y       z     vdW  Elec       q    Type
REMARK                         _______ _______ _______ _____ _____    ______ ____
ROOT
ATOM      1  C   UNL     1      -8.886   6.823 131.084  0.00  0.00    +0.000 C 
ENDROOT
BRANCH   1   2
ATOM      2  C   UNL     1      -7.812   5.821 130.674  0.00  0.00    +0.000 C 
BRANCH   2   3
ATOM      3  O   UNL     1      -8.315   4.508 130.395  0.00  0.00    +0.000 OA
BRANCH   3   5
ATOM      4  C   UNL     1      -6.533   4.040 128.473  0.00  0.00    +0.000 C 
ATOM      5  S   UNL     1      -8.284   4.131 128.795  0.00  0.00    +0.000 S 
ATOM      6  O   UNL     1      -8.817   5.262 128.064  0.00  0.00    +0.000 OA
ATOM      7  O   UNL     1      -8.839   2.802 128.644  0.00  0.00    +0.000 OA
ENDBRANCH   3   5
ENDBRANCH   2   3
ENDBRANCH   1   2
BRANCH   1   8
ATOM      8  C   UNL     1     -10.141   6.099 131.611  0.00  0.00    +0.000 C 
BRANCH   8   9
ATOM      9  C   UNL     1     -11.304   6.291 130.642  0.00  0.00    +0.000 C 
BRANCH   9  10
ATOM     10  O   UNL     1     -11.408   7.629 130.172  0.00  0.00    +0.000 OA
BRANCH  10  11
ATOM     11  S   UNL     1     -11.564   7.860 128.556  0.00  0.00    +0.000 S 
ATOM     12  C   UNL     1     -12.954   8.982 128.554  0.00  0.00    +0.000 C 
ATOM     13  O   UNL     1     -10.405   8.573 128.066  0.00  0.00    +0.000 OA
ATOM     14  O   UNL     1     -11.999   6.614 127.952  0.00  0.00    +0.000 OA
ENDBRANCH  10  11
ENDBRANCH   9  10
ENDBRANCH   8   9
ENDBRANCH   1   8
TORSDOF 7
ENDMDL
MODEL 7
REMARK VINA RESULT:      -4.3      3.372      4.882
REMARK  Name = Busulfan
REMARK  9 active torsions:
REMARK  status: ('A' for Active; 'I' for Inactive)
REMARK    1  A    between atoms: C_1  and  S_2
REMARK    2  A    between atoms: S_2  and  O_5
REMARK    3  A    between atoms: O_5  and  C_6
REMARK    4  A    between atoms: C_6  and  C_7
REMARK    5  A    between atoms: C_7  and  C_8
REMARK    6  A    between atoms: C_8  and  C_9
REMARK    7  A    between atoms: C_9  and  O_10
REMARK    8  A    between atoms: O_10  and  S_11
REMARK    9  A    between atoms: S_11  and  C_12
REMARK                            x       y       z     vdW  Elec       q    Type
REMARK                         _______ _______ _______ _____ _____    ______ ____
ROOT
ATOM      1  C   UNL     1     -10.034   3.505 130.419  0.00  0.00    +0.000 C 
ENDROOT
BRANCH   1   2
ATOM      2  C   UNL     1     -10.386   4.953 130.093  0.00  0.00    +0.000 C 
BRANCH   2   3
ATOM      3  O   UNL     1     -11.747   5.146 129.688  0.00  0.00    +0.000 OA
BRANCH   3   5
ATOM      4  C   UNL     1     -10.891   7.668 129.709  0.00  0.00    +0.000 C 
ATOM      5  S   UNL     1     -12.317   6.649 130.035  0.00  0.00    +0.000 S 
ATOM      6  O   UNL     1     -12.591   6.701 131.456  0.00  0.00    +0.000 OA
ATOM      7  O   UNL     1     -13.334   6.973 129.056  0.00  0.00    +0.000 OA
ENDBRANCH   3   5
ENDBRANCH   2   3
ENDBRANCH   1   2
BRANCH   1   8
ATOM      8  C   UNL     1      -8.762   3.067 129.665  0.00  0.00    +0.000 C 
BRANCH   8   9
ATOM      9  C   UNL     1      -8.368   4.126 128.639  0.00  0.00    +0.000 C 
BRANCH   9  10
ATOM     10  O   UNL     1      -8.332   3.615 127.314  0.00  0.00    +0.000 OA
BRANCH  10  11
ATOM     11  S   UNL     1      -7.954   4.657 126.104  0.00  0.00    +0.000 S 
ATOM     12  C   UNL     1      -8.131   3.559 124.707  0.00  0.00    +0.000 C 
ATOM     13  O   UNL     1      -8.979   5.672 126.016  0.00  0.00    +0.000 OA
ATOM     14  O   UNL     1      -6.550   5.006 126.220  0.00  0.00    +0.000 OA
ENDBRANCH  10  11
ENDBRANCH   9  10
ENDBRANCH   8   9
ENDBRANCH   1   8
TORSDOF 7
ENDMDL
MODEL 8
REMARK VINA RESULT:      -4.3      2.157      4.899
REMARK  Name = Busulfan
REMARK  9 active torsions:
REMARK  status: ('A' for Active; 'I' for Inactive)
REMARK    1  A    between atoms: C_1  and  S_2
REMARK    2  A    between atoms: S_2  and  O_5
REMARK    3  A    between atoms: O_5  and  C_6
REMARK    4  A    between atoms: C_6  and  C_7
REMARK    5  A    between atoms: C_7  and  C_8
REMARK    6  A    between atoms: C_8  and  C_9
REMARK    7  A    between atoms: C_9  and  O_10
REMARK    8  A    between atoms: O_10  and  S_11
REMARK    9  A    between atoms: S_11  and  C_12
REMARK                            x       y       z     vdW  Elec       q    Type
REMARK                         _______ _______ _______ _____ _____    ______ ____
ROOT
ATOM      1  C   UNL     1     -11.703   6.015 131.308  0.00  0.00    +0.000 C 
ENDROOT
BRANCH   1   2
ATOM      2  C   UNL     1     -12.358   7.267 130.735  0.00  0.00    +0.000 C 
BRANCH   2   3
ATOM      3  O   UNL     1     -11.527   7.994 129.821  0.00  0.00    +0.000 OA
BRANCH   3   5
ATOM      4  C   UNL     1     -13.361   6.975 128.181  0.00  0.00    +0.000 C 
ATOM      5  S   UNL     1     -12.294   8.383 128.420  0.00  0.00    +0.000 S 
ATOM      6  O   UNL     1     -11.306   8.383 127.361  0.00  0.00    +0.000 OA
ATOM      7  O   UNL     1     -13.126   9.539 128.678  0.00  0.00    +0.000 OA
ENDBRANCH   3   5
ENDBRANCH   2   3
ENDBRANCH   1   2
BRANCH   1   8
ATOM      8  C   UNL     1     -10.316   6.342 131.897  0.00  0.00    +0.000 C 
BRANCH   8   9
ATOM      9  C   UNL     1      -9.414   5.111 131.831  0.00  0.00    +0.000 C 
BRANCH   9  10
ATOM     10  O   UNL     1      -8.421   5.216 130.821  0.00  0.00    +0.000 OA
BRANCH  10  11
ATOM     11  S   UNL     1      -8.783   4.635 129.330  0.00  0.00    +0.000 S 
ATOM     12  C   UNL     1      -7.141   4.197 128.780  0.00  0.00    +0.000 C 
ATOM     13  O   UNL     1      -9.553   3.419 129.471  0.00  0.00    +0.000 OA
ATOM     14  O   UNL     1      -9.248   5.736 128.507  0.00  0.00    +0.000 OA
ENDBRANCH  10  11
ENDBRANCH   9  10
ENDBRANCH   8   9
ENDBRANCH   1   8
TORSDOF 7
ENDMDL
MODEL 9
REMARK VINA RESULT:      -4.3      7.333      8.472
REMARK  Name = Busulfan
REMARK  9 active torsions:
REMARK  status: ('A' for Active; 'I' for Inactive)
REMARK    1  A    between atoms: C_1  and  S_2
REMARK    2  A    between atoms: S_2  and  O_5
REMARK    3  A    between atoms: O_5  and  C_6
REMARK    4  A    between atoms: C_6  and  C_7
REMARK    5  A    between atoms: C_7  and  C_8
REMARK    6  A    between atoms: C_8  and  C_9
REMARK    7  A    between atoms: C_9  and  O_10
REMARK    8  A    between atoms: O_10  and  S_11
REMARK    9  A    between atoms: S_11  and  C_12
REMARK                            x       y       z     vdW  Elec       q    Type
REMARK                         _______ _______ _______ _____ _____    ______ ____
ROOT
ATOM      1  C   UNL     1      -8.846   2.472 122.944  0.00  0.00    +0.000 C 
ENDROOT
BRANCH   1   2
ATOM      2  C   UNL     1      -8.068   2.997 124.145  0.00  0.00    +0.000 C 
BRANCH   2   3
ATOM      3  O   UNL     1      -8.819   3.883 124.986  0.00  0.00    +0.000 OA
BRANCH   3   5
ATOM      4  C   UNL     1      -7.135   3.334 126.974  0.00  0.00    +0.000 C 
ATOM      5  S   UNL     1      -7.886   4.681 126.080  0.00  0.00    +0.000 S 
ATOM      6  O   UNL     1      -8.772   5.383 126.986  0.00  0.00    +0.000 OA
ATOM      7  O   UNL     1      -6.844   5.373 125.351  0.00  0.00    +0.000 OA
ENDBRANCH   3   5
ENDBRANCH   2   3
ENDBRANCH   1   2
BRANCH   1   8
ATOM      8  C   UNL     1      -9.814   1.348 123.365  0.00  0.00    +0.000 C 
BRANCH   8   9
ATOM      9  C   UNL     1      -9.043   0.050 123.595  0.00  0.00    +0.000 C 
BRANCH   9  10
ATOM     10  O   UNL     1      -9.459  -0.631 124.771  0.00  0.00    +0.000 OA
BRANCH  10  11
ATOM     11  S   UNL     1      -8.944  -2.174 124.981  0.00  0.00    +0.000 S 
ATOM     12  C   UNL     1      -8.985  -2.730 123.284  0.00  0.00    +0.000 C 
ATOM     13  O   UNL     1      -7.567  -2.158 125.420  0.00  0.00    +0.000 OA
ATOM     14  O   UNL     1      -9.964  -2.904 125.712  0.00  0.00    +0.000 OA
ENDBRANCH  10  11
ENDBRANCH   9  10
ENDBRANCH   8   9
ENDBRANCH   1   8
TORSDOF 7
ENDMDL
