MODEL 1
REMARK VINA RESULT:      -5.7      0.000      0.000
REMARK  Name = Butamben
REMARK  7 active torsions:
REMARK  status: ('A' for Active; 'I' for Inactive)
REMARK    1  A    between atoms: C_1  and  C_2
REMARK    2  A    between atoms: C_2  and  C_3
REMARK    3  A    between atoms: C_3  and  C_4
REMARK    4  A    between atoms: C_4  and  O_5
REMARK    5  A    between atoms: O_5  and  C_6
REMARK    6  A    between atoms: C_6  and  C_8
REMARK    7  A    between atoms: C_11  and  N_12
REMARK                            x       y       z     vdW  Elec       q    Type
REMARK                         _______ _______ _______ _____ _____    ______ ____
ROOT
ATOM      1  C   UNL     1     -10.013   6.945 130.039  0.00  0.00    +0.000 A 
ATOM      2  C   UNL     1      -8.682   6.880 130.458  0.00  0.00    +0.000 A 
ATOM      3  C   UNL     1      -8.378   6.439 131.759  0.00  0.00    +0.000 A 
ATOM      4  C   UNL     1      -9.387   6.070 132.656  0.00  0.00    +0.000 A 
ATOM      5  C   UNL     1     -10.714   6.145 132.230  0.00  0.00    +0.000 A 
ATOM      6  C   UNL     1     -11.028   6.589 130.938  0.00  0.00    +0.000 A 
ENDROOT
BRANCH   4   7
ATOM      7  N   UNL     1      -9.079   5.596 133.919  0.00  0.00    +0.000 N 
ATOM      8  H   UNL     1      -9.711   5.739 134.694  0.00  0.00    +0.000 HD
ATOM      9  H   UNL     1      -8.276   5.000 134.065  0.00  0.00    +0.000 HD
ENDBRANCH   4   7
BRANCH   1  10
ATOM     10  C   UNL     1     -10.410   7.451 128.697  0.00  0.00    +0.000 C 
ATOM     11  O   UNL     1     -10.002   8.518 128.260  0.00  0.00    +0.000 OA
BRANCH  10  12
ATOM     12  O   UNL     1     -11.313   6.637 128.083  0.00  0.00    +0.000 OA
BRANCH  12  13
ATOM     13  C   UNL     1     -12.359   7.350 127.385  0.00  0.00    +0.000 C 
BRANCH  13  14
ATOM     14  C   UNL     1     -13.425   7.825 128.375  0.00  0.00    +0.000 C 
BRANCH  14  16
ATOM     15  C   UNL     1     -13.035   9.775 129.928  0.00  0.00    +0.000 C 
ATOM     16  C   UNL     1     -13.434   9.350 128.523  0.00  0.00    +0.000 C 
ENDBRANCH  14  16
ENDBRANCH  13  14
ENDBRANCH  12  13
ENDBRANCH  10  12
ENDBRANCH   1  10
TORSDOF 6
ENDMDL
MODEL 2
REMARK VINA RESULT:      -5.5     11.140     12.094
REMARK  Name = Butamben
REMARK  7 active torsions:
REMARK  status: ('A' for Active; 'I' for Inactive)
REMARK    1  A    between atoms: C_1  and  C_2
REMARK    2  A    between atoms: C_2  and  C_3
REMARK    3  A    between atoms: C_3  and  C_4
REMARK    4  A    between atoms: C_4  and  O_5
REMARK    5  A    between atoms: O_5  and  C_6
REMARK    6  A    between atoms: C_6  and  C_8
REMARK    7  A    between atoms: C_11  and  N_12
REMARK                            x       y       z     vdW  Elec       q    Type
REMARK                         _______ _______ _______ _____ _____    ______ ____
ROOT
ATOM      1  C   UNL     1      -8.204  -2.973 126.442  0.00  0.00    +0.000 A 
ATOM      2  C   UNL     1      -7.122  -2.277 126.988  0.00  0.00    +0.000 A 
ATOM      3  C   UNL     1      -6.867  -2.348 128.370  0.00  0.00    +0.000 A 
ATOM      4  C   UNL     1      -7.686  -3.097 129.221  0.00  0.00    +0.000 A 
ATOM      5  C   UNL     1      -8.768  -3.783 128.668  0.00  0.00    +0.000 A 
ATOM      6  C   UNL     1      -9.034  -3.715 127.294  0.00  0.00    +0.000 A 
ENDROOT
BRANCH   4   7
ATOM      7  N   UNL     1      -7.405  -3.198 130.572  0.00  0.00    +0.000 N 
ATOM      8  H   UNL     1      -7.803  -2.547 131.234  0.00  0.00    +0.000 HD
ATOM      9  H   UNL     1      -6.896  -3.992 130.936  0.00  0.00    +0.000 HD
ENDBRANCH   4   7
BRANCH   1  10
ATOM     10  C   UNL     1      -8.562  -2.901 125.000  0.00  0.00    +0.000 C 
ATOM     11  O   UNL     1      -9.668  -2.534 124.624  0.00  0.00    +0.000 OA
BRANCH  10  12
ATOM     12  O   UNL     1      -7.562  -3.355 124.194  0.00  0.00    +0.000 OA
BRANCH  12  13
ATOM     13  C   UNL     1      -6.998  -2.336 123.337  0.00  0.00    +0.000 C 
BRANCH  13  14
ATOM     14  C   UNL     1      -5.522  -2.634 123.065  0.00  0.00    +0.000 C 
BRANCH  14  16
ATOM     15  C   UNL     1      -4.346  -4.818 123.526  0.00  0.00    +0.000 C 
ATOM     16  C   UNL     1      -4.911  -3.543 124.136  0.00  0.00    +0.000 C 
ENDBRANCH  14  16
ENDBRANCH  13  14
ENDBRANCH  12  13
ENDBRANCH  10  12
ENDBRANCH   1  10
TORSDOF 6
ENDMDL
MODEL 3
REMARK VINA RESULT:      -5.2      2.898      5.238
REMARK  Name = Butamben
REMARK  7 active torsions:
REMARK  status: ('A' for Active; 'I' for Inactive)
REMARK    1  A    between atoms: C_1  and  C_2
REMARK    2  A    between atoms: C_2  and  C_3
REMARK    3  A    between atoms: C_3  and  C_4
REMARK    4  A    between atoms: C_4  and  O_5
REMARK    5  A    between atoms: O_5  and  C_6
REMARK    6  A    between atoms: C_6  and  C_8
REMARK    7  A    between atoms: C_11  and  N_12
REMARK                            x       y       z     vdW  Elec       q    Type
REMARK                         _______ _______ _______ _____ _____    ______ ____
ROOT
ATOM      1  C   UNL     1     -11.705   6.531 130.174  0.00  0.00    +0.000 A 
ATOM      2  C   UNL     1     -12.534   7.274 131.018  0.00  0.00    +0.000 A 
ATOM      3  C   UNL     1     -12.995   8.540 130.611  0.00  0.00    +0.000 A 
ATOM      4  C   UNL     1     -12.632   9.081 129.373  0.00  0.00    +0.000 A 
ATOM      5  C   UNL     1     -11.798   8.334 128.540  0.00  0.00    +0.000 A 
ATOM      6  C   UNL     1     -11.328   7.075 128.939  0.00  0.00    +0.000 A 
ENDROOT
BRANCH   4   7
ATOM      7  N   UNL     1     -13.123  10.307 128.960  0.00  0.00    +0.000 N 
ATOM      8  H   UNL     1     -12.505  11.016 128.593  0.00  0.00    +0.000 HD
ATOM      9  H   UNL     1     -14.119  10.473 128.908  0.00  0.00    +0.000 HD
ENDBRANCH   4   7
BRANCH   1  10
ATOM     10  C   UNL     1     -11.139   5.210 130.561  0.00  0.00    +0.000 C 
ATOM     11  O   UNL     1     -11.467   4.174 130.000  0.00  0.00    +0.000 OA
BRANCH  10  12
ATOM     12  O   UNL     1     -10.301   5.300 131.632  0.00  0.00    +0.000 OA
BRANCH  12  13
ATOM     13  C   UNL     1      -8.998   4.717 131.401  0.00  0.00    +0.000 C 
BRANCH  13  14
ATOM     14  C   UNL     1      -8.203   5.575 130.414  0.00  0.00    +0.000 C 
BRANCH  14  16
ATOM     15  C   UNL     1      -6.182   6.912 131.116  0.00  0.00    +0.000 C 
ATOM     16  C   UNL     1      -7.702   6.874 131.054  0.00  0.00    +0.000 C 
ENDBRANCH  14  16
ENDBRANCH  13  14
ENDBRANCH  12  13
ENDBRANCH  10  12
ENDBRANCH   1  10
TORSDOF 6
ENDMDL
MODEL 4
REMARK VINA RESULT:      -5.1      2.994      5.682
REMARK  Name = Butamben
REMARK  7 active torsions:
REMARK  status: ('A' for Active; 'I' for Inactive)
REMARK    1  A    between atoms: C_1  and  C_2
REMARK    2  A    between atoms: C_2  and  C_3
REMARK    3  A    between atoms: C_3  and  C_4
REMARK    4  A    between atoms: C_4  and  O_5
REMARK    5  A    between atoms: O_5  and  C_6
REMARK    6  A    between atoms: C_6  and  C_8
REMARK    7  A    between atoms: C_11  and  N_12
REMARK                            x       y       z     vdW  Elec       q    Type
REMARK                         _______ _______ _______ _____ _____    ______ ____
ROOT
ATOM      1  C   UNL     1     -10.601   7.146 130.213  0.00  0.00    +0.000 A 
ATOM      2  C   UNL     1     -10.325   7.789 129.003  0.00  0.00    +0.000 A 
ATOM      3  C   UNL     1     -11.277   8.657 128.438  0.00  0.00    +0.000 A 
ATOM      4  C   UNL     1     -12.510   8.887 129.059  0.00  0.00    +0.000 A 
ATOM      5  C   UNL     1     -12.778   8.235 130.264  0.00  0.00    +0.000 A 
ATOM      6  C   UNL     1     -11.839   7.363 130.832  0.00  0.00    +0.000 A 
ENDROOT
BRANCH   4   7
ATOM      7  N   UNL     1     -13.424   9.774 128.521  0.00  0.00    +0.000 N 
ATOM      8  H   UNL     1     -13.678   9.729 127.544  0.00  0.00    +0.000 HD
ATOM      9  H   UNL     1     -13.941  10.407 129.116  0.00  0.00    +0.000 HD
ENDBRANCH   4   7
BRANCH   1  10
ATOM     10  C   UNL     1      -9.663   6.176 130.841  0.00  0.00    +0.000 C 
ATOM     11  O   UNL     1      -9.352   5.127 130.291  0.00  0.00    +0.000 OA
BRANCH  10  12
ATOM     12  O   UNL     1      -9.278   6.561 132.089  0.00  0.00    +0.000 OA
BRANCH  12  13
ATOM     13  C   UNL     1      -8.115   5.857 132.582  0.00  0.00    +0.000 C 
BRANCH  13  14
ATOM     14  C   UNL     1      -8.209   5.680 134.099  0.00  0.00    +0.000 C 
BRANCH  14  16
ATOM     15  C   UNL     1      -9.161   3.416 133.518  0.00  0.00    +0.000 C 
ATOM     16  C   UNL     1      -8.308   4.205 134.502  0.00  0.00    +0.000 C 
ENDBRANCH  14  16
ENDBRANCH  13  14
ENDBRANCH  12  13
ENDBRANCH  10  12
ENDBRANCH   1  10
TORSDOF 6
ENDMDL
MODEL 5
REMARK VINA RESULT:      -5.0      1.899      2.761
REMARK  Name = Butamben
REMARK  7 active torsions:
REMARK  status: ('A' for Active; 'I' for Inactive)
REMARK    1  A    between atoms: C_1  and  C_2
REMARK    2  A    between atoms: C_2  and  C_3
REMARK    3  A    between atoms: C_3  and  C_4
REMARK    4  A    between atoms: C_4  and  O_5
REMARK    5  A    between atoms: O_5  and  C_6
REMARK    6  A    between atoms: C_6  and  C_8
REMARK    7  A    between atoms: C_11  and  N_12
REMARK                            x       y       z     vdW  Elec       q    Type
REMARK                         _______ _______ _______ _____ _____    ______ ____
ROOT
ATOM      1  C   UNL     1     -10.042   5.912 131.319  0.00  0.00    +0.000 A 
ATOM      2  C   UNL     1      -9.557   5.152 132.387  0.00  0.00    +0.000 A 
ATOM      3  C   UNL     1      -8.208   5.263 132.771  0.00  0.00    +0.000 A 
ATOM      4  C   UNL     1      -7.329   6.116 132.097  0.00  0.00    +0.000 A 
ATOM      5  C   UNL     1      -7.820   6.865 131.027  0.00  0.00    +0.000 A 
ATOM      6  C   UNL     1      -9.161   6.759 130.632  0.00  0.00    +0.000 A 
ENDROOT
BRANCH   4   7
ATOM      7  N   UNL     1      -6.015   6.252 132.506  0.00  0.00    +0.000 N 
ATOM      8  H   UNL     1      -5.590   5.574 133.124  0.00  0.00    +0.000 HD
ATOM      9  H   UNL     1      -5.420   6.964 132.104  0.00  0.00    +0.000 HD
ENDBRANCH   4   7
BRANCH   1  10
ATOM     10  C   UNL     1     -11.442   5.807 130.827  0.00  0.00    +0.000 C 
ATOM     11  O   UNL     1     -11.735   5.134 129.847  0.00  0.00    +0.000 OA
BRANCH  10  12
ATOM     12  O   UNL     1     -12.301   6.590 131.536  0.00  0.00    +0.000 OA
BRANCH  12  13
ATOM     13  C   UNL     1     -13.213   7.351 130.710  0.00  0.00    +0.000 C 
BRANCH  13  14
ATOM     14  C   UNL     1     -12.458   8.463 129.978  0.00  0.00    +0.000 C 
BRANCH  14  16
ATOM     15  C   UNL     1     -13.633   7.485 127.970  0.00  0.00    +0.000 C 
ATOM     16  C   UNL     1     -13.049   8.746 128.593  0.00  0.00    +0.000 C 
ENDBRANCH  14  16
ENDBRANCH  13  14
ENDBRANCH  12  13
ENDBRANCH  10  12
ENDBRANCH   1  10
TORSDOF 6
ENDMDL
MODEL 6
REMARK VINA RESULT:      -5.0      3.686      5.829
REMARK  Name = Butamben
REMARK  7 active torsions:
REMARK  status: ('A' for Active; 'I' for Inactive)
REMARK    1  A    between atoms: C_1  and  C_2
REMARK    2  A    between atoms: C_2  and  C_3
REMARK    3  A    between atoms: C_3  and  C_4
REMARK    4  A    between atoms: C_4  and  O_5
REMARK    5  A    between atoms: O_5  and  C_6
REMARK    6  A    between atoms: C_6  and  C_8
REMARK    7  A    between atoms: C_11  and  N_12
REMARK                            x       y       z     vdW  Elec       q    Type
REMARK                         _______ _______ _______ _____ _____    ______ ____
ROOT
ATOM      1  C   UNL     1     -10.711   6.909 130.737  0.00  0.00    +0.000 A 
ATOM      2  C   UNL     1     -12.027   7.163 131.132  0.00  0.00    +0.000 A 
ATOM      3  C   UNL     1     -12.830   8.037 130.376  0.00  0.00    +0.000 A 
ATOM      4  C   UNL     1     -12.334   8.672 129.232  0.00  0.00    +0.000 A 
ATOM      5  C   UNL     1     -11.016   8.417 128.849  0.00  0.00    +0.000 A 
ATOM      6  C   UNL     1     -10.206   7.553 129.599  0.00  0.00    +0.000 A 
ENDROOT
BRANCH   4   7
ATOM      7  N   UNL     1     -13.141   9.496 128.468  0.00  0.00    +0.000 N 
ATOM      8  H   UNL     1     -12.960   9.632 127.484  0.00  0.00    +0.000 HD
ATOM      9  H   UNL     1     -13.993   9.883 128.851  0.00  0.00    +0.000 HD
ENDBRANCH   4   7
BRANCH   1  10
ATOM     10  C   UNL     1      -9.790   6.038 131.517  0.00  0.00    +0.000 C 
ATOM     11  O   UNL     1      -9.480   6.295 132.673  0.00  0.00    +0.000 OA
BRANCH  10  12
ATOM     12  O   UNL     1      -9.300   5.007 130.776  0.00  0.00    +0.000 OA
BRANCH  12  13
ATOM     13  C   UNL     1     -10.077   3.791 130.884  0.00  0.00    +0.000 C 
BRANCH  13  14
ATOM     14  C   UNL     1      -9.150   2.588 131.070  0.00  0.00    +0.000 C 
BRANCH  14  16
ATOM     15  C   UNL     1      -9.082   0.159 131.751  0.00  0.00    +0.000 C 
ATOM     16  C   UNL     1      -9.791   1.494 131.930  0.00  0.00    +0.000 C 
ENDBRANCH  14  16
ENDBRANCH  13  14
ENDBRANCH  12  13
ENDBRANCH  10  12
ENDBRANCH   1  10
TORSDOF 6
ENDMDL
MODEL 7
REMARK VINA RESULT:      -4.9      9.462     10.768
REMARK  Name = Butamben
REMARK  7 active torsions:
REMARK  status: ('A' for Active; 'I' for Inactive)
REMARK    1  A    between atoms: C_1  and  C_2
REMARK    2  A    between atoms: C_2  and  C_3
REMARK    3  A    between atoms: C_3  and  C_4
REMARK    4  A    between atoms: C_4  and  O_5
REMARK    5  A    between atoms: O_5  and  C_6
REMARK    6  A    between atoms: C_6  and  C_8
REMARK    7  A    between atoms: C_11  and  N_12
REMARK                            x       y       z     vdW  Elec       q    Type
REMARK                         _______ _______ _______ _____ _____    ______ ____
ROOT
ATOM      1  C   UNL     1      -8.628   0.485 124.876  0.00  0.00    +0.000 A 
ATOM      2  C   UNL     1      -9.719   1.094 124.251  0.00  0.00    +0.000 A 
ATOM      3  C   UNL     1      -9.505   2.098 123.288  0.00  0.00    +0.000 A 
ATOM      4  C   UNL     1      -8.214   2.512 122.947  0.00  0.00    +0.000 A 
ATOM      5  C   UNL     1      -7.130   1.903 123.582  0.00  0.00    +0.000 A 
ATOM      6  C   UNL     1      -7.333   0.906 124.546  0.00  0.00    +0.000 A 
ENDROOT
BRANCH   4   7
ATOM      7  N   UNL     1      -8.008   3.469 121.969  0.00  0.00    +0.000 N 
ATOM      8  H   UNL     1      -8.694   3.626 121.244  0.00  0.00    +0.000 HD
ATOM      9  H   UNL     1      -7.226   4.108 122.028  0.00  0.00    +0.000 HD
ENDBRANCH   4   7
BRANCH   1  10
ATOM     10  C   UNL     1      -8.782  -0.545 125.939  0.00  0.00    +0.000 C 
ATOM     11  O   UNL     1      -8.165  -0.484 126.994  0.00  0.00    +0.000 OA
BRANCH  10  12
ATOM     12  O   UNL     1      -9.607  -1.561 125.561  0.00  0.00    +0.000 OA
BRANCH  12  13
ATOM     13  C   UNL     1      -9.092  -2.875 125.873  0.00  0.00    +0.000 C 
BRANCH  13  14
ATOM     14  C   UNL     1      -8.668  -3.594 124.590  0.00  0.00    +0.000 C 
BRANCH  14  16
ATOM     15  C   UNL     1      -8.271  -2.223 122.509  0.00  0.00    +0.000 C 
ATOM     16  C   UNL     1      -9.302  -2.969 123.343  0.00  0.00    +0.000 C 
ENDBRANCH  14  16
ENDBRANCH  13  14
ENDBRANCH  12  13
ENDBRANCH  10  12
ENDBRANCH   1  10
TORSDOF 6
ENDMDL
MODEL 8
REMARK VINA RESULT:      -4.9     10.259     11.178
REMARK  Name = Butamben
REMARK  7 active torsions:
REMARK  status: ('A' for Active; 'I' for Inactive)
REMARK    1  A    between atoms: C_1  and  C_2
REMARK    2  A    between atoms: C_2  and  C_3
REMARK    3  A    between atoms: C_3  and  C_4
REMARK    4  A    between atoms: C_4  and  O_5
REMARK    5  A    between atoms: O_5  and  C_6
REMARK    6  A    between atoms: C_6  and  C_8
REMARK    7  A    between atoms: C_11  and  N_12
REMARK                            x       y       z     vdW  Elec       q    Type
REMARK                         _______ _______ _______ _____ _____    ______ ____
ROOT
ATOM      1  C   UNL     1      -8.488  -2.713 127.184  0.00  0.00    +0.000 A 
ATOM      2  C   UNL     1      -8.554  -3.628 128.237  0.00  0.00    +0.000 A 
ATOM      3  C   UNL     1      -8.058  -3.275 129.505  0.00  0.00    +0.000 A 
ATOM      4  C   UNL     1      -7.485  -2.020 129.737  0.00  0.00    +0.000 A 
ATOM      5  C   UNL     1      -7.416  -1.115 128.677  0.00  0.00    +0.000 A 
ATOM      6  C   UNL     1      -7.902  -1.459 127.408  0.00  0.00    +0.000 A 
ENDROOT
BRANCH   4   7
ATOM      7  N   UNL     1      -7.038  -1.663 130.997  0.00  0.00    +0.000 N 
ATOM      8  H   UNL     1      -6.573  -0.779 131.151  0.00  0.00    +0.000 HD
ATOM      9  H   UNL     1      -7.272  -2.223 131.806  0.00  0.00    +0.000 HD
ENDBRANCH   4   7
BRANCH   1  10
ATOM     10  C   UNL     1      -8.944  -3.037 125.805  0.00  0.00    +0.000 C 
ATOM     11  O   UNL     1      -9.947  -2.531 125.318  0.00  0.00    +0.000 OA
BRANCH  10  12
ATOM     12  O   UNL     1      -8.173  -3.992 125.215  0.00  0.00    +0.000 OA
BRANCH  12  13
ATOM     13  C   UNL     1      -7.431  -3.515 124.069  0.00  0.00    +0.000 C 
BRANCH  13  14
ATOM     14  C   UNL     1      -5.975  -3.246 124.457  0.00  0.00    +0.000 C 
BRANCH  14  16
ATOM     15  C   UNL     1      -6.658  -0.952 123.657  0.00  0.00    +0.000 C 
ATOM     16  C   UNL     1      -5.651  -1.749 124.475  0.00  0.00    +0.000 C 
ENDBRANCH  14  16
ENDBRANCH  13  14
ENDBRANCH  12  13
ENDBRANCH  10  12
ENDBRANCH   1  10
TORSDOF 6
ENDMDL
MODEL 9
REMARK VINA RESULT:      -4.7     11.067     11.786
REMARK  Name = Butamben
REMARK  7 active torsions:
REMARK  status: ('A' for Active; 'I' for Inactive)
REMARK    1  A    between atoms: C_1  and  C_2
REMARK    2  A    between atoms: C_2  and  C_3
REMARK    3  A    between atoms: C_3  and  C_4
REMARK    4  A    between atoms: C_4  and  O_5
REMARK    5  A    between atoms: O_5  and  C_6
REMARK    6  A    between atoms: C_6  and  C_8
REMARK    7  A    between atoms: C_11  and  N_12
REMARK                            x       y       z     vdW  Elec       q    Type
REMARK                         _______ _______ _______ _____ _____    ______ ____
ROOT
ATOM      1  C   UNL     1      -7.032  -3.148 128.703  0.00  0.00    +0.000 A 
ATOM      2  C   UNL     1      -6.721  -3.841 129.876  0.00  0.00    +0.000 A 
ATOM      3  C   UNL     1      -5.410  -3.805 130.386  0.00  0.00    +0.000 A 
ATOM      4  C   UNL     1      -4.398  -3.093 129.734  0.00  0.00    +0.000 A 
ATOM      5  C   UNL     1      -4.716  -2.410 128.559  0.00  0.00    +0.000 A 
ATOM      6  C   UNL     1      -6.017  -2.445 128.040  0.00  0.00    +0.000 A 
ENDROOT
BRANCH   4   7
ATOM      7  N   UNL     1      -3.121  -3.026 130.263  0.00  0.00    +0.000 N 
ATOM      8  H   UNL     1      -2.317  -3.300 129.715  0.00  0.00    +0.000 HD
ATOM      9  H   UNL     1      -2.957  -2.592 131.161  0.00  0.00    +0.000 HD
ENDBRANCH   4   7
BRANCH   1  10
ATOM     10  C   UNL     1      -8.383  -3.186 128.080  0.00  0.00    +0.000 C 
ATOM     11  O   UNL     1      -9.264  -3.932 128.487  0.00  0.00    +0.000 OA
BRANCH  10  12
ATOM     12  O   UNL     1      -8.475  -2.370 126.993  0.00  0.00    +0.000 OA
BRANCH  12  13
ATOM     13  C   UNL     1      -9.181  -2.963 125.879  0.00  0.00    +0.000 C 
BRANCH  13  14
ATOM     14  C   UNL     1      -8.223  -3.810 125.038  0.00  0.00    +0.000 C 
BRANCH  14  16
ATOM     15  C   UNL     1      -5.871  -3.337 124.257  0.00  0.00    +0.000 C 
ATOM     16  C   UNL     1      -7.337  -2.948 124.133  0.00  0.00    +0.000 C 
ENDBRANCH  14  16
ENDBRANCH  13  14
ENDBRANCH  12  13
ENDBRANCH  10  12
ENDBRANCH   1  10
TORSDOF 6
ENDMDL
