MODEL 1
REMARK VINA RESULT:      -6.2      0.000      0.000
REMARK  Name = Butalbital
REMARK  6 active torsions:
REMARK  status: ('A' for Active; 'I' for Inactive)
REMARK    1  A    between atoms: C_1  and  C_2
REMARK    2  A    between atoms: C_2  and  C_3
REMARK    3  A    between atoms: C_2  and  C_4
REMARK    4  A    between atoms: C_4  and  C_5
REMARK    5  A    between atoms: C_5  and  C_6
REMARK    6  A    between atoms: C_6  and  C_7
REMARK                            x       y       z     vdW  Elec       q    Type
REMARK                         _______ _______ _______ _____ _____    ______ ____
ROOT
ATOM      1  C   UNL     1      -9.928   6.134 130.344  0.00  0.00    +0.000 C 
ATOM      2  C   UNL     1      -9.342   5.028 129.499  0.00  0.00    +0.000 C 
ATOM      3  O   UNL     1      -8.891   5.219 128.370  0.00  0.00    +0.000 OA
ATOM      4  N   UNL     1      -9.308   3.782 130.050  0.00  0.00    +0.000 N 
ATOM      5  C   UNL     1      -9.730   3.435 131.291  0.00  0.00    +0.000 C 
ATOM      6  O   UNL     1      -9.604   2.286 131.715  0.00  0.00    +0.000 OA
ATOM      7  N   UNL     1     -10.284   4.407 132.052  0.00  0.00    +0.000 N 
ATOM      8  C   UNL     1     -10.400   5.721 131.722  0.00  0.00    +0.000 C 
ATOM      9  O   UNL     1     -10.857   6.520 132.538  0.00  0.00    +0.000 OA
ATOM     10  H   UNL     1      -8.879   3.057 129.490  0.00  0.00    +0.000 HD
ATOM     11  H   UNL     1     -10.574   4.159 132.988  0.00  0.00    +0.000 HD
ENDROOT
BRANCH   1  12
ATOM     12  C   UNL     1     -11.178   6.699 129.593  0.00  0.00    +0.000 C 
BRANCH  12  14
ATOM     13  C   UNL     1     -10.717   8.212 127.633  0.00  0.00    +0.000 C 
ATOM     14  C   UNL     1     -11.096   8.166 129.112  0.00  0.00    +0.000 C 
ATOM     15  C   UNL     1     -12.409   8.951 129.233  0.00  0.00    +0.000 C 
ENDBRANCH  12  14
ENDBRANCH   1  12
BRANCH   1  16
ATOM     16  C   UNL     1      -8.799   7.147 130.580  0.00  0.00    +0.000 C 
BRANCH  16  17
ATOM     17  C   UNL     1      -7.594   6.724 131.356  0.00  0.00    +0.000 C 
ATOM     18  C   UNL     1      -6.378   7.087 130.931  0.00  0.00    +0.000 C 
ENDBRANCH  16  17
ENDBRANCH   1  16
TORSDOF 4
ENDMDL
MODEL 2
REMARK VINA RESULT:      -6.0      9.271     11.254
REMARK  Name = Butalbital
REMARK  6 active torsions:
REMARK  status: ('A' for Active; 'I' for Inactive)
REMARK    1  A    between atoms: C_1  and  C_2
REMARK    2  A    between atoms: C_2  and  C_3
REMARK    3  A    between atoms: C_2  and  C_4
REMARK    4  A    between atoms: C_4  and  C_5
REMARK    5  A    between atoms: C_5  and  C_6
REMARK    6  A    between atoms: C_6  and  C_7
REMARK                            x       y       z     vdW  Elec       q    Type
REMARK                         _______ _______ _______ _____ _____    ______ ____
ROOT
ATOM      1  C   UNL     1      -6.274  -2.267 124.302  0.00  0.00    +0.000 C 
ATOM      2  C   UNL     1      -6.147  -1.497 125.596  0.00  0.00    +0.000 C 
ATOM      3  O   UNL     1      -5.824  -2.028 126.657  0.00  0.00    +0.000 OA
ATOM      4  N   UNL     1      -6.387  -0.157 125.544  0.00  0.00    +0.000 N 
ATOM      5  C   UNL     1      -6.711   0.564 124.441  0.00  0.00    +0.000 C 
ATOM      6  O   UNL     1      -6.854   1.785 124.492  0.00  0.00    +0.000 OA
ATOM      7  N   UNL     1      -6.857  -0.112 123.278  0.00  0.00    +0.000 N 
ATOM      8  C   UNL     1      -6.645  -1.442 123.088  0.00  0.00    +0.000 C 
ATOM      9  O   UNL     1      -6.740  -1.922 121.959  0.00  0.00    +0.000 OA
ATOM     10  H   UNL     1      -6.262   0.354 126.407  0.00  0.00    +0.000 HD
ATOM     11  H   UNL     1      -7.071   0.425 122.450  0.00  0.00    +0.000 HD
ENDROOT
BRANCH   1  12
ATOM     12  C   UNL     1      -7.408  -3.328 124.486  0.00  0.00    +0.000 C 
BRANCH  12  14
ATOM     13  C   UNL     1      -9.718  -3.436 123.489  0.00  0.00    +0.000 C 
ATOM     14  C   UNL     1      -8.855  -2.791 124.572  0.00  0.00    +0.000 C 
ATOM     15  C   UNL     1      -9.565  -3.082 125.901  0.00  0.00    +0.000 C 
ENDBRANCH  12  14
ENDBRANCH   1  12
BRANCH   1  16
ATOM     16  C   UNL     1      -4.884  -2.845 124.000  0.00  0.00    +0.000 C 
BRANCH  16  17
ATOM     17  C   UNL     1      -4.641  -4.303 124.222  0.00  0.00    +0.000 C 
ATOM     18  C   UNL     1      -4.122  -5.040 123.233  0.00  0.00    +0.000 C 
ENDBRANCH  16  17
ENDBRANCH   1  16
TORSDOF 4
ENDMDL
MODEL 3
REMARK VINA RESULT:      -5.8      8.847     10.734
REMARK  Name = Butalbital
REMARK  6 active torsions:
REMARK  status: ('A' for Active; 'I' for Inactive)
REMARK    1  A    between atoms: C_1  and  C_2
REMARK    2  A    between atoms: C_2  and  C_3
REMARK    3  A    between atoms: C_2  and  C_4
REMARK    4  A    between atoms: C_4  and  C_5
REMARK    5  A    between atoms: C_5  and  C_6
REMARK    6  A    between atoms: C_6  and  C_7
REMARK                            x       y       z     vdW  Elec       q    Type
REMARK                         _______ _______ _______ _____ _____    ______ ____
ROOT
ATOM      1  C   UNL     1      -8.101  -2.027 124.951  0.00  0.00    +0.000 C 
ATOM      2  C   UNL     1      -9.012  -1.715 123.788  0.00  0.00    +0.000 C 
ATOM      3  O   UNL     1      -9.777  -2.546 123.299  0.00  0.00    +0.000 OA
ATOM      4  N   UNL     1      -8.976  -0.444 123.297  0.00  0.00    +0.000 N 
ATOM      5  C   UNL     1      -8.216   0.579 123.761  0.00  0.00    +0.000 C 
ATOM      6  O   UNL     1      -8.299   1.709 123.279  0.00  0.00    +0.000 OA
ATOM      7  N   UNL     1      -7.372   0.312 124.784  0.00  0.00    +0.000 N 
ATOM      8  C   UNL     1      -7.257  -0.871 125.445  0.00  0.00    +0.000 C 
ATOM      9  O   UNL     1      -6.502  -0.961 126.412  0.00  0.00    +0.000 OA
ATOM     10  H   UNL     1      -9.617  -0.237 122.544  0.00  0.00    +0.000 HD
ATOM     11  H   UNL     1      -6.826   1.079 125.151  0.00  0.00    +0.000 HD
ENDROOT
BRANCH   1  12
ATOM     12  C   UNL     1      -7.107  -3.144 124.494  0.00  0.00    +0.000 C 
BRANCH  12  14
ATOM     13  C   UNL     1      -4.767  -3.808 123.844  0.00  0.00    +0.000 C 
ATOM     14  C   UNL     1      -5.792  -2.676 123.830  0.00  0.00    +0.000 C 
ATOM     15  C   UNL     1      -5.933  -2.257 122.360  0.00  0.00    +0.000 C 
ENDBRANCH  12  14
ENDBRANCH   1  12
BRANCH   1  16
ATOM     16  C   UNL     1      -9.010  -2.407 126.128  0.00  0.00    +0.000 C 
BRANCH  16  17
ATOM     17  C   UNL     1      -8.759  -3.688 126.855  0.00  0.00    +0.000 C 
ATOM     18  C   UNL     1      -8.732  -3.690 128.193  0.00  0.00    +0.000 C 
ENDBRANCH  16  17
ENDBRANCH   1  16
TORSDOF 4
ENDMDL
MODEL 4
REMARK VINA RESULT:      -5.8      8.984     10.982
REMARK  Name = Butalbital
REMARK  6 active torsions:
REMARK  status: ('A' for Active; 'I' for Inactive)
REMARK    1  A    between atoms: C_1  and  C_2
REMARK    2  A    between atoms: C_2  and  C_3
REMARK    3  A    between atoms: C_2  and  C_4
REMARK    4  A    between atoms: C_4  and  C_5
REMARK    5  A    between atoms: C_5  and  C_6
REMARK    6  A    between atoms: C_6  and  C_7
REMARK                            x       y       z     vdW  Elec       q    Type
REMARK                         _______ _______ _______ _____ _____    ______ ____
ROOT
ATOM      1  C   UNL     1      -6.935  -2.181 124.390  0.00  0.00    +0.000 C 
ATOM      2  C   UNL     1      -7.062  -0.716 124.047  0.00  0.00    +0.000 C 
ATOM      3  O   UNL     1      -6.163   0.098 124.256  0.00  0.00    +0.000 OA
ATOM      4  N   UNL     1      -8.227  -0.316 123.464  0.00  0.00    +0.000 N 
ATOM      5  C   UNL     1      -9.281  -1.106 123.141  0.00  0.00    +0.000 C 
ATOM      6  O   UNL     1     -10.270  -0.653 122.564  0.00  0.00    +0.000 OA
ATOM      7  N   UNL     1      -9.197  -2.417 123.466  0.00  0.00    +0.000 N 
ATOM      8  C   UNL     1      -8.127  -3.040 124.027  0.00  0.00    +0.000 C 
ATOM      9  O   UNL     1      -8.151  -4.257 124.204  0.00  0.00    +0.000 OA
ATOM     10  H   UNL     1      -8.286   0.659 123.204  0.00  0.00    +0.000 HD
ATOM     11  H   UNL     1      -9.969  -3.013 123.201  0.00  0.00    +0.000 HD
ENDROOT
BRANCH   1  12
ATOM     12  C   UNL     1      -6.754  -2.296 125.939  0.00  0.00    +0.000 C 
BRANCH  12  14
ATOM     13  C   UNL     1      -8.349  -3.052 127.735  0.00  0.00    +0.000 C 
ATOM     14  C   UNL     1      -7.966  -1.897 126.812  0.00  0.00    +0.000 C 
ATOM     15  C   UNL     1      -7.721  -0.691 127.730  0.00  0.00    +0.000 C 
ENDBRANCH  12  14
ENDBRANCH   1  12
BRANCH   1  16
ATOM     16  C   UNL     1      -5.765  -2.724 123.557  0.00  0.00    +0.000 C 
BRANCH  16  17
ATOM     17  C   UNL     1      -4.777  -3.639 124.203  0.00  0.00    +0.000 C 
ATOM     18  C   UNL     1      -4.392  -4.750 123.562  0.00  0.00    +0.000 C 
ENDBRANCH  16  17
ENDBRANCH   1  16
TORSDOF 4
ENDMDL
MODEL 5
REMARK VINA RESULT:      -5.7      9.140     10.703
REMARK  Name = Butalbital
REMARK  6 active torsions:
REMARK  status: ('A' for Active; 'I' for Inactive)
REMARK    1  A    between atoms: C_1  and  C_2
REMARK    2  A    between atoms: C_2  and  C_3
REMARK    3  A    between atoms: C_2  and  C_4
REMARK    4  A    between atoms: C_4  and  C_5
REMARK    5  A    between atoms: C_5  and  C_6
REMARK    6  A    between atoms: C_6  and  C_7
REMARK                            x       y       z     vdW  Elec       q    Type
REMARK                         _______ _______ _______ _____ _____    ______ ____
ROOT
ATOM      1  C   UNL     1      -6.471  -1.972 124.583  0.00  0.00    +0.000 C 
ATOM      2  C   UNL     1      -6.889  -1.944 123.132  0.00  0.00    +0.000 C 
ATOM      3  O   UNL     1      -6.162  -1.514 122.237  0.00  0.00    +0.000 OA
ATOM      4  N   UNL     1      -8.123  -2.441 122.834  0.00  0.00    +0.000 N 
ATOM      5  C   UNL     1      -9.009  -2.979 123.708  0.00  0.00    +0.000 C 
ATOM      6  O   UNL     1     -10.079  -3.453 123.327  0.00  0.00    +0.000 OA
ATOM      7  N   UNL     1      -8.664  -2.988 125.017  0.00  0.00    +0.000 N 
ATOM      8  C   UNL     1      -7.480  -2.569 125.539  0.00  0.00    +0.000 C 
ATOM      9  O   UNL     1      -7.262  -2.701 126.743  0.00  0.00    +0.000 OA
ATOM     10  H   UNL     1      -8.377  -2.452 121.856  0.00  0.00    +0.000 HD
ATOM     11  H   UNL     1      -9.309  -3.414 125.667  0.00  0.00    +0.000 HD
ENDROOT
BRANCH   1  12
ATOM     12  C   UNL     1      -6.237  -0.496 125.042  0.00  0.00    +0.000 C 
BRANCH  12  14
ATOM     13  C   UNL     1      -7.963   1.050 126.028  0.00  0.00    +0.000 C 
ATOM     14  C   UNL     1      -7.363   0.517 124.728  0.00  0.00    +0.000 C 
ATOM     15  C   UNL     1      -6.908   1.752 123.939  0.00  0.00    +0.000 C 
ENDBRANCH  12  14
ENDBRANCH   1  12
BRANCH   1  16
ATOM     16  C   UNL     1      -5.237  -2.881 124.663  0.00  0.00    +0.000 C 
BRANCH  16  17
ATOM     17  C   UNL     1      -5.293  -4.239 124.043  0.00  0.00    +0.000 C 
ATOM     18  C   UNL     1      -4.194  -4.749 123.474  0.00  0.00    +0.000 C 
ENDBRANCH  16  17
ENDBRANCH   1  16
TORSDOF 4
ENDMDL
MODEL 6
REMARK VINA RESULT:      -5.7      2.138      4.141
REMARK  Name = Butalbital
REMARK  6 active torsions:
REMARK  status: ('A' for Active; 'I' for Inactive)
REMARK    1  A    between atoms: C_1  and  C_2
REMARK    2  A    between atoms: C_2  and  C_3
REMARK    3  A    between atoms: C_2  and  C_4
REMARK    4  A    between atoms: C_4  and  C_5
REMARK    5  A    between atoms: C_5  and  C_6
REMARK    6  A    between atoms: C_6  and  C_7
REMARK                            x       y       z     vdW  Elec       q    Type
REMARK                         _______ _______ _______ _____ _____    ______ ____
ROOT
ATOM      1  C   UNL     1      -8.917   5.738 131.141  0.00  0.00    +0.000 C 
ATOM      2  C   UNL     1      -9.550   5.882 132.505  0.00  0.00    +0.000 C 
ATOM      3  O   UNL     1      -8.917   5.744 133.551  0.00  0.00    +0.000 OA
ATOM      4  N   UNL     1     -10.876   6.198 132.541  0.00  0.00    +0.000 N 
ATOM      5  C   UNL     1     -11.684   6.416 131.473  0.00  0.00    +0.000 C 
ATOM      6  O   UNL     1     -12.859   6.751 131.616  0.00  0.00    +0.000 OA
ATOM      7  N   UNL     1     -11.141   6.264 130.243  0.00  0.00    +0.000 N 
ATOM      8  C   UNL     1      -9.841   5.978 129.966  0.00  0.00    +0.000 C 
ATOM      9  O   UNL     1      -9.458   5.942 128.797  0.00  0.00    +0.000 OA
ATOM     10  H   UNL     1     -11.279   6.328 133.458  0.00  0.00    +0.000 HD
ATOM     11  H   UNL     1     -11.732   6.454 129.446  0.00  0.00    +0.000 HD
ENDROOT
BRANCH   1  12
ATOM     12  C   UNL     1      -8.396   4.270 131.008  0.00  0.00    +0.000 C 
BRANCH  12  14
ATOM     13  C   UNL     1      -8.995   2.297 129.562  0.00  0.00    +0.000 C 
ATOM     14  C   UNL     1      -9.454   3.179 130.722  0.00  0.00    +0.000 C 
ATOM     15  C   UNL     1      -9.720   2.226 131.894  0.00  0.00    +0.000 C 
ENDBRANCH  12  14
ENDBRANCH   1  12
BRANCH   1  16
ATOM     16  C   UNL     1      -7.836   6.823 131.045  0.00  0.00    +0.000 C 
BRANCH  16  17
ATOM     17  C   UNL     1      -6.408   6.448 131.275  0.00  0.00    +0.000 C 
ATOM     18  C   UNL     1      -5.436   7.226 130.783  0.00  0.00    +0.000 C 
ENDBRANCH  16  17
ENDBRANCH   1  16
TORSDOF 4
ENDMDL
MODEL 7
REMARK VINA RESULT:      -5.5      8.853     10.361
REMARK  Name = Butalbital
REMARK  6 active torsions:
REMARK  status: ('A' for Active; 'I' for Inactive)
REMARK    1  A    between atoms: C_1  and  C_2
REMARK    2  A    between atoms: C_2  and  C_3
REMARK    3  A    between atoms: C_2  and  C_4
REMARK    4  A    between atoms: C_4  and  C_5
REMARK    5  A    between atoms: C_5  and  C_6
REMARK    6  A    between atoms: C_6  and  C_7
REMARK                            x       y       z     vdW  Elec       q    Type
REMARK                         _______ _______ _______ _____ _____    ______ ____
ROOT
ATOM      1  C   UNL     1      -6.795  -1.859 124.149  0.00  0.00    +0.000 C 
ATOM      2  C   UNL     1      -8.053  -2.672 123.955  0.00  0.00    +0.000 C 
ATOM      3  O   UNL     1      -8.524  -2.916 122.846  0.00  0.00    +0.000 OA
ATOM      4  N   UNL     1      -8.654  -3.159 125.078  0.00  0.00    +0.000 N 
ATOM      5  C   UNL     1      -8.226  -3.003 126.356  0.00  0.00    +0.000 C 
ATOM      6  O   UNL     1      -8.815  -3.531 127.299  0.00  0.00    +0.000 OA
ATOM      7  N   UNL     1      -7.116  -2.253 126.551  0.00  0.00    +0.000 N 
ATOM      8  C   UNL     1      -6.342  -1.693 125.584  0.00  0.00    +0.000 C 
ATOM      9  O   UNL     1      -5.312  -1.095 125.894  0.00  0.00    +0.000 OA
ATOM     10  H   UNL     1      -9.473  -3.732 124.934  0.00  0.00    +0.000 HD
ATOM     11  H   UNL     1      -6.778  -2.159 127.499  0.00  0.00    +0.000 HD
ENDROOT
BRANCH   1  12
ATOM     12  C   UNL     1      -7.064  -0.423 123.594  0.00  0.00    +0.000 C 
BRANCH  12  14
ATOM     13  C   UNL     1      -7.802   1.650 124.820  0.00  0.00    +0.000 C 
ATOM     14  C   UNL     1      -8.270   0.339 124.190  0.00  0.00    +0.000 C 
ATOM     15  C   UNL     1      -9.348   0.726 123.169  0.00  0.00    +0.000 C 
ENDBRANCH  12  14
ENDBRANCH   1  12
BRANCH   1  16
ATOM     16  C   UNL     1      -5.667  -2.627 123.446  0.00  0.00    +0.000 C 
BRANCH  16  17
ATOM     17  C   UNL     1      -5.272  -3.972 123.964  0.00  0.00    +0.000 C 
ATOM     18  C   UNL     1      -4.116  -4.517 123.564  0.00  0.00    +0.000 C 
ENDBRANCH  16  17
ENDBRANCH   1  16
TORSDOF 4
ENDMDL
MODEL 8
REMARK VINA RESULT:      -5.5      6.642      8.622
REMARK  Name = Butalbital
REMARK  6 active torsions:
REMARK  status: ('A' for Active; 'I' for Inactive)
REMARK    1  A    between atoms: C_1  and  C_2
REMARK    2  A    between atoms: C_2  and  C_3
REMARK    3  A    between atoms: C_2  and  C_4
REMARK    4  A    between atoms: C_4  and  C_5
REMARK    5  A    between atoms: C_5  and  C_6
REMARK    6  A    between atoms: C_6  and  C_7
REMARK                            x       y       z     vdW  Elec       q    Type
REMARK                         _______ _______ _______ _____ _____    ______ ____
ROOT
ATOM      1  C   UNL     1      -7.548   1.812 124.476  0.00  0.00    +0.000 C 
ATOM      2  C   UNL     1      -8.828   2.613 124.506  0.00  0.00    +0.000 C 
ATOM      3  O   UNL     1      -8.912   3.716 125.043  0.00  0.00    +0.000 OA
ATOM      4  N   UNL     1      -9.912   2.069 123.883  0.00  0.00    +0.000 N 
ATOM      5  C   UNL     1      -9.954   0.886 123.220  0.00  0.00    +0.000 C 
ATOM      6  O   UNL     1     -10.973   0.510 122.643  0.00  0.00    +0.000 OA
ATOM      7  N   UNL     1      -8.823   0.142 123.207  0.00  0.00    +0.000 N 
ATOM      8  C   UNL     1      -7.622   0.493 123.737  0.00  0.00    +0.000 C 
ATOM      9  O   UNL     1      -6.648  -0.245 123.590  0.00  0.00    +0.000 OA
ATOM     10  H   UNL     1     -10.752   2.630 123.877  0.00  0.00    +0.000 HD
ATOM     11  H   UNL     1      -8.843  -0.726 122.690  0.00  0.00    +0.000 HD
ENDROOT
BRANCH   1  12
ATOM     12  C   UNL     1      -7.158   1.478 125.952  0.00  0.00    +0.000 C 
BRANCH  12  14
ATOM     13  C   UNL     1      -7.857  -0.542 127.283  0.00  0.00    +0.000 C 
ATOM     14  C   UNL     1      -8.263   0.863 126.841  0.00  0.00    +0.000 C 
ATOM     15  C   UNL     1      -8.551   1.641 128.132  0.00  0.00    +0.000 C 
ENDBRANCH  12  14
ENDBRANCH   1  12
BRANCH   1  16
ATOM     16  C   UNL     1      -6.522   2.658 123.708  0.00  0.00    +0.000 C 
BRANCH  16  17
ATOM     17  C   UNL     1      -6.804   3.031 122.289  0.00  0.00    +0.000 C 
ATOM     18  C   UNL     1      -5.901   3.742 121.604  0.00  0.00    +0.000 C 
ENDBRANCH  16  17
ENDBRANCH   1  16
TORSDOF 4
ENDMDL
MODEL 9
REMARK VINA RESULT:      -5.5      8.888     10.472
REMARK  Name = Butalbital
REMARK  6 active torsions:
REMARK  status: ('A' for Active; 'I' for Inactive)
REMARK    1  A    between atoms: C_1  and  C_2
REMARK    2  A    between atoms: C_2  and  C_3
REMARK    3  A    between atoms: C_2  and  C_4
REMARK    4  A    between atoms: C_4  and  C_5
REMARK    5  A    between atoms: C_5  and  C_6
REMARK    6  A    between atoms: C_6  and  C_7
REMARK                            x       y       z     vdW  Elec       q    Type
REMARK                         _______ _______ _______ _____ _____    ______ ____
ROOT
ATOM      1  C   UNL     1      -7.502  -1.664 125.348  0.00  0.00    +0.000 C 
ATOM      2  C   UNL     1      -6.506  -0.536 125.463  0.00  0.00    +0.000 C 
ATOM      3  O   UNL     1      -5.576  -0.547 126.269  0.00  0.00    +0.000 OA
ATOM      4  N   UNL     1      -6.659   0.515 124.609  0.00  0.00    +0.000 N 
ATOM      5  C   UNL     1      -7.609   0.643 123.649  0.00  0.00    +0.000 C 
ATOM      6  O   UNL     1      -7.627   1.612 122.890  0.00  0.00    +0.000 OA
ATOM      7  N   UNL     1      -8.528  -0.345 123.549  0.00  0.00    +0.000 N 
ATOM      8  C   UNL     1      -8.557  -1.494 124.275  0.00  0.00    +0.000 C 
ATOM      9  O   UNL     1      -9.407  -2.350 124.033  0.00  0.00    +0.000 OA
ATOM     10  H   UNL     1      -5.965   1.247 124.670  0.00  0.00    +0.000 HD
ATOM     11  H   UNL     1      -9.219  -0.266 122.816  0.00  0.00    +0.000 HD
ENDROOT
BRANCH   1  12
ATOM     12  C   UNL     1      -8.263  -1.772 126.709  0.00  0.00    +0.000 C 
BRANCH  12  14
ATOM     13  C   UNL     1      -7.638  -2.504 129.037  0.00  0.00    +0.000 C 
ATOM     14  C   UNL     1      -7.908  -2.978 127.610  0.00  0.00    +0.000 C 
ATOM     15  C   UNL     1      -9.013  -4.037 127.723  0.00  0.00    +0.000 C 
ENDBRANCH  12  14
ENDBRANCH   1  12
BRANCH   1  16
ATOM     16  C   UNL     1      -6.703  -2.913 124.948  0.00  0.00    +0.000 C 
BRANCH  16  17
ATOM     17  C   UNL     1      -5.890  -2.884 123.695  0.00  0.00    +0.000 C 
ATOM     18  C   UNL     1      -4.801  -3.656 123.601  0.00  0.00    +0.000 C 
ENDBRANCH  16  17
ENDBRANCH   1  16
TORSDOF 4
ENDMDL
