MODEL 1
REMARK VINA RESULT:      -6.6      0.000      0.000
REMARK  Name = Butacaine
REMARK  15 active torsions:
REMARK  status: ('A' for Active; 'I' for Inactive)
REMARK    1  A    between atoms: C_1  and  C_2
REMARK    2  A    between atoms: C_2  and  C_3
REMARK    3  A    between atoms: C_3  and  C_4
REMARK    4  A    between atoms: C_4  and  N_5
REMARK    5  A    between atoms: N_5  and  C_6
REMARK    6  A    between atoms: N_5  and  C_10
REMARK    7  A    between atoms: C_6  and  C_7
REMARK    8  A    between atoms: C_7  and  C_8
REMARK    9  A    between atoms: C_8  and  C_9
REMARK   10  A    between atoms: C_10  and  C_11
REMARK   11  A    between atoms: C_11  and  C_12
REMARK   12  A    between atoms: C_12  and  O_13
REMARK   13  A    between atoms: O_13  and  C_14
REMARK   14  A    between atoms: C_14  and  C_16
REMARK   15  A    between atoms: C_19  and  N_20
REMARK                            x       y       z     vdW  Elec       q    Type
REMARK                         _______ _______ _______ _____ _____    ______ ____
ROOT
ATOM      1  C   UNL     1      -8.618   2.138 123.203  0.00  0.00    +0.000 C 
ENDROOT
BRANCH   1   2
ATOM      2  C   UNL     1      -8.654   0.851 124.023  0.00  0.00    +0.000 C 
BRANCH   2   3
ATOM      3  C   UNL     1      -7.514  -0.117 123.658  0.00  0.00    +0.000 C 
BRANCH   3   4
ATOM      4  N   UNL     1      -7.543  -1.389 124.432  0.00  0.00    +0.000 NA
BRANCH   4   5
ATOM      5  C   UNL     1      -6.137  -1.845 124.646  0.00  0.00    +0.000 C 
BRANCH   5   6
ATOM      6  C   UNL     1      -5.824  -3.226 124.080  0.00  0.00    +0.000 C 
BRANCH   6   8
ATOM      7  C   UNL     1      -4.236  -4.978 123.426  0.00  0.00    +0.000 C 
ATOM      8  C   UNL     1      -4.456  -3.462 123.493  0.00  0.00    +0.000 C 
ENDBRANCH   6   8
ENDBRANCH   5   6
ENDBRANCH   4   5
BRANCH   4   9
ATOM      9  C   UNL     1      -8.305  -1.185 125.692  0.00  0.00    +0.000 C 
BRANCH   9  10
ATOM     10  C   UNL     1      -8.905  -2.437 126.303  0.00  0.00    +0.000 C 
BRANCH  10  11
ATOM     11  C   UNL     1      -8.147  -3.054 127.448  0.00  0.00    +0.000 C 
ATOM     12  C   UNL     1      -9.091  -4.053 128.119  0.00  0.00    +0.000 C 
ENDBRANCH  10  11
ENDBRANCH   9  10
ENDBRANCH   4   9
ENDBRANCH   3   4
ENDBRANCH   2   3
ENDBRANCH   1   2
BRANCH   1  13
ATOM     13  O   UNL     1      -7.451   2.119 122.351  0.00  0.00    +0.000 OA
BRANCH  13  14
ATOM     14  C   UNL     1      -6.604   3.172 122.535  0.00  0.00    +0.000 C 
ATOM     15  O   UNL     1      -6.028   3.454 123.564  0.00  0.00    +0.000 OA
BRANCH  14  16
ATOM     16  C   UNL     1      -6.414   3.915 121.257  0.00  0.00    +0.000 A 
ATOM     17  C   UNL     1      -7.392   3.907 120.261  0.00  0.00    +0.000 A 
ATOM     18  C   UNL     1      -7.179   4.607 119.064  0.00  0.00    +0.000 A 
ATOM     19  C   UNL     1      -6.004   5.331 118.848  0.00  0.00    +0.000 A 
ATOM     20  C   UNL     1      -5.045   5.362 119.863  0.00  0.00    +0.000 A 
ATOM     21  C   UNL     1      -5.249   4.669 121.067  0.00  0.00    +0.000 A 
BRANCH  19  22
ATOM     22  N   UNL     1      -5.789   5.985 117.649  0.00  0.00    +0.000 N 
ATOM     23  H   UNL     1      -6.526   6.058 116.961  0.00  0.00    +0.000 HD
ATOM     24  H   UNL     1      -4.907   6.440 117.454  0.00  0.00    +0.000 HD
ENDBRANCH  19  22
ENDBRANCH  14  16
ENDBRANCH  13  14
ENDBRANCH   1  13
TORSDOF 13
ENDMDL
MODEL 2
REMARK VINA RESULT:      -6.2      1.566      2.401
REMARK  Name = Butacaine
REMARK  15 active torsions:
REMARK  status: ('A' for Active; 'I' for Inactive)
REMARK    1  A    between atoms: C_1  and  C_2
REMARK    2  A    between atoms: C_2  and  C_3
REMARK    3  A    between atoms: C_3  and  C_4
REMARK    4  A    between atoms: C_4  and  N_5
REMARK    5  A    between atoms: N_5  and  C_6
REMARK    6  A    between atoms: N_5  and  C_10
REMARK    7  A    between atoms: C_6  and  C_7
REMARK    8  A    between atoms: C_7  and  C_8
REMARK    9  A    between atoms: C_8  and  C_9
REMARK   10  A    between atoms: C_10  and  C_11
REMARK   11  A    between atoms: C_11  and  C_12
REMARK   12  A    between atoms: C_12  and  O_13
REMARK   13  A    between atoms: O_13  and  C_14
REMARK   14  A    between atoms: C_14  and  C_16
REMARK   15  A    between atoms: C_19  and  N_20
REMARK                            x       y       z     vdW  Elec       q    Type
REMARK                         _______ _______ _______ _____ _____    ______ ____
ROOT
ATOM      1  C   UNL     1      -7.463   1.493 125.439  0.00  0.00    +0.000 C 
ENDROOT
BRANCH   1   2
ATOM      2  C   UNL     1      -6.525   0.978 126.527  0.00  0.00    +0.000 C 
BRANCH   2   3
ATOM      3  C   UNL     1      -7.085  -0.257 127.257  0.00  0.00    +0.000 C 
BRANCH   3   4
ATOM      4  N   UNL     1      -7.087  -1.492 126.423  0.00  0.00    +0.000 NA
BRANCH   4   5
ATOM      5  C   UNL     1      -5.680  -1.796 126.024  0.00  0.00    +0.000 C 
BRANCH   5   6
ATOM      6  C   UNL     1      -5.488  -2.078 124.538  0.00  0.00    +0.000 C 
BRANCH   6   8
ATOM      7  C   UNL     1      -4.280  -3.972 123.552  0.00  0.00    +0.000 C 
ATOM      8  C   UNL     1      -5.648  -3.497 124.056  0.00  0.00    +0.000 C 
ENDBRANCH   6   8
ENDBRANCH   5   6
ENDBRANCH   4   5
BRANCH   4   9
ATOM      9  C   UNL     1      -7.750  -2.592 127.170  0.00  0.00    +0.000 C 
BRANCH   9  10
ATOM     10  C   UNL     1      -8.622  -3.514 126.340  0.00  0.00    +0.000 C 
BRANCH  10  11
ATOM     11  C   UNL     1      -9.611  -2.852 125.418  0.00  0.00    +0.000 C 
ATOM     12  C   UNL     1      -9.269  -3.308 123.999  0.00  0.00    +0.000 C 
ENDBRANCH  10  11
ENDBRANCH   9  10
ENDBRANCH   4   9
ENDBRANCH   3   4
ENDBRANCH   2   3
ENDBRANCH   1   2
BRANCH   1  13
ATOM     13  O   UNL     1      -6.713   1.673 124.218  0.00  0.00    +0.000 OA
BRANCH  13  14
ATOM     14  C   UNL     1      -6.331   2.960 123.978  0.00  0.00    +0.000 C 
ATOM     15  O   UNL     1      -5.737   3.684 124.748  0.00  0.00    +0.000 OA
BRANCH  14  16
ATOM     16  C   UNL     1      -6.685   3.356 122.586  0.00  0.00    +0.000 A 
ATOM     17  C   UNL     1      -5.710   3.786 121.683  0.00  0.00    +0.000 A 
ATOM     18  C   UNL     1      -6.076   4.164 120.383  0.00  0.00    +0.000 A 
ATOM     19  C   UNL     1      -7.406   4.107 119.960  0.00  0.00    +0.000 A 
ATOM     20  C   UNL     1      -8.371   3.644 120.858  0.00  0.00    +0.000 A 
ATOM     21  C   UNL     1      -8.016   3.260 122.161  0.00  0.00    +0.000 A 
BRANCH  19  22
ATOM     22  N   UNL     1      -7.760   4.518 118.689  0.00  0.00    +0.000 N 
ATOM     23  H   UNL     1      -7.280   4.155 117.876  0.00  0.00    +0.000 HD
ATOM     24  H   UNL     1      -8.531   5.155 118.542  0.00  0.00    +0.000 HD
ENDBRANCH  19  22
ENDBRANCH  14  16
ENDBRANCH  13  14
ENDBRANCH   1  13
TORSDOF 13
ENDMDL
MODEL 3
REMARK VINA RESULT:      -6.1      8.723     10.596
REMARK  Name = Butacaine
REMARK  15 active torsions:
REMARK  status: ('A' for Active; 'I' for Inactive)
REMARK    1  A    between atoms: C_1  and  C_2
REMARK    2  A    between atoms: C_2  and  C_3
REMARK    3  A    between atoms: C_3  and  C_4
REMARK    4  A    between atoms: C_4  and  N_5
REMARK    5  A    between atoms: N_5  and  C_6
REMARK    6  A    between atoms: N_5  and  C_10
REMARK    7  A    between atoms: C_6  and  C_7
REMARK    8  A    between atoms: C_7  and  C_8
REMARK    9  A    between atoms: C_8  and  C_9
REMARK   10  A    between atoms: C_10  and  C_11
REMARK   11  A    between atoms: C_11  and  C_12
REMARK   12  A    between atoms: C_12  and  O_13
REMARK   13  A    between atoms: O_13  and  C_14
REMARK   14  A    between atoms: C_14  and  C_16
REMARK   15  A    between atoms: C_19  and  N_20
REMARK                            x       y       z     vdW  Elec       q    Type
REMARK                         _______ _______ _______ _____ _____    ______ ____
ROOT
ATOM      1  C   UNL     1      -7.565   4.771 130.246  0.00  0.00    +0.000 C 
ENDROOT
BRANCH   1   2
ATOM      2  C   UNL     1      -6.322   4.565 129.385  0.00  0.00    +0.000 C 
BRANCH   2   3
ATOM      3  C   UNL     1      -5.155   5.480 129.799  0.00  0.00    +0.000 C 
BRANCH   3   4
ATOM      4  N   UNL     1      -4.610   6.296 128.678  0.00  0.00    +0.000 NA
BRANCH   4   5
ATOM      5  C   UNL     1      -3.646   7.288 129.240  0.00  0.00    +0.000 C 
BRANCH   5   6
ATOM      6  C   UNL     1      -3.908   7.676 130.692  0.00  0.00    +0.000 C 
BRANCH   6   8
ATOM      7  C   UNL     1      -1.804   6.516 131.186  0.00  0.00    +0.000 C 
ATOM      8  C   UNL     1      -2.757   7.618 131.663  0.00  0.00    +0.000 C 
ENDBRANCH   6   8
ENDBRANCH   5   6
ENDBRANCH   4   5
BRANCH   4   9
ATOM      9  C   UNL     1      -4.017   5.396 127.655  0.00  0.00    +0.000 C 
BRANCH   9  10
ATOM     10  C   UNL     1      -2.776   4.640 128.089  0.00  0.00    +0.000 C 
BRANCH  10  11
ATOM     11  C   UNL     1      -2.701   3.189 127.695  0.00  0.00    +0.000 C 
ATOM     12  C   UNL     1      -1.712   3.094 126.534  0.00  0.00    +0.000 C 
ENDBRANCH  10  11
ENDBRANCH   9  10
ENDBRANCH   4   9
ENDBRANCH   3   4
ENDBRANCH   2   3
ENDBRANCH   1   2
BRANCH   1  13
ATOM     13  O   UNL     1      -8.174   6.034 129.898  0.00  0.00    +0.000 OA
BRANCH  13  14
ATOM     14  C   UNL     1      -9.018   6.531 130.848  0.00  0.00    +0.000 C 
ATOM     15  O   UNL     1      -8.826   6.528 132.045  0.00  0.00    +0.000 OA
BRANCH  14  16
ATOM     16  C   UNL     1     -10.208   7.158 130.208  0.00  0.00    +0.000 A 
ATOM     17  C   UNL     1     -11.486   7.013 130.752  0.00  0.00    +0.000 A 
ATOM     18  C   UNL     1     -12.589   7.605 130.121  0.00  0.00    +0.000 A 
ATOM     19  C   UNL     1     -12.437   8.357 128.953  0.00  0.00    +0.000 A 
ATOM     20  C   UNL     1     -11.151   8.527 128.434  0.00  0.00    +0.000 A 
ATOM     21  C   UNL     1     -10.039   7.943 129.060  0.00  0.00    +0.000 A 
BRANCH  19  22
ATOM     22  N   UNL     1     -13.536   8.904 128.318  0.00  0.00    +0.000 N 
ATOM     23  H   UNL     1     -14.214   8.313 127.856  0.00  0.00    +0.000 HD
ATOM     24  H   UNL     1     -13.708   9.900 128.339  0.00  0.00    +0.000 HD
ENDBRANCH  19  22
ENDBRANCH  14  16
ENDBRANCH  13  14
ENDBRANCH   1  13
TORSDOF 13
ENDMDL
MODEL 4
REMARK VINA RESULT:      -6.0      5.045      9.293
REMARK  Name = Butacaine
REMARK  15 active torsions:
REMARK  status: ('A' for Active; 'I' for Inactive)
REMARK    1  A    between atoms: C_1  and  C_2
REMARK    2  A    between atoms: C_2  and  C_3
REMARK    3  A    between atoms: C_3  and  C_4
REMARK    4  A    between atoms: C_4  and  N_5
REMARK    5  A    between atoms: N_5  and  C_6
REMARK    6  A    between atoms: N_5  and  C_10
REMARK    7  A    between atoms: C_6  and  C_7
REMARK    8  A    between atoms: C_7  and  C_8
REMARK    9  A    between atoms: C_8  and  C_9
REMARK   10  A    between atoms: C_10  and  C_11
REMARK   11  A    between atoms: C_11  and  C_12
REMARK   12  A    between atoms: C_12  and  O_13
REMARK   13  A    between atoms: O_13  and  C_14
REMARK   14  A    between atoms: C_14  and  C_16
REMARK   15  A    between atoms: C_19  and  N_20
REMARK                            x       y       z     vdW  Elec       q    Type
REMARK                         _______ _______ _______ _____ _____    ______ ____
ROOT
ATOM      1  C   UNL     1      -6.693  -1.301 127.809  0.00  0.00    +0.000 C 
ENDROOT
BRANCH   1   2
ATOM      2  C   UNL     1      -7.344  -0.851 126.505  0.00  0.00    +0.000 C 
BRANCH   2   3
ATOM      3  C   UNL     1      -6.345  -0.784 125.335  0.00  0.00    +0.000 C 
BRANCH   3   4
ATOM      4  N   UNL     1      -6.997  -0.744 123.996  0.00  0.00    +0.000 NA
BRANCH   4   5
ATOM      5  C   UNL     1      -6.298  -1.713 123.100  0.00  0.00    +0.000 C 
BRANCH   5   6
ATOM      6  C   UNL     1      -5.709  -2.926 123.813  0.00  0.00    +0.000 C 
BRANCH   6   8
ATOM      7  C   UNL     1      -4.308  -4.918 123.521  0.00  0.00    +0.000 C 
ATOM      8  C   UNL     1      -4.332  -3.389 123.412  0.00  0.00    +0.000 C 
ENDBRANCH   6   8
ENDBRANCH   5   6
ENDBRANCH   4   5
BRANCH   4   9
ATOM      9  C   UNL     1      -8.452  -1.007 124.147  0.00  0.00    +0.000 C 
BRANCH   9  10
ATOM     10  C   UNL     1      -9.085  -1.832 123.042  0.00  0.00    +0.000 C 
BRANCH  10  11
ATOM     11  C   UNL     1      -9.516  -3.227 123.410  0.00  0.00    +0.000 C 
ATOM     12  C   UNL     1      -9.290  -3.380 124.914  0.00  0.00    +0.000 C 
ENDBRANCH  10  11
ENDBRANCH   9  10
ENDBRANCH   4   9
ENDBRANCH   3   4
ENDBRANCH   2   3
ENDBRANCH   1   2
BRANCH   1  13
ATOM     13  O   UNL     1      -6.741  -2.743 127.885  0.00  0.00    +0.000 OA
BRANCH  13  14
ATOM     14  C   UNL     1      -7.664  -3.228 128.765  0.00  0.00    +0.000 C 
ATOM     15  O   UNL     1      -8.826  -3.474 128.518  0.00  0.00    +0.000 OA
BRANCH  14  16
ATOM     16  C   UNL     1      -7.033  -3.490 130.089  0.00  0.00    +0.000 A 
ATOM     17  C   UNL     1      -6.006  -4.426 130.230  0.00  0.00    +0.000 A 
ATOM     18  C   UNL     1      -5.439  -4.660 131.491  0.00  0.00    +0.000 A 
ATOM     19  C   UNL     1      -5.873  -3.961 132.621  0.00  0.00    +0.000 A 
ATOM     20  C   UNL     1      -6.877  -3.002 132.465  0.00  0.00    +0.000 A 
ATOM     21  C   UNL     1      -7.449  -2.757 131.207  0.00  0.00    +0.000 A 
BRANCH  19  22
ATOM     22  N   UNL     1      -5.333  -4.227 133.865  0.00  0.00    +0.000 N 
ATOM     23  H   UNL     1      -5.795  -4.860 134.505  0.00  0.00    +0.000 HD
ATOM     24  H   UNL     1      -4.447  -3.830 134.145  0.00  0.00    +0.000 HD
ENDBRANCH  19  22
ENDBRANCH  14  16
ENDBRANCH  13  14
ENDBRANCH   1  13
TORSDOF 13
ENDMDL
MODEL 5
REMARK VINA RESULT:      -6.0      3.232      8.161
REMARK  Name = Butacaine
REMARK  15 active torsions:
REMARK  status: ('A' for Active; 'I' for Inactive)
REMARK    1  A    between atoms: C_1  and  C_2
REMARK    2  A    between atoms: C_2  and  C_3
REMARK    3  A    between atoms: C_3  and  C_4
REMARK    4  A    between atoms: C_4  and  N_5
REMARK    5  A    between atoms: N_5  and  C_6
REMARK    6  A    between atoms: N_5  and  C_10
REMARK    7  A    between atoms: C_6  and  C_7
REMARK    8  A    between atoms: C_7  and  C_8
REMARK    9  A    between atoms: C_8  and  C_9
REMARK   10  A    between atoms: C_10  and  C_11
REMARK   11  A    between atoms: C_11  and  C_12
REMARK   12  A    between atoms: C_12  and  O_13
REMARK   13  A    between atoms: O_13  and  C_14
REMARK   14  A    between atoms: C_14  and  C_16
REMARK   15  A    between atoms: C_19  and  N_20
REMARK                            x       y       z     vdW  Elec       q    Type
REMARK                         _______ _______ _______ _____ _____    ______ ____
ROOT
ATOM      1  C   UNL     1      -9.234  -3.370 123.570  0.00  0.00    +0.000 C 
ENDROOT
BRANCH   1   2
ATOM      2  C   UNL     1      -9.068  -1.901 123.193  0.00  0.00    +0.000 C 
BRANCH   2   3
ATOM      3  C   UNL     1      -7.769  -1.632 122.411  0.00  0.00    +0.000 C 
BRANCH   3   4
ATOM      4  N   UNL     1      -6.820  -0.732 123.125  0.00  0.00    +0.000 NA
BRANCH   4   5
ATOM      5  C   UNL     1      -7.611   0.286 123.879  0.00  0.00    +0.000 C 
BRANCH   5   6
ATOM      6  C   UNL     1      -7.681   1.657 123.213  0.00  0.00    +0.000 C 
BRANCH   6   8
ATOM      7  C   UNL     1      -6.177   3.429 122.431  0.00  0.00    +0.000 C 
ATOM      8  C   UNL     1      -6.723   2.724 123.677  0.00  0.00    +0.000 C 
ENDBRANCH   6   8
ENDBRANCH   5   6
ENDBRANCH   4   5
BRANCH   4   9
ATOM      9  C   UNL     1      -5.916  -1.544 123.980  0.00  0.00    +0.000 C 
BRANCH   9  10
ATOM     10  C   UNL     1      -5.338  -2.785 123.327  0.00  0.00    +0.000 C 
BRANCH  10  11
ATOM     11  C   UNL     1      -4.908  -3.892 124.252  0.00  0.00    +0.000 C 
ATOM     12  C   UNL     1      -4.244  -4.962 123.386  0.00  0.00    +0.000 C 
ENDBRANCH  10  11
ENDBRANCH   9  10
ENDBRANCH   4   9
ENDBRANCH   3   4
ENDBRANCH   2   3
ENDBRANCH   1   2
BRANCH   1  13
ATOM     13  O   UNL     1      -8.641  -3.592 124.869  0.00  0.00    +0.000 OA
BRANCH  13  14
ATOM     14  C   UNL     1      -9.088  -2.747 125.842  0.00  0.00    +0.000 C 
ATOM     15  O   UNL     1     -10.068  -2.036 125.775  0.00  0.00    +0.000 OA
BRANCH  14  16
ATOM     16  C   UNL     1      -8.238  -2.860 127.060  0.00  0.00    +0.000 A 
ATOM     17  C   UNL     1      -8.668  -3.571 128.182  0.00  0.00    +0.000 A 
ATOM     18  C   UNL     1      -7.850  -3.651 129.318  0.00  0.00    +0.000 A 
ATOM     19  C   UNL     1      -6.594  -3.038 129.350  0.00  0.00    +0.000 A 
ATOM     20  C   UNL     1      -6.156  -2.357 128.211  0.00  0.00    +0.000 A 
ATOM     21  C   UNL     1      -6.965  -2.276 127.067  0.00  0.00    +0.000 A 
BRANCH  19  22
ATOM     22  N   UNL     1      -5.813  -3.091 130.489  0.00  0.00    +0.000 N 
ATOM     23  H   UNL     1      -5.312  -2.273 130.811  0.00  0.00    +0.000 HD
ATOM     24  H   UNL     1      -5.759  -3.932 131.046  0.00  0.00    +0.000 HD
ENDBRANCH  19  22
ENDBRANCH  14  16
ENDBRANCH  13  14
ENDBRANCH   1  13
TORSDOF 13
ENDMDL
MODEL 6
REMARK VINA RESULT:      -6.0      1.806      2.424
REMARK  Name = Butacaine
REMARK  15 active torsions:
REMARK  status: ('A' for Active; 'I' for Inactive)
REMARK    1  A    between atoms: C_1  and  C_2
REMARK    2  A    between atoms: C_2  and  C_3
REMARK    3  A    between atoms: C_3  and  C_4
REMARK    4  A    between atoms: C_4  and  N_5
REMARK    5  A    between atoms: N_5  and  C_6
REMARK    6  A    between atoms: N_5  and  C_10
REMARK    7  A    between atoms: C_6  and  C_7
REMARK    8  A    between atoms: C_7  and  C_8
REMARK    9  A    between atoms: C_8  and  C_9
REMARK   10  A    between atoms: C_10  and  C_11
REMARK   11  A    between atoms: C_11  and  C_12
REMARK   12  A    between atoms: C_12  and  O_13
REMARK   13  A    between atoms: O_13  and  C_14
REMARK   14  A    between atoms: C_14  and  C_16
REMARK   15  A    between atoms: C_19  and  N_20
REMARK                            x       y       z     vdW  Elec       q    Type
REMARK                         _______ _______ _______ _____ _____    ______ ____
ROOT
ATOM      1  C   UNL     1      -8.646   1.103 125.935  0.00  0.00    +0.000 C 
ENDROOT
BRANCH   1   2
ATOM      2  C   UNL     1      -8.043  -0.297 126.001  0.00  0.00    +0.000 C 
BRANCH   2   3
ATOM      3  C   UNL     1      -8.502  -1.196 124.838  0.00  0.00    +0.000 C 
BRANCH   3   4
ATOM      4  N   UNL     1      -8.506  -2.648 125.173  0.00  0.00    +0.000 NA
BRANCH   4   5
ATOM      5  C   UNL     1      -7.699  -3.372 124.146  0.00  0.00    +0.000 C 
BRANCH   5   6
ATOM      6  C   UNL     1      -6.507  -2.588 123.607  0.00  0.00    +0.000 C 
BRANCH   6   8
ATOM      7  C   UNL     1      -4.666  -4.205 123.730  0.00  0.00    +0.000 C 
ATOM      8  C   UNL     1      -5.153  -2.837 124.222  0.00  0.00    +0.000 C 
ENDBRANCH   6   8
ENDBRANCH   5   6
ENDBRANCH   4   5
BRANCH   4   9
ATOM      9  C   UNL     1      -8.017  -2.836 126.564  0.00  0.00    +0.000 C 
BRANCH   9  10
ATOM     10  C   UNL     1      -8.880  -3.715 127.448  0.00  0.00    +0.000 C 
BRANCH  10  11
ATOM     11  C   UNL     1      -8.707  -3.549 128.934  0.00  0.00    +0.000 C 
ATOM     12  C   UNL     1      -7.650  -2.464 129.139  0.00  0.00    +0.000 C 
ENDBRANCH  10  11
ENDBRANCH   9  10
ENDBRANCH   4   9
ENDBRANCH   3   4
ENDBRANCH   2   3
ENDBRANCH   1   2
BRANCH   1  13
ATOM     13  O   UNL     1      -7.618   2.040 125.544  0.00  0.00    +0.000 OA
BRANCH  13  14
ATOM     14  C   UNL     1      -8.090   3.179 124.960  0.00  0.00    +0.000 C 
ATOM     15  O   UNL     1      -8.970   3.892 125.392  0.00  0.00    +0.000 OA
BRANCH  14  16
ATOM     16  C   UNL     1      -7.319   3.484 123.722  0.00  0.00    +0.000 A 
ATOM     17  C   UNL     1      -7.849   3.229 122.455  0.00  0.00    +0.000 A 
ATOM     18  C   UNL     1      -7.095   3.516 121.308  0.00  0.00    +0.000 A 
ATOM     19  C   UNL     1      -5.816   4.071 121.403  0.00  0.00    +0.000 A 
ATOM     20  C   UNL     1      -5.306   4.355 122.672  0.00  0.00    +0.000 A 
ATOM     21  C   UNL     1      -6.054   4.076 123.827  0.00  0.00    +0.000 A 
BRANCH  19  22
ATOM     22  N   UNL     1      -5.067   4.314 120.267  0.00  0.00    +0.000 N 
ATOM     23  H   UNL     1      -4.293   4.964 120.287  0.00  0.00    +0.000 HD
ATOM     24  H   UNL     1      -5.250   3.818 119.406  0.00  0.00    +0.000 HD
ENDBRANCH  19  22
ENDBRANCH  14  16
ENDBRANCH  13  14
ENDBRANCH   1  13
TORSDOF 13
ENDMDL
MODEL 7
REMARK VINA RESULT:      -6.0      2.617      3.528
REMARK  Name = Butacaine
REMARK  15 active torsions:
REMARK  status: ('A' for Active; 'I' for Inactive)
REMARK    1  A    between atoms: C_1  and  C_2
REMARK    2  A    between atoms: C_2  and  C_3
REMARK    3  A    between atoms: C_3  and  C_4
REMARK    4  A    between atoms: C_4  and  N_5
REMARK    5  A    between atoms: N_5  and  C_6
REMARK    6  A    between atoms: N_5  and  C_10
REMARK    7  A    between atoms: C_6  and  C_7
REMARK    8  A    between atoms: C_7  and  C_8
REMARK    9  A    between atoms: C_8  and  C_9
REMARK   10  A    between atoms: C_10  and  C_11
REMARK   11  A    between atoms: C_11  and  C_12
REMARK   12  A    between atoms: C_12  and  O_13
REMARK   13  A    between atoms: O_13  and  C_14
REMARK   14  A    between atoms: C_14  and  C_16
REMARK   15  A    between atoms: C_19  and  N_20
REMARK                            x       y       z     vdW  Elec       q    Type
REMARK                         _______ _______ _______ _____ _____    ______ ____
ROOT
ATOM      1  C   UNL     1      -9.469  -1.131 122.926  0.00  0.00    +0.000 C 
ENDROOT
BRANCH   1   2
ATOM      2  C   UNL     1      -9.001  -2.520 123.351  0.00  0.00    +0.000 C 
BRANCH   2   3
ATOM      3  C   UNL     1      -8.730  -2.617 124.864  0.00  0.00    +0.000 C 
BRANCH   3   4
ATOM      4  N   UNL     1      -7.291  -2.803 125.200  0.00  0.00    +0.000 NA
BRANCH   4   5
ATOM      5  C   UNL     1      -6.642  -3.570 124.094  0.00  0.00    +0.000 C 
BRANCH   5   6
ATOM      6  C   UNL     1      -5.484  -2.847 123.415  0.00  0.00    +0.000 C 
BRANCH   6   8
ATOM      7  C   UNL     1      -4.278  -4.983 123.445  0.00  0.00    +0.000 C 
ATOM      8  C   UNL     1      -4.110  -3.461 123.504  0.00  0.00    +0.000 C 
ENDBRANCH   6   8
ENDBRANCH   5   6
ENDBRANCH   4   5
BRANCH   4   9
ATOM      9  C   UNL     1      -6.667  -1.480 125.459  0.00  0.00    +0.000 C 
BRANCH   9  10
ATOM     10  C   UNL     1      -5.987  -1.329 126.806  0.00  0.00    +0.000 C 
BRANCH  10  11
ATOM     11  C   UNL     1      -6.407  -2.294 127.882  0.00  0.00    +0.000 C 
ATOM     12  C   UNL     1      -7.584  -1.654 128.618  0.00  0.00    +0.000 C 
ENDBRANCH  10  11
ENDBRANCH   9  10
ENDBRANCH   4   9
ENDBRANCH   3   4
ENDBRANCH   2   3
ENDBRANCH   1   2
BRANCH   1  13
ATOM     13  O   UNL     1      -9.651  -0.315 124.104  0.00  0.00    +0.000 OA
BRANCH  13  14
ATOM     14  C   UNL     1     -10.031   0.969 123.845  0.00  0.00    +0.000 C 
ATOM     15  O   UNL     1     -11.158   1.410 123.925  0.00  0.00    +0.000 OA
BRANCH  14  16
ATOM     16  C   UNL     1      -8.845   1.804 123.506  0.00  0.00    +0.000 A 
ATOM     17  C   UNL     1      -7.725   1.845 124.339  0.00  0.00    +0.000 A 
ATOM     18  C   UNL     1      -6.628   2.650 124.000  0.00  0.00    +0.000 A 
ATOM     19  C   UNL     1      -6.623   3.411 122.827  0.00  0.00    +0.000 A 
ATOM     20  C   UNL     1      -7.733   3.338 121.982  0.00  0.00    +0.000 A 
ATOM     21  C   UNL     1      -8.835   2.532 122.310  0.00  0.00    +0.000 A 
BRANCH  19  22
ATOM     22  N   UNL     1      -5.552   4.230 122.523  0.00  0.00    +0.000 N 
ATOM     23  H   UNL     1      -5.055   4.127 121.648  0.00  0.00    +0.000 HD
ATOM     24  H   UNL     1      -5.271   4.974 123.146  0.00  0.00    +0.000 HD
ENDBRANCH  19  22
ENDBRANCH  14  16
ENDBRANCH  13  14
ENDBRANCH   1  13
TORSDOF 13
ENDMDL
MODEL 8
REMARK VINA RESULT:      -5.9      3.232      8.549
REMARK  Name = Butacaine
REMARK  15 active torsions:
REMARK  status: ('A' for Active; 'I' for Inactive)
REMARK    1  A    between atoms: C_1  and  C_2
REMARK    2  A    between atoms: C_2  and  C_3
REMARK    3  A    between atoms: C_3  and  C_4
REMARK    4  A    between atoms: C_4  and  N_5
REMARK    5  A    between atoms: N_5  and  C_6
REMARK    6  A    between atoms: N_5  and  C_10
REMARK    7  A    between atoms: C_6  and  C_7
REMARK    8  A    between atoms: C_7  and  C_8
REMARK    9  A    between atoms: C_8  and  C_9
REMARK   10  A    between atoms: C_10  and  C_11
REMARK   11  A    between atoms: C_11  and  C_12
REMARK   12  A    between atoms: C_12  and  O_13
REMARK   13  A    between atoms: O_13  and  C_14
REMARK   14  A    between atoms: C_14  and  C_16
REMARK   15  A    between atoms: C_19  and  N_20
REMARK                            x       y       z     vdW  Elec       q    Type
REMARK                         _______ _______ _______ _____ _____    ______ ____
ROOT
ATOM      1  C   UNL     1      -8.912  -0.723 123.131  0.00  0.00    +0.000 C 
ENDROOT
BRANCH   1   2
ATOM      2  C   UNL     1      -9.707   0.557 122.890  0.00  0.00    +0.000 C 
BRANCH   2   3
ATOM      3  C   UNL     1      -9.541   1.581 124.027  0.00  0.00    +0.000 C 
BRANCH   3   4
ATOM      4  N   UNL     1      -8.997   2.892 123.573  0.00  0.00    +0.000 NA
BRANCH   4   5
ATOM      5  C   UNL     1      -8.262   3.519 124.712  0.00  0.00    +0.000 C 
BRANCH   5   6
ATOM      6  C   UNL     1      -7.462   2.542 125.567  0.00  0.00    +0.000 C 
BRANCH   6   8
ATOM      7  C   UNL     1      -5.452   3.733 124.821  0.00  0.00    +0.000 C 
ATOM      8  C   UNL     1      -5.995   2.372 125.270  0.00  0.00    +0.000 C 
ENDBRANCH   6   8
ENDBRANCH   5   6
ENDBRANCH   4   5
BRANCH   4   9
ATOM      9  C   UNL     1      -8.162   2.688 122.361  0.00  0.00    +0.000 C 
BRANCH   9  10
ATOM     10  C   UNL     1      -8.455   3.619 121.200  0.00  0.00    +0.000 C 
BRANCH  10  11
ATOM     11  C   UNL     1      -7.282   4.013 120.343  0.00  0.00    +0.000 C 
ATOM     12  C   UNL     1      -6.029   3.463 121.024  0.00  0.00    +0.000 C 
ENDBRANCH  10  11
ENDBRANCH   9  10
ENDBRANCH   4   9
ENDBRANCH   3   4
ENDBRANCH   2   3
ENDBRANCH   1   2
BRANCH   1  13
ATOM     13  O   UNL     1      -8.770  -0.927 124.554  0.00  0.00    +0.000 OA
BRANCH  13  14
ATOM     14  C   UNL     1      -9.149  -2.165 124.984  0.00  0.00    +0.000 C 
ATOM     15  O   UNL     1      -9.707  -3.012 124.320  0.00  0.00    +0.000 OA
BRANCH  14  16
ATOM     16  C   UNL     1      -8.717  -2.379 126.394  0.00  0.00    +0.000 A 
ATOM     17  C   UNL     1      -8.967  -3.583 127.055  0.00  0.00    +0.000 A 
ATOM     18  C   UNL     1      -8.559  -3.751 128.386  0.00  0.00    +0.000 A 
ATOM     19  C   UNL     1      -7.890  -2.734 129.071  0.00  0.00    +0.000 A 
ATOM     20  C   UNL     1      -7.614  -1.544 128.394  0.00  0.00    +0.000 A 
ATOM     21  C   UNL     1      -8.013  -1.367 127.059  0.00  0.00    +0.000 A 
BRANCH  19  22
ATOM     22  N   UNL     1      -7.527  -2.897 130.396  0.00  0.00    +0.000 N 
ATOM     23  H   UNL     1      -7.945  -3.623 130.961  0.00  0.00    +0.000 HD
ATOM     24  H   UNL     1      -6.807  -2.323 130.813  0.00  0.00    +0.000 HD
ENDBRANCH  19  22
ENDBRANCH  14  16
ENDBRANCH  13  14
ENDBRANCH   1  13
TORSDOF 13
ENDMDL
MODEL 9
REMARK VINA RESULT:      -5.9      4.120      5.471
REMARK  Name = Butacaine
REMARK  15 active torsions:
REMARK  status: ('A' for Active; 'I' for Inactive)
REMARK    1  A    between atoms: C_1  and  C_2
REMARK    2  A    between atoms: C_2  and  C_3
REMARK    3  A    between atoms: C_3  and  C_4
REMARK    4  A    between atoms: C_4  and  N_5
REMARK    5  A    between atoms: N_5  and  C_6
REMARK    6  A    between atoms: N_5  and  C_10
REMARK    7  A    between atoms: C_6  and  C_7
REMARK    8  A    between atoms: C_7  and  C_8
REMARK    9  A    between atoms: C_8  and  C_9
REMARK   10  A    between atoms: C_10  and  C_11
REMARK   11  A    between atoms: C_11  and  C_12
REMARK   12  A    between atoms: C_12  and  O_13
REMARK   13  A    between atoms: O_13  and  C_14
REMARK   14  A    between atoms: C_14  and  C_16
REMARK   15  A    between atoms: C_19  and  N_20
REMARK                            x       y       z     vdW  Elec       q    Type
REMARK                         _______ _______ _______ _____ _____    ______ ____
ROOT
ATOM      1  C   UNL     1      -8.446   2.162 125.245  0.00  0.00    +0.000 C 
ENDROOT
BRANCH   1   2
ATOM      2  C   UNL     1      -8.380   0.639 125.311  0.00  0.00    +0.000 C 
BRANCH   2   3
ATOM      3  C   UNL     1      -7.116   0.071 124.639  0.00  0.00    +0.000 C 
BRANCH   3   4
ATOM      4  N   UNL     1      -7.311  -1.286 124.056  0.00  0.00    +0.000 NA
BRANCH   4   5
ATOM      5  C   UNL     1      -8.776  -1.528 123.899  0.00  0.00    +0.000 C 
BRANCH   5   6
ATOM      6  C   UNL     1      -9.233  -2.931 124.287  0.00  0.00    +0.000 C 
BRANCH   6   8
ATOM      7  C   UNL     1      -8.952  -3.497 126.657  0.00  0.00    +0.000 C 
ATOM      8  C   UNL     1      -8.382  -3.717 125.251  0.00  0.00    +0.000 C 
ENDBRANCH   6   8
ENDBRANCH   5   6
ENDBRANCH   4   5
BRANCH   4   9
ATOM      9  C   UNL     1      -6.545  -1.394 122.787  0.00  0.00    +0.000 C 
BRANCH   9  10
ATOM     10  C   UNL     1      -5.647  -2.610 122.665  0.00  0.00    +0.000 C 
BRANCH  10  11
ATOM     11  C   UNL     1      -4.928  -3.041 123.915  0.00  0.00    +0.000 C 
ATOM     12  C   UNL     1      -4.358  -4.433 123.643  0.00  0.00    +0.000 C 
ENDBRANCH  10  11
ENDBRANCH   9  10
ENDBRANCH   4   9
ENDBRANCH   3   4
ENDBRANCH   2   3
ENDBRANCH   1   2
BRANCH   1  13
ATOM     13  O   UNL     1      -8.528   2.688 126.588  0.00  0.00    +0.000 OA
BRANCH  13  14
ATOM     14  C   UNL     1      -7.788   3.815 126.795  0.00  0.00    +0.000 C 
ATOM     15  O   UNL     1      -8.224   4.925 127.016  0.00  0.00    +0.000 OA
BRANCH  14  16
ATOM     16  C   UNL     1      -6.334   3.491 126.785  0.00  0.00    +0.000 A 
ATOM     17  C   UNL     1      -5.796   2.538 127.652  0.00  0.00    +0.000 A 
ATOM     18  C   UNL     1      -4.421   2.263 127.628  0.00  0.00    +0.000 A 
ATOM     19  C   UNL     1      -3.568   2.919 126.735  0.00  0.00    +0.000 A 
ATOM     20  C   UNL     1      -4.119   3.846 125.847  0.00  0.00    +0.000 A 
ATOM     21  C   UNL     1      -5.494   4.126 125.861  0.00  0.00    +0.000 A 
BRANCH  19  22
ATOM     22  N   UNL     1      -2.209   2.667 126.746  0.00  0.00    +0.000 N 
ATOM     23  H   UNL     1      -1.585   3.169 126.128  0.00  0.00    +0.000 HD
ATOM     24  H   UNL     1      -1.805   2.009 127.399  0.00  0.00    +0.000 HD
ENDBRANCH  19  22
ENDBRANCH  14  16
ENDBRANCH  13  14
ENDBRANCH   1  13
TORSDOF 13
ENDMDL
