MODEL 1
REMARK VINA RESULT:      -7.8      0.000      0.000
REMARK  Name = Butaperazine
REMARK  9 active torsions:
REMARK  status: ('A' for Active; 'I' for Inactive)
REMARK    1  A    between atoms: C_1  and  C_2
REMARK    2  A    between atoms: C_2  and  C_3
REMARK    3  A    between atoms: C_3  and  C_4
REMARK    4  A    between atoms: C_4  and  C_6
REMARK    5  A    between atoms: N_17  and  C_18
REMARK    6  A    between atoms: C_18  and  C_19
REMARK    7  A    between atoms: C_19  and  C_20
REMARK    8  A    between atoms: C_20  and  N_21
REMARK    9  A    between atoms: N_24  and  C_25
REMARK                            x       y       z     vdW  Elec       q    Type
REMARK                         _______ _______ _______ _____ _____    ______ ____
ROOT
ATOM      1  C   UNL     1      -7.075  -1.044 124.711  0.00  0.00    +0.000 A 
ATOM      2  C   UNL     1      -6.450   0.193 124.530  0.00  0.00    +0.000 A 
ATOM      3  C   UNL     1      -7.134   1.249 123.909  0.00  0.00    +0.000 A 
ATOM      4  C   UNL     1      -8.470   1.045 123.498  0.00  0.00    +0.000 A 
ATOM      5  S   UNL     1      -9.382   2.335 122.659  0.00  0.00    +0.000 S 
ATOM      6  C   UNL     1      -8.024   3.110 121.796  0.00  0.00    +0.000 A 
ATOM      7  C   UNL     1      -8.265   3.717 120.558  0.00  0.00    +0.000 A 
ATOM      8  C   UNL     1      -7.227   4.324 119.849  0.00  0.00    +0.000 A 
ATOM      9  C   UNL     1      -5.938   4.300 120.356  0.00  0.00    +0.000 A 
ATOM     10  C   UNL     1      -5.691   3.631 121.547  0.00  0.00    +0.000 A 
ATOM     11  C   UNL     1      -6.723   3.086 122.327  0.00  0.00    +0.000 A 
ATOM     12  N   UNL     1      -6.424   2.416 123.531  0.00  0.00    +0.000 N 
ATOM     13  C   UNL     1      -9.099  -0.187 123.705  0.00  0.00    +0.000 A 
ATOM     14  C   UNL     1      -8.399  -1.233 124.303  0.00  0.00    +0.000 A 
ENDROOT
BRANCH   1  15
ATOM     15  C   UNL     1      -6.326  -2.204 125.244  0.00  0.00    +0.000 C 
ATOM     16  O   UNL     1      -5.820  -2.111 126.366  0.00  0.00    +0.000 OA
BRANCH  15  17
ATOM     17  C   UNL     1      -6.183  -3.429 124.366  0.00  0.00    +0.000 C 
BRANCH  17  19
ATOM     18  C   UNL     1      -4.117  -4.646 123.606  0.00  0.00    +0.000 C 
ATOM     19  C   UNL     1      -4.911  -3.356 123.525  0.00  0.00    +0.000 C 
ENDBRANCH  17  19
ENDBRANCH  15  17
ENDBRANCH   1  15
BRANCH  12  20
ATOM     20  C   UNL     1      -5.711   3.118 124.630  0.00  0.00    +0.000 C 
BRANCH  20  21
ATOM     21  C   UNL     1      -6.472   4.290 125.243  0.00  0.00    +0.000 C 
BRANCH  21  22
ATOM     22  C   UNL     1      -6.512   4.253 126.756  0.00  0.00    +0.000 C 
BRANCH  22  23
ATOM     23  N   UNL     1      -5.166   4.091 127.277  0.00  0.00    +0.000 NA
ATOM     24  C   UNL     1      -5.220   3.592 128.658  0.00  0.00    +0.000 C 
ATOM     25  C   UNL     1      -3.801   3.389 129.224  0.00  0.00    +0.000 C 
ATOM     26  N   UNL     1      -2.924   4.581 129.132  0.00  0.00    +0.000 NA
ATOM     27  C   UNL     1      -3.346   5.599 130.093  0.00  0.00    +0.000 C 
ATOM     28  C   UNL     1      -2.975   5.134 127.763  0.00  0.00    +0.000 C 
ATOM     29  C   UNL     1      -4.403   5.353 127.241  0.00  0.00    +0.000 C 
ENDBRANCH  22  23
ENDBRANCH  21  22
ENDBRANCH  20  21
ENDBRANCH  12  20
TORSDOF 7
ENDMDL
MODEL 2
REMARK VINA RESULT:      -7.7      1.823      2.535
REMARK  Name = Butaperazine
REMARK  9 active torsions:
REMARK  status: ('A' for Active; 'I' for Inactive)
REMARK    1  A    between atoms: C_1  and  C_2
REMARK    2  A    between atoms: C_2  and  C_3
REMARK    3  A    between atoms: C_3  and  C_4
REMARK    4  A    between atoms: C_4  and  C_6
REMARK    5  A    between atoms: N_17  and  C_18
REMARK    6  A    between atoms: C_18  and  C_19
REMARK    7  A    between atoms: C_19  and  C_20
REMARK    8  A    between atoms: C_20  and  N_21
REMARK    9  A    between atoms: N_24  and  C_25
REMARK                            x       y       z     vdW  Elec       q    Type
REMARK                         _______ _______ _______ _____ _____    ______ ____
ROOT
ATOM      1  C   UNL     1      -6.922  -0.470 124.700  0.00  0.00    +0.000 A 
ATOM      2  C   UNL     1      -6.326   0.786 124.552  0.00  0.00    +0.000 A 
ATOM      3  C   UNL     1      -6.943   1.776 123.774  0.00  0.00    +0.000 A 
ATOM      4  C   UNL     1      -8.188   1.488 123.169  0.00  0.00    +0.000 A 
ATOM      5  S   UNL     1      -9.005   2.689 122.127  0.00  0.00    +0.000 S 
ATOM      6  C   UNL     1      -7.558   3.488 121.447  0.00  0.00    +0.000 A 
ATOM      7  C   UNL     1      -7.623   4.022 120.154  0.00  0.00    +0.000 A 
ATOM      8  C   UNL     1      -6.510   4.644 119.586  0.00  0.00    +0.000 A 
ATOM      9  C   UNL     1      -5.319   4.706 120.290  0.00  0.00    +0.000 A 
ATOM     10  C   UNL     1      -5.239   4.108 121.540  0.00  0.00    +0.000 A 
ATOM     11  C   UNL     1      -6.359   3.552 122.177  0.00  0.00    +0.000 A 
ATOM     12  N   UNL     1      -6.230   2.956 123.448  0.00  0.00    +0.000 N 
ATOM     13  C   UNL     1      -8.791   0.238 123.342  0.00  0.00    +0.000 A 
ATOM     14  C   UNL     1      -8.155  -0.742 124.100  0.00  0.00    +0.000 A 
ENDROOT
BRANCH   1  15
ATOM     15  C   UNL     1      -6.222  -1.565 125.408  0.00  0.00    +0.000 C 
ATOM     16  O   UNL     1      -5.681  -1.316 126.489  0.00  0.00    +0.000 OA
BRANCH  15  17
ATOM     17  C   UNL     1      -6.167  -2.926 124.747  0.00  0.00    +0.000 C 
BRANCH  17  19
ATOM     18  C   UNL     1      -4.304  -4.206 123.645  0.00  0.00    +0.000 C 
ATOM     19  C   UNL     1      -5.147  -2.945 123.612  0.00  0.00    +0.000 C 
ENDBRANCH  17  19
ENDBRANCH  15  17
ENDBRANCH   1  15
BRANCH  12  20
ATOM     20  C   UNL     1      -5.731   3.744 124.605  0.00  0.00    +0.000 C 
BRANCH  20  21
ATOM     21  C   UNL     1      -6.813   4.235 125.562  0.00  0.00    +0.000 C 
BRANCH  21  22
ATOM     22  C   UNL     1      -6.437   4.081 127.021  0.00  0.00    +0.000 C 
BRANCH  22  23
ATOM     23  N   UNL     1      -7.457   3.311 127.710  0.00  0.00    +0.000 NA
ATOM     24  C   UNL     1      -7.836   3.986 128.959  0.00  0.00    +0.000 C 
ATOM     25  C   UNL     1      -8.936   3.198 129.697  0.00  0.00    +0.000 C 
ATOM     26  N   UNL     1      -8.611   1.775 129.950  0.00  0.00    +0.000 NA
ATOM     27  C   UNL     1      -7.593   1.661 130.993  0.00  0.00    +0.000 C 
ATOM     28  C   UNL     1      -8.123   1.145 128.706  0.00  0.00    +0.000 C 
ATOM     29  C   UNL     1      -7.006   1.939 128.011  0.00  0.00    +0.000 C 
ENDBRANCH  22  23
ENDBRANCH  21  22
ENDBRANCH  20  21
ENDBRANCH  12  20
TORSDOF 7
ENDMDL
MODEL 3
REMARK VINA RESULT:      -7.6      2.835      6.023
REMARK  Name = Butaperazine
REMARK  9 active torsions:
REMARK  status: ('A' for Active; 'I' for Inactive)
REMARK    1  A    between atoms: C_1  and  C_2
REMARK    2  A    between atoms: C_2  and  C_3
REMARK    3  A    between atoms: C_3  and  C_4
REMARK    4  A    between atoms: C_4  and  C_6
REMARK    5  A    between atoms: N_17  and  C_18
REMARK    6  A    between atoms: C_18  and  C_19
REMARK    7  A    between atoms: C_19  and  C_20
REMARK    8  A    between atoms: C_20  and  N_21
REMARK    9  A    between atoms: N_24  and  C_25
REMARK                            x       y       z     vdW  Elec       q    Type
REMARK                         _______ _______ _______ _____ _____    ______ ____
ROOT
ATOM      1  C   UNL     1      -8.438   1.335 123.701  0.00  0.00    +0.000 A 
ATOM      2  C   UNL     1      -7.650   0.859 124.753  0.00  0.00    +0.000 A 
ATOM      3  C   UNL     1      -7.676  -0.500 125.100  0.00  0.00    +0.000 A 
ATOM      4  C   UNL     1      -8.489  -1.377 124.348  0.00  0.00    +0.000 A 
ATOM      5  S   UNL     1      -8.604  -3.113 124.767  0.00  0.00    +0.000 S 
ATOM      6  C   UNL     1      -8.391  -2.979 126.536  0.00  0.00    +0.000 A 
ATOM      7  C   UNL     1      -9.021  -3.915 127.366  0.00  0.00    +0.000 A 
ATOM      8  C   UNL     1      -8.887  -3.836 128.754  0.00  0.00    +0.000 A 
ATOM      9  C   UNL     1      -8.153  -2.807 129.320  0.00  0.00    +0.000 A 
ATOM     10  C   UNL     1      -7.595  -1.840 128.496  0.00  0.00    +0.000 A 
ATOM     11  C   UNL     1      -7.636  -1.935 127.096  0.00  0.00    +0.000 A 
ATOM     12  N   UNL     1      -7.054  -0.928 126.299  0.00  0.00    +0.000 N 
ATOM     13  C   UNL     1      -9.255  -0.899 123.280  0.00  0.00    +0.000 A 
ATOM     14  C   UNL     1      -9.236   0.457 122.962  0.00  0.00    +0.000 A 
ENDROOT
BRANCH   1  15
ATOM     15  C   UNL     1      -8.521   2.784 123.408  0.00  0.00    +0.000 C 
ATOM     16  O   UNL     1      -8.688   3.566 124.349  0.00  0.00    +0.000 OA
BRANCH  15  17
ATOM     17  C   UNL     1      -8.441   3.228 121.963  0.00  0.00    +0.000 C 
BRANCH  17  19
ATOM     18  C   UNL     1      -6.910   4.040 120.141  0.00  0.00    +0.000 C 
ATOM     19  C   UNL     1      -6.992   3.446 121.534  0.00  0.00    +0.000 C 
ENDBRANCH  17  19
ENDBRANCH  15  17
ENDBRANCH   1  15
BRANCH  12  20
ATOM     20  C   UNL     1      -5.608  -0.610 126.421  0.00  0.00    +0.000 C 
BRANCH  20  21
ATOM     21  C   UNL     1      -5.233   0.216 127.647  0.00  0.00    +0.000 C 
BRANCH  21  22
ATOM     22  C   UNL     1      -6.032   1.497 127.774  0.00  0.00    +0.000 C 
BRANCH  22  23
ATOM     23  N   UNL     1      -5.144   2.640 127.661  0.00  0.00    +0.000 NA
ATOM     24  C   UNL     1      -4.727   2.815 126.263  0.00  0.00    +0.000 C 
ATOM     25  C   UNL     1      -3.802   4.038 126.114  0.00  0.00    +0.000 C 
ATOM     26  N   UNL     1      -2.624   4.034 127.015  0.00  0.00    +0.000 NA
ATOM     27  C   UNL     1      -1.652   3.033 126.578  0.00  0.00    +0.000 C 
ATOM     28  C   UNL     1      -3.053   3.743 128.398  0.00  0.00    +0.000 C 
ATOM     29  C   UNL     1      -3.949   2.500 128.515  0.00  0.00    +0.000 C 
ENDBRANCH  22  23
ENDBRANCH  21  22
ENDBRANCH  20  21
ENDBRANCH  12  20
TORSDOF 7
ENDMDL
MODEL 4
REMARK VINA RESULT:      -7.6      3.775      7.100
REMARK  Name = Butaperazine
REMARK  9 active torsions:
REMARK  status: ('A' for Active; 'I' for Inactive)
REMARK    1  A    between atoms: C_1  and  C_2
REMARK    2  A    between atoms: C_2  and  C_3
REMARK    3  A    between atoms: C_3  and  C_4
REMARK    4  A    between atoms: C_4  and  C_6
REMARK    5  A    between atoms: N_17  and  C_18
REMARK    6  A    between atoms: C_18  and  C_19
REMARK    7  A    between atoms: C_19  and  C_20
REMARK    8  A    between atoms: C_20  and  N_21
REMARK    9  A    between atoms: N_24  and  C_25
REMARK                            x       y       z     vdW  Elec       q    Type
REMARK                         _______ _______ _______ _____ _____    ______ ____
ROOT
ATOM      1  C   UNL     1      -8.320  -2.720 126.635  0.00  0.00    +0.000 A 
ATOM      2  C   UNL     1      -7.955  -1.411 126.961  0.00  0.00    +0.000 A 
ATOM      3  C   UNL     1      -7.755  -1.044 128.300  0.00  0.00    +0.000 A 
ATOM      4  C   UNL     1      -7.901  -2.027 129.304  0.00  0.00    +0.000 A 
ATOM      5  S   UNL     1      -7.706  -1.614 131.033  0.00  0.00    +0.000 S 
ATOM      6  C   UNL     1      -8.306   0.068 130.980  0.00  0.00    +0.000 A 
ATOM      7  C   UNL     1      -8.947   0.595 132.108  0.00  0.00    +0.000 A 
ATOM      8  C   UNL     1      -9.439   1.901 132.100  0.00  0.00    +0.000 A 
ATOM      9  C   UNL     1      -9.323   2.676 130.957  0.00  0.00    +0.000 A 
ATOM     10  C   UNL     1      -8.755   2.123 129.818  0.00  0.00    +0.000 A 
ATOM     11  C   UNL     1      -8.174   0.845 129.817  0.00  0.00    +0.000 A 
ATOM     12  N   UNL     1      -7.607   0.326 128.635  0.00  0.00    +0.000 N 
ATOM     13  C   UNL     1      -8.242  -3.342 128.968  0.00  0.00    +0.000 A 
ATOM     14  C   UNL     1      -8.459  -3.685 127.636  0.00  0.00    +0.000 A 
ENDROOT
BRANCH   1  15
ATOM     15  C   UNL     1      -8.662  -3.090 125.243  0.00  0.00    +0.000 C 
ATOM     16  O   UNL     1      -9.748  -2.723 124.786  0.00  0.00    +0.000 OA
BRANCH  15  17
ATOM     17  C   UNL     1      -7.677  -3.937 124.465  0.00  0.00    +0.000 C 
BRANCH  17  19
ATOM     18  C   UNL     1      -6.551  -2.105 123.162  0.00  0.00    +0.000 C 
ATOM     19  C   UNL     1      -6.375  -3.180 124.217  0.00  0.00    +0.000 C 
ENDBRANCH  17  19
ENDBRANCH  15  17
ENDBRANCH   1  15
BRANCH  12  20
ATOM     20  C   UNL     1      -6.494   1.037 127.954  0.00  0.00    +0.000 C 
BRANCH  20  21
ATOM     21  C   UNL     1      -6.929   2.151 127.007  0.00  0.00    +0.000 C 
BRANCH  21  22
ATOM     22  C   UNL     1      -6.675   1.831 125.549  0.00  0.00    +0.000 C 
BRANCH  22  23
ATOM     23  N   UNL     1      -7.874   2.097 124.774  0.00  0.00    +0.000 NA
ATOM     24  C   UNL     1      -8.954   1.194 125.193  0.00  0.00    +0.000 C 
ATOM     25  C   UNL     1     -10.244   1.475 124.399  0.00  0.00    +0.000 C 
ATOM     26  N   UNL     1     -10.081   1.446 122.926  0.00  0.00    +0.000 NA
ATOM     27  C   UNL     1      -9.892   0.073 122.461  0.00  0.00    +0.000 C 
ATOM     28  C   UNL     1      -8.919   2.270 122.536  0.00  0.00    +0.000 C 
ATOM     29  C   UNL     1      -7.641   1.944 123.324  0.00  0.00    +0.000 C 
ENDBRANCH  22  23
ENDBRANCH  21  22
ENDBRANCH  20  21
ENDBRANCH  12  20
TORSDOF 7
ENDMDL
MODEL 5
REMARK VINA RESULT:      -7.5      3.768      5.780
REMARK  Name = Butaperazine
REMARK  9 active torsions:
REMARK  status: ('A' for Active; 'I' for Inactive)
REMARK    1  A    between atoms: C_1  and  C_2
REMARK    2  A    between atoms: C_2  and  C_3
REMARK    3  A    between atoms: C_3  and  C_4
REMARK    4  A    between atoms: C_4  and  C_6
REMARK    5  A    between atoms: N_17  and  C_18
REMARK    6  A    between atoms: C_18  and  C_19
REMARK    7  A    between atoms: C_19  and  C_20
REMARK    8  A    between atoms: C_20  and  N_21
REMARK    9  A    between atoms: N_24  and  C_25
REMARK                            x       y       z     vdW  Elec       q    Type
REMARK                         _______ _______ _______ _____ _____    ______ ____
ROOT
ATOM      1  C   UNL     1      -8.315  -2.680 126.619  0.00  0.00    +0.000 A 
ATOM      2  C   UNL     1      -7.940  -1.366 126.915  0.00  0.00    +0.000 A 
ATOM      3  C   UNL     1      -7.765  -0.962 128.247  0.00  0.00    +0.000 A 
ATOM      4  C   UNL     1      -7.948  -1.913 129.276  0.00  0.00    +0.000 A 
ATOM      5  S   UNL     1      -7.786  -1.451 130.996  0.00  0.00    +0.000 S 
ATOM      6  C   UNL     1      -8.363   0.236 130.879  0.00  0.00    +0.000 A 
ATOM      7  C   UNL     1      -9.023   0.804 131.976  0.00  0.00    +0.000 A 
ATOM      8  C   UNL     1      -9.497   2.116 131.917  0.00  0.00    +0.000 A 
ATOM      9  C   UNL     1      -9.346   2.855 130.756  0.00  0.00    +0.000 A 
ATOM     10  C   UNL     1      -8.759   2.261 129.647  0.00  0.00    +0.000 A 
ATOM     11  C   UNL     1      -8.194   0.977 129.697  0.00  0.00    +0.000 A 
ATOM     12  N   UNL     1      -7.607   0.415 128.545  0.00  0.00    +0.000 N 
ATOM     13  C   UNL     1      -8.297  -3.232 128.972  0.00  0.00    +0.000 A 
ATOM     14  C   UNL     1      -8.489  -3.613 127.645  0.00  0.00    +0.000 A 
ENDROOT
BRANCH   1  15
ATOM     15  C   UNL     1      -8.629  -3.087 125.231  0.00  0.00    +0.000 C 
ATOM     16  O   UNL     1      -9.737  -2.799 124.770  0.00  0.00    +0.000 OA
BRANCH  15  17
ATOM     17  C   UNL     1      -7.589  -3.875 124.463  0.00  0.00    +0.000 C 
BRANCH  17  19
ATOM     18  C   UNL     1      -5.139  -3.665 123.936  0.00  0.00    +0.000 C 
ATOM     19  C   UNL     1      -6.483  -2.962 123.940  0.00  0.00    +0.000 C 
ENDBRANCH  17  19
ENDBRANCH  15  17
ENDBRANCH   1  15
BRANCH  12  20
ATOM     20  C   UNL     1      -6.470   1.092 127.869  0.00  0.00    +0.000 C 
BRANCH  20  21
ATOM     21  C   UNL     1      -6.864   2.020 126.724  0.00  0.00    +0.000 C 
BRANCH  21  22
ATOM     22  C   UNL     1      -6.416   3.451 126.931  0.00  0.00    +0.000 C 
BRANCH  22  23
ATOM     23  N   UNL     1      -5.106   3.468 127.557  0.00  0.00    +0.000 NA
ATOM     24  C   UNL     1      -5.111   4.382 128.707  0.00  0.00    +0.000 C 
ATOM     25  C   UNL     1      -3.735   4.398 129.402  0.00  0.00    +0.000 C 
ATOM     26  N   UNL     1      -2.594   4.694 128.504  0.00  0.00    +0.000 NA
ATOM     27  C   UNL     1      -2.603   6.103 128.114  0.00  0.00    +0.000 C 
ATOM     28  C   UNL     1      -2.672   3.843 127.299  0.00  0.00    +0.000 C 
ATOM     29  C   UNL     1      -4.047   3.873 126.612  0.00  0.00    +0.000 C 
ENDBRANCH  22  23
ENDBRANCH  21  22
ENDBRANCH  20  21
ENDBRANCH  12  20
TORSDOF 7
ENDMDL
MODEL 6
REMARK VINA RESULT:      -7.4      3.717      5.174
REMARK  Name = Butaperazine
REMARK  9 active torsions:
REMARK  status: ('A' for Active; 'I' for Inactive)
REMARK    1  A    between atoms: C_1  and  C_2
REMARK    2  A    between atoms: C_2  and  C_3
REMARK    3  A    between atoms: C_3  and  C_4
REMARK    4  A    between atoms: C_4  and  C_6
REMARK    5  A    between atoms: N_17  and  C_18
REMARK    6  A    between atoms: C_18  and  C_19
REMARK    7  A    between atoms: C_19  and  C_20
REMARK    8  A    between atoms: C_20  and  N_21
REMARK    9  A    between atoms: N_24  and  C_25
REMARK                            x       y       z     vdW  Elec       q    Type
REMARK                         _______ _______ _______ _____ _____    ______ ____
ROOT
ATOM      1  C   UNL     1      -6.083  -3.269 129.314  0.00  0.00    +0.000 A 
ATOM      2  C   UNL     1      -5.666  -2.448 128.262  0.00  0.00    +0.000 A 
ATOM      3  C   UNL     1      -6.578  -2.040 127.277  0.00  0.00    +0.000 A 
ATOM      4  C   UNL     1      -7.925  -2.451 127.386  0.00  0.00    +0.000 A 
ATOM      5  S   UNL     1      -9.128  -2.005 126.140  0.00  0.00    +0.000 S 
ATOM      6  C   UNL     1      -8.048  -1.982 124.717  0.00  0.00    +0.000 A 
ATOM      7  C   UNL     1      -8.572  -2.320 123.463  0.00  0.00    +0.000 A 
ATOM      8  C   UNL     1      -7.756  -2.323 122.330  0.00  0.00    +0.000 A 
ATOM      9  C   UNL     1      -6.409  -2.024 122.447  0.00  0.00    +0.000 A 
ATOM     10  C   UNL     1      -5.880  -1.764 123.704  0.00  0.00    +0.000 A 
ATOM     11  C   UNL     1      -6.685  -1.667 124.850  0.00  0.00    +0.000 A 
ATOM     12  N   UNL     1      -6.102  -1.401 126.105  0.00  0.00    +0.000 N 
ATOM     13  C   UNL     1      -8.341  -3.252 128.455  0.00  0.00    +0.000 A 
ATOM     14  C   UNL     1      -7.419  -3.667 129.413  0.00  0.00    +0.000 A 
ENDROOT
BRANCH   1  15
ATOM     15  C   UNL     1      -5.108  -3.813 130.286  0.00  0.00    +0.000 C 
ATOM     16  O   UNL     1      -4.035  -3.222 130.438  0.00  0.00    +0.000 OA
BRANCH  15  17
ATOM     17  C   UNL     1      -5.460  -5.095 131.012  0.00  0.00    +0.000 C 
BRANCH  17  19
ATOM     18  C   UNL     1      -4.388  -5.518 133.248  0.00  0.00    +0.000 C 
ATOM     19  C   UNL     1      -5.548  -4.866 132.519  0.00  0.00    +0.000 C 
ENDBRANCH  17  19
ENDBRANCH  15  17
ENDBRANCH   1  15
BRANCH  12  20
ATOM     20  C   UNL     1      -5.315  -0.160 126.325  0.00  0.00    +0.000 C 
BRANCH  20  21
ATOM     21  C   UNL     1      -6.149   1.101 126.531  0.00  0.00    +0.000 C 
BRANCH  21  22
ATOM     22  C   UNL     1      -5.472   2.357 126.023  0.00  0.00    +0.000 C 
BRANCH  22  23
ATOM     23  N   UNL     1      -4.403   2.737 126.929  0.00  0.00    +0.000 NA
ATOM     24  C   UNL     1      -4.947   3.518 128.048  0.00  0.00    +0.000 C 
ATOM     25  C   UNL     1      -3.833   3.913 129.035  0.00  0.00    +0.000 C 
ATOM     26  N   UNL     1      -2.682   4.616 128.419  0.00  0.00    +0.000 NA
ATOM     27  C   UNL     1      -3.060   5.975 128.037  0.00  0.00    +0.000 C 
ATOM     28  C   UNL     1      -2.223   3.872 127.228  0.00  0.00    +0.000 C 
ATOM     29  C   UNL     1      -3.354   3.521 126.248  0.00  0.00    +0.000 C 
ENDBRANCH  22  23
ENDBRANCH  21  22
ENDBRANCH  20  21
ENDBRANCH  12  20
TORSDOF 7
ENDMDL
MODEL 7
REMARK VINA RESULT:      -7.4      4.340      5.773
REMARK  Name = Butaperazine
REMARK  9 active torsions:
REMARK  status: ('A' for Active; 'I' for Inactive)
REMARK    1  A    between atoms: C_1  and  C_2
REMARK    2  A    between atoms: C_2  and  C_3
REMARK    3  A    between atoms: C_3  and  C_4
REMARK    4  A    between atoms: C_4  and  C_6
REMARK    5  A    between atoms: N_17  and  C_18
REMARK    6  A    between atoms: C_18  and  C_19
REMARK    7  A    between atoms: C_19  and  C_20
REMARK    8  A    between atoms: C_20  and  N_21
REMARK    9  A    between atoms: N_24  and  C_25
REMARK                            x       y       z     vdW  Elec       q    Type
REMARK                         _______ _______ _______ _____ _____    ______ ____
ROOT
ATOM      1  C   UNL     1      -6.860  -2.608 129.555  0.00  0.00    +0.000 A 
ATOM      2  C   UNL     1      -6.717  -1.634 128.562  0.00  0.00    +0.000 A 
ATOM      3  C   UNL     1      -7.520  -1.671 127.412  0.00  0.00    +0.000 A 
ATOM      4  C   UNL     1      -8.490  -2.691 127.293  0.00  0.00    +0.000 A 
ATOM      5  S   UNL     1      -9.514  -2.822 125.832  0.00  0.00    +0.000 S 
ATOM      6  C   UNL     1      -8.348  -2.203 124.628  0.00  0.00    +0.000 A 
ATOM      7  C   UNL     1      -8.408  -2.688 123.316  0.00  0.00    +0.000 A 
ATOM      8  C   UNL     1      -7.508  -2.235 122.350  0.00  0.00    +0.000 A 
ATOM      9  C   UNL     1      -6.523  -1.324 122.696  0.00  0.00    +0.000 A 
ATOM     10  C   UNL     1      -6.421  -0.906 124.015  0.00  0.00    +0.000 A 
ATOM     11  C   UNL     1      -7.361  -1.272 124.992  0.00  0.00    +0.000 A 
ATOM     12  N   UNL     1      -7.216  -0.821 126.319  0.00  0.00    +0.000 N 
ATOM     13  C   UNL     1      -8.646  -3.647 128.302  0.00  0.00    +0.000 A 
ATOM     14  C   UNL     1      -7.826  -3.610 129.428  0.00  0.00    +0.000 A 
ENDROOT
BRANCH   1  15
ATOM     15  C   UNL     1      -5.935  -2.658 130.709  0.00  0.00    +0.000 C 
ATOM     16  O   UNL     1      -5.823  -1.654 131.418  0.00  0.00    +0.000 OA
BRANCH  15  17
ATOM     17  C   UNL     1      -5.139  -3.926 130.934  0.00  0.00    +0.000 C 
BRANCH  17  19
ATOM     18  C   UNL     1      -3.348  -3.577 129.203  0.00  0.00    +0.000 C 
ATOM     19  C   UNL     1      -3.651  -3.693 130.685  0.00  0.00    +0.000 C 
ENDBRANCH  17  19
ENDBRANCH  15  17
ENDBRANCH   1  15
BRANCH  12  20
ATOM     20  C   UNL     1      -7.188   0.633 126.625  0.00  0.00    +0.000 C 
BRANCH  20  21
ATOM     21  C   UNL     1      -8.434   1.166 127.327  0.00  0.00    +0.000 C 
BRANCH  21  22
ATOM     22  C   UNL     1      -8.136   2.269 128.320  0.00  0.00    +0.000 C 
BRANCH  22  23
ATOM     23  N   UNL     1      -8.899   2.051 129.536  0.00  0.00    +0.000 NA
ATOM     24  C   UNL     1      -9.031   3.313 130.278  0.00  0.00    +0.000 C 
ATOM     25  C   UNL     1      -9.858   3.110 131.562  0.00  0.00    +0.000 C 
ATOM     26  N   UNL     1      -9.365   2.031 132.450  0.00  0.00    +0.000 NA
ATOM     27  C   UNL     1      -8.126   2.439 133.110  0.00  0.00    +0.000 C 
ATOM     28  C   UNL     1      -9.130   0.803 131.662  0.00  0.00    +0.000 C 
ATOM     29  C   UNL     1      -8.276   1.034 130.405  0.00  0.00    +0.000 C 
ENDBRANCH  22  23
ENDBRANCH  21  22
ENDBRANCH  20  21
ENDBRANCH  12  20
TORSDOF 7
ENDMDL
MODEL 8
REMARK VINA RESULT:      -7.3      4.150      8.736
REMARK  Name = Butaperazine
REMARK  9 active torsions:
REMARK  status: ('A' for Active; 'I' for Inactive)
REMARK    1  A    between atoms: C_1  and  C_2
REMARK    2  A    between atoms: C_2  and  C_3
REMARK    3  A    between atoms: C_3  and  C_4
REMARK    4  A    between atoms: C_4  and  C_6
REMARK    5  A    between atoms: N_17  and  C_18
REMARK    6  A    between atoms: C_18  and  C_19
REMARK    7  A    between atoms: C_19  and  C_20
REMARK    8  A    between atoms: C_20  and  N_21
REMARK    9  A    between atoms: N_24  and  C_25
REMARK                            x       y       z     vdW  Elec       q    Type
REMARK                         _______ _______ _______ _____ _____    ______ ____
ROOT
ATOM      1  C   UNL     1      -9.352   6.087 129.978  0.00  0.00    +0.000 A 
ATOM      2  C   UNL     1      -8.686   4.983 129.437  0.00  0.00    +0.000 A 
ATOM      3  C   UNL     1      -7.333   4.758 129.730  0.00  0.00    +0.000 A 
ATOM      4  C   UNL     1      -6.669   5.650 130.602  0.00  0.00    +0.000 A 
ATOM      5  S   UNL     1      -4.933   5.447 130.980  0.00  0.00    +0.000 S 
ATOM      6  C   UNL     1      -4.396   4.752 129.423  0.00  0.00    +0.000 A 
ATOM      7  C   UNL     1      -3.093   5.010 128.980  0.00  0.00    +0.000 A 
ATOM      8  C   UNL     1      -2.642   4.493 127.764  0.00  0.00    +0.000 A 
ATOM      9  C   UNL     1      -3.497   3.746 126.970  0.00  0.00    +0.000 A 
ATOM     10  C   UNL     1      -4.810   3.558 127.379  0.00  0.00    +0.000 A 
ATOM     11  C   UNL     1      -5.272   3.989 128.633  0.00  0.00    +0.000 A 
ATOM     12  N   UNL     1      -6.614   3.775 129.006  0.00  0.00    +0.000 N 
ATOM     13  C   UNL     1      -7.348   6.738 131.160  0.00  0.00    +0.000 A 
ATOM     14  C   UNL     1      -8.686   6.961 130.842  0.00  0.00    +0.000 A 
ENDROOT
BRANCH   1  15
ATOM     15  C   UNL     1     -10.739   6.410 129.575  0.00  0.00    +0.000 C 
ATOM     16  O   UNL     1     -11.531   5.481 129.395  0.00  0.00    +0.000 OA
BRANCH  15  17
ATOM     17  C   UNL     1     -11.103   7.865 129.363  0.00  0.00    +0.000 C 
BRANCH  17  19
ATOM     18  C   UNL     1     -11.078   7.766 126.850  0.00  0.00    +0.000 C 
ATOM     19  C   UNL     1     -10.472   8.408 128.083  0.00  0.00    +0.000 C 
ENDBRANCH  17  19
ENDBRANCH  15  17
ENDBRANCH   1  15
BRANCH  12  20
ATOM     20  C   UNL     1      -7.172   2.399 129.065  0.00  0.00    +0.000 C 
BRANCH  20  21
ATOM     21  C   UNL     1      -7.920   1.955 127.811  0.00  0.00    +0.000 C 
BRANCH  21  22
ATOM     22  C   UNL     1      -7.282   0.768 127.121  0.00  0.00    +0.000 C 
BRANCH  22  23
ATOM     23  N   UNL     1      -7.895   0.571 125.819  0.00  0.00    +0.000 NA
ATOM     24  C   UNL     1      -6.919   0.855 124.758  0.00  0.00    +0.000 C 
ATOM     25  C   UNL     1      -7.541   0.630 123.366  0.00  0.00    +0.000 C 
ATOM     26  N   UNL     1      -8.804   1.369 123.128  0.00  0.00    +0.000 NA
ATOM     27  C   UNL     1      -8.535   2.797 122.964  0.00  0.00    +0.000 C 
ATOM     28  C   UNL     1      -9.727   1.162 124.262  0.00  0.00    +0.000 C 
ATOM     29  C   UNL     1      -9.084   1.424 125.633  0.00  0.00    +0.000 C 
ENDBRANCH  22  23
ENDBRANCH  21  22
ENDBRANCH  20  21
ENDBRANCH  12  20
TORSDOF 7
ENDMDL
MODEL 9
REMARK VINA RESULT:      -7.2      3.318      4.922
REMARK  Name = Butaperazine
REMARK  9 active torsions:
REMARK  status: ('A' for Active; 'I' for Inactive)
REMARK    1  A    between atoms: C_1  and  C_2
REMARK    2  A    between atoms: C_2  and  C_3
REMARK    3  A    between atoms: C_3  and  C_4
REMARK    4  A    between atoms: C_4  and  C_6
REMARK    5  A    between atoms: N_17  and  C_18
REMARK    6  A    between atoms: C_18  and  C_19
REMARK    7  A    between atoms: C_19  and  C_20
REMARK    8  A    between atoms: C_20  and  N_21
REMARK    9  A    between atoms: N_24  and  C_25
REMARK                            x       y       z     vdW  Elec       q    Type
REMARK                         _______ _______ _______ _____ _____    ______ ____
ROOT
ATOM      1  C   UNL     1      -8.071  -0.661 124.687  0.00  0.00    +0.000 A 
ATOM      2  C   UNL     1      -7.687  -0.082 125.901  0.00  0.00    +0.000 A 
ATOM      3  C   UNL     1      -7.076   1.180 125.922  0.00  0.00    +0.000 A 
ATOM      4  C   UNL     1      -6.883   1.862 124.699  0.00  0.00    +0.000 A 
ATOM      5  S   UNL     1      -6.068   3.454 124.652  0.00  0.00    +0.000 S 
ATOM      6  C   UNL     1      -4.949   3.227 126.026  0.00  0.00    +0.000 A 
ATOM      7  C   UNL     1      -3.707   3.873 126.003  0.00  0.00    +0.000 A 
ATOM      8  C   UNL     1      -2.803   3.711 127.054  0.00  0.00    +0.000 A 
ATOM      9  C   UNL     1      -3.118   2.879 128.115  0.00  0.00    +0.000 A 
ATOM     10  C   UNL     1      -4.318   2.181 128.096  0.00  0.00    +0.000 A 
ATOM     11  C   UNL     1      -5.287   2.386 127.100  0.00  0.00    +0.000 A 
ATOM     12  N   UNL     1      -6.492   1.655 127.122  0.00  0.00    +0.000 N 
ATOM     13  C   UNL     1      -7.293   1.289 123.491  0.00  0.00    +0.000 A 
ATOM     14  C   UNL     1      -7.879   0.025 123.485  0.00  0.00    +0.000 A 
ENDROOT
BRANCH   1  15
ATOM     15  C   UNL     1      -8.597  -2.044 124.638  0.00  0.00    +0.000 C 
ATOM     16  O   UNL     1      -9.631  -2.303 125.258  0.00  0.00    +0.000 OA
BRANCH  15  17
ATOM     17  C   UNL     1      -7.812  -3.081 123.863  0.00  0.00    +0.000 C 
BRANCH  17  19
ATOM     18  C   UNL     1      -5.340  -2.889 123.436  0.00  0.00    +0.000 C 
ATOM     19  C   UNL     1      -6.412  -3.259 124.445  0.00  0.00    +0.000 C 
ENDBRANCH  17  19
ENDBRANCH  15  17
ENDBRANCH   1  15
BRANCH  12  20
ATOM     20  C   UNL     1      -7.405   1.739 128.291  0.00  0.00    +0.000 C 
BRANCH  20  21
ATOM     21  C   UNL     1      -7.933   3.138 128.594  0.00  0.00    +0.000 C 
BRANCH  21  22
ATOM     22  C   UNL     1      -9.097   3.143 129.563  0.00  0.00    +0.000 C 
BRANCH  22  23
ATOM     23  N   UNL     1      -9.237   4.462 130.153  0.00  0.00    +0.000 NA
ATOM     24  C   UNL     1      -7.921   4.970 130.564  0.00  0.00    +0.000 C 
ATOM     25  C   UNL     1      -8.042   6.380 131.172  0.00  0.00    +0.000 C 
ATOM     26  N   UNL     1      -9.015   6.491 132.285  0.00  0.00    +0.000 NA
ATOM     27  C   UNL     1      -8.497   5.833 133.483  0.00  0.00    +0.000 C 
ATOM     28  C   UNL     1     -10.297   5.871 131.891  0.00  0.00    +0.000 C 
ATOM     29  C   UNL     1     -10.144   4.454 131.317  0.00  0.00    +0.000 C 
ENDBRANCH  22  23
ENDBRANCH  21  22
ENDBRANCH  20  21
ENDBRANCH  12  20
TORSDOF 7
ENDMDL
