MODEL 1
REMARK VINA RESULT:      -6.2      0.000      0.000
REMARK  Name = Butabarbital
REMARK  6 active torsions:
REMARK  status: ('A' for Active; 'I' for Inactive)
REMARK    1  A    between atoms: C_1  and  C_2
REMARK    2  A    between atoms: C_2  and  C_3
REMARK    3  A    between atoms: C_3  and  C_4
REMARK    4  A    between atoms: C_3  and  C_5
REMARK    5  A    between atoms: C_5  and  C_6
REMARK    6  A    between atoms: C_6  and  C_7
REMARK                            x       y       z     vdW  Elec       q    Type
REMARK                         _______ _______ _______ _____ _____    ______ ____
ROOT
ATOM      1  C   UNL     1     -11.739   7.770 128.965  0.00  0.00    +0.000 C 
ATOM      2  C   UNL     1     -12.760   6.650 128.809  0.00  0.00    +0.000 C 
ATOM      3  O   UNL     1     -13.818   6.790 128.192  0.00  0.00    +0.000 OA
ATOM      4  N   UNL     1     -12.492   5.462 129.411  0.00  0.00    +0.000 N 
ATOM      5  C   UNL     1     -11.299   5.078 129.935  0.00  0.00    +0.000 C 
ATOM      6  O   UNL     1     -11.101   3.930 130.300  0.00  0.00    +0.000 OA
ATOM      7  N   UNL     1     -10.329   6.027 130.004  0.00  0.00    +0.000 N 
ATOM      8  C   UNL     1     -10.404   7.303 129.532  0.00  0.00    +0.000 C 
ATOM      9  O   UNL     1      -9.409   8.029 129.581  0.00  0.00    +0.000 OA
ATOM     10  H   UNL     1     -13.192   4.741 129.307  0.00  0.00    +0.000 HD
ATOM     11  H   UNL     1      -9.431   5.728 130.358  0.00  0.00    +0.000 HD
ENDROOT
BRANCH   1  12
ATOM     12  C   UNL     1     -12.293   8.879 129.950  0.00  0.00    +0.000 C 
ATOM     13  C   UNL     1     -12.999   8.282 131.181  0.00  0.00    +0.000 C 
BRANCH  12  15
ATOM     14  C   UNL     1     -13.539  11.116 130.084  0.00  0.00    +0.000 C 
ATOM     15  C   UNL     1     -13.218   9.895 129.245  0.00  0.00    +0.000 C 
ENDBRANCH  12  15
ENDBRANCH   1  12
BRANCH   1  16
ATOM     16  C   UNL     1     -11.456   8.295 127.530  0.00  0.00    +0.000 C 
ATOM     17  C   UNL     1     -10.828   7.241 126.628  0.00  0.00    +0.000 C 
ENDBRANCH   1  16
TORSDOF 3
ENDMDL
MODEL 2
REMARK VINA RESULT:      -5.9      2.680      3.705
REMARK  Name = Butabarbital
REMARK  6 active torsions:
REMARK  status: ('A' for Active; 'I' for Inactive)
REMARK    1  A    between atoms: C_1  and  C_2
REMARK    2  A    between atoms: C_2  and  C_3
REMARK    3  A    between atoms: C_3  and  C_4
REMARK    4  A    between atoms: C_3  and  C_5
REMARK    5  A    between atoms: C_5  and  C_6
REMARK    6  A    between atoms: C_6  and  C_7
REMARK                            x       y       z     vdW  Elec       q    Type
REMARK                         _______ _______ _______ _____ _____    ______ ____
ROOT
ATOM      1  C   UNL     1      -9.634   6.312 130.531  0.00  0.00    +0.000 C 
ATOM      2  C   UNL     1      -9.294   5.176 129.574  0.00  0.00    +0.000 C 
ATOM      3  O   UNL     1      -8.759   5.361 128.479  0.00  0.00    +0.000 OA
ATOM      4  N   UNL     1      -9.635   3.913 129.945  0.00  0.00    +0.000 N 
ATOM      5  C   UNL     1     -10.025   3.518 131.184  0.00  0.00    +0.000 C 
ATOM      6  O   UNL     1     -10.144   2.337 131.470  0.00  0.00    +0.000 OA
ATOM      7  N   UNL     1     -10.247   4.500 132.096  0.00  0.00    +0.000 N 
ATOM      8  C   UNL     1     -10.045   5.835 131.920  0.00  0.00    +0.000 C 
ATOM      9  O   UNL     1     -10.201   6.605 132.870  0.00  0.00    +0.000 OA
ATOM     10  H   UNL     1      -9.415   3.180 129.285  0.00  0.00    +0.000 HD
ATOM     11  H   UNL     1     -10.499   4.200 133.028  0.00  0.00    +0.000 HD
ENDROOT
BRANCH   1  12
ATOM     12  C   UNL     1     -10.843   7.161 129.962  0.00  0.00    +0.000 C 
ATOM     13  C   UNL     1     -11.985   6.282 129.421  0.00  0.00    +0.000 C 
BRANCH  12  15
ATOM     14  C   UNL     1     -11.021   7.943 127.526  0.00  0.00    +0.000 C 
ATOM     15  C   UNL     1     -10.401   8.181 128.889  0.00  0.00    +0.000 C 
ENDBRANCH  12  15
ENDBRANCH   1  12
BRANCH   1  16
ATOM     16  C   UNL     1      -8.324   7.129 130.708  0.00  0.00    +0.000 C 
ATOM     17  C   UNL     1      -7.222   6.338 131.399  0.00  0.00    +0.000 C 
ENDBRANCH   1  16
TORSDOF 3
ENDMDL
MODEL 3
REMARK VINA RESULT:      -5.8     10.406     12.405
REMARK  Name = Butabarbital
REMARK  6 active torsions:
REMARK  status: ('A' for Active; 'I' for Inactive)
REMARK    1  A    between atoms: C_1  and  C_2
REMARK    2  A    between atoms: C_2  and  C_3
REMARK    3  A    between atoms: C_3  and  C_4
REMARK    4  A    between atoms: C_3  and  C_5
REMARK    5  A    between atoms: C_5  and  C_6
REMARK    6  A    between atoms: C_6  and  C_7
REMARK                            x       y       z     vdW  Elec       q    Type
REMARK                         _______ _______ _______ _____ _____    ______ ____
ROOT
ATOM      1  C   UNL     1      -6.887  -1.961 124.663  0.00  0.00    +0.000 C 
ATOM      2  C   UNL     1      -7.997  -2.889 124.184  0.00  0.00    +0.000 C 
ATOM      3  O   UNL     1      -8.041  -4.085 124.477  0.00  0.00    +0.000 OA
ATOM      4  N   UNL     1      -8.953  -2.365 123.372  0.00  0.00    +0.000 N 
ATOM      5  C   UNL     1      -9.169  -1.046 123.132  0.00  0.00    +0.000 C 
ATOM      6  O   UNL     1     -10.157  -0.661 122.528  0.00  0.00    +0.000 OA
ATOM      7  N   UNL     1      -8.248  -0.178 123.626  0.00  0.00    +0.000 N 
ATOM      8  C   UNL     1      -7.172  -0.486 124.401  0.00  0.00    +0.000 C 
ATOM      9  O   UNL     1      -6.470   0.419 124.856  0.00  0.00    +0.000 OA
ATOM     10  H   UNL     1      -9.667  -3.006 123.054  0.00  0.00    +0.000 HD
ATOM     11  H   UNL     1      -8.434   0.805 123.480  0.00  0.00    +0.000 HD
ENDROOT
BRANCH   1  12
ATOM     12  C   UNL     1      -5.532  -2.304 123.920  0.00  0.00    +0.000 C 
ATOM     13  C   UNL     1      -5.704  -2.437 122.396  0.00  0.00    +0.000 C 
BRANCH  12  15
ATOM     14  C   UNL     1      -4.393  -4.549 123.429  0.00  0.00    +0.000 C 
ATOM     15  C   UNL     1      -4.843  -3.564 124.490  0.00  0.00    +0.000 C 
ENDBRANCH  12  15
ENDBRANCH   1  12
BRANCH   1  16
ATOM     16  C   UNL     1      -6.817  -2.136 126.205  0.00  0.00    +0.000 C 
ATOM     17  C   UNL     1      -8.119  -1.766 126.902  0.00  0.00    +0.000 C 
ENDBRANCH   1  16
TORSDOF 3
ENDMDL
MODEL 4
REMARK VINA RESULT:      -5.6      9.639     11.880
REMARK  Name = Butabarbital
REMARK  6 active torsions:
REMARK  status: ('A' for Active; 'I' for Inactive)
REMARK    1  A    between atoms: C_1  and  C_2
REMARK    2  A    between atoms: C_2  and  C_3
REMARK    3  A    between atoms: C_3  and  C_4
REMARK    4  A    between atoms: C_3  and  C_5
REMARK    5  A    between atoms: C_5  and  C_6
REMARK    6  A    between atoms: C_6  and  C_7
REMARK                            x       y       z     vdW  Elec       q    Type
REMARK                         _______ _______ _______ _____ _____    ______ ____
ROOT
ATOM      1  C   UNL     1      -7.484  -2.316 124.718  0.00  0.00    +0.000 C 
ATOM      2  C   UNL     1      -7.774  -1.092 123.859  0.00  0.00    +0.000 C 
ATOM      3  O   UNL     1      -7.494  -1.034 122.660  0.00  0.00    +0.000 OA
ATOM      4  N   UNL     1      -8.336  -0.013 124.465  0.00  0.00    +0.000 N 
ATOM      5  C   UNL     1      -8.895   0.013 125.703  0.00  0.00    +0.000 C 
ATOM      6  O   UNL     1      -9.530   0.978 126.097  0.00  0.00    +0.000 OA
ATOM      7  N   UNL     1      -8.738  -1.100 126.466  0.00  0.00    +0.000 N 
ATOM      8  C   UNL     1      -8.145  -2.268 126.091  0.00  0.00    +0.000 C 
ATOM      9  O   UNL     1      -8.157  -3.230 126.860  0.00  0.00    +0.000 OA
ATOM     10  H   UNL     1      -8.502   0.792 123.877  0.00  0.00    +0.000 HD
ATOM     11  H   UNL     1      -9.189  -1.092 127.371  0.00  0.00    +0.000 HD
ENDROOT
BRANCH   1  12
ATOM     12  C   UNL     1      -5.926  -2.452 124.965  0.00  0.00    +0.000 C 
ATOM     13  C   UNL     1      -5.293  -1.154 125.500  0.00  0.00    +0.000 C 
BRANCH  12  15
ATOM     14  C   UNL     1      -4.464  -4.270 123.901  0.00  0.00    +0.000 C 
ATOM     15  C   UNL     1      -5.165  -2.940 123.712  0.00  0.00    +0.000 C 
ENDBRANCH  12  15
ENDBRANCH   1  12
BRANCH   1  16
ATOM     16  C   UNL     1      -8.105  -3.526 123.966  0.00  0.00    +0.000 C 
ATOM     17  C   UNL     1      -9.581  -3.329 123.647  0.00  0.00    +0.000 C 
ENDBRANCH   1  16
TORSDOF 3
ENDMDL
MODEL 5
REMARK VINA RESULT:      -5.4      7.701      9.307
REMARK  Name = Butabarbital
REMARK  6 active torsions:
REMARK  status: ('A' for Active; 'I' for Inactive)
REMARK    1  A    between atoms: C_1  and  C_2
REMARK    2  A    between atoms: C_2  and  C_3
REMARK    3  A    between atoms: C_3  and  C_4
REMARK    4  A    between atoms: C_3  and  C_5
REMARK    5  A    between atoms: C_5  and  C_6
REMARK    6  A    between atoms: C_6  and  C_7
REMARK                            x       y       z     vdW  Elec       q    Type
REMARK                         _______ _______ _______ _____ _____    ______ ____
ROOT
ATOM      1  C   UNL     1      -7.510   1.811 124.528  0.00  0.00    +0.000 C 
ATOM      2  C   UNL     1      -7.634   0.411 123.939  0.00  0.00    +0.000 C 
ATOM      3  O   UNL     1      -6.760  -0.448 124.067  0.00  0.00    +0.000 OA
ATOM      4  N   UNL     1      -8.748   0.125 123.215  0.00  0.00    +0.000 N 
ATOM      5  C   UNL     1      -9.883   0.869 123.160  0.00  0.00    +0.000 C 
ATOM      6  O   UNL     1     -10.896   0.451 122.623  0.00  0.00    +0.000 OA
ATOM      7  N   UNL     1      -9.842   2.089 123.757  0.00  0.00    +0.000 N 
ATOM      8  C   UNL     1      -8.807   2.611 124.472  0.00  0.00    +0.000 C 
ATOM      9  O   UNL     1      -8.945   3.697 125.038  0.00  0.00    +0.000 OA
ATOM     10  H   UNL     1      -8.798  -0.804 122.821  0.00  0.00    +0.000 HD
ATOM     11  H   UNL     1     -10.700   2.624 123.748  0.00  0.00    +0.000 HD
ENDROOT
BRANCH   1  12
ATOM     12  C   UNL     1      -6.424   2.643 123.731  0.00  0.00    +0.000 C 
ATOM     13  C   UNL     1      -5.764   3.737 124.591  0.00  0.00    +0.000 C 
BRANCH  12  15
ATOM     14  C   UNL     1      -5.909   3.773 121.488  0.00  0.00    +0.000 C 
ATOM     15  C   UNL     1      -6.980   3.255 122.427  0.00  0.00    +0.000 C 
ENDBRANCH  12  15
ENDBRANCH   1  12
BRANCH   1  16
ATOM     16  C   UNL     1      -7.170   1.616 126.031  0.00  0.00    +0.000 C 
ATOM     17  C   UNL     1      -8.277   0.910 126.801  0.00  0.00    +0.000 C 
ENDBRANCH   1  16
TORSDOF 3
ENDMDL
MODEL 6
REMARK VINA RESULT:      -5.3      9.684     11.338
REMARK  Name = Butabarbital
REMARK  6 active torsions:
REMARK  status: ('A' for Active; 'I' for Inactive)
REMARK    1  A    between atoms: C_1  and  C_2
REMARK    2  A    between atoms: C_2  and  C_3
REMARK    3  A    between atoms: C_3  and  C_4
REMARK    4  A    between atoms: C_3  and  C_5
REMARK    5  A    between atoms: C_5  and  C_6
REMARK    6  A    between atoms: C_6  and  C_7
REMARK                            x       y       z     vdW  Elec       q    Type
REMARK                         _______ _______ _______ _____ _____    ______ ____
ROOT
ATOM      1  C   UNL     1      -8.302  -1.969 125.427  0.00  0.00    +0.000 C 
ATOM      2  C   UNL     1      -7.020  -2.177 124.630  0.00  0.00    +0.000 C 
ATOM      3  O   UNL     1      -6.424  -3.255 124.589  0.00  0.00    +0.000 OA
ATOM      4  N   UNL     1      -6.506  -1.106 123.969  0.00  0.00    +0.000 N 
ATOM      5  C   UNL     1      -7.137   0.073 123.736  0.00  0.00    +0.000 C 
ATOM      6  O   UNL     1      -6.667   0.913 122.985  0.00  0.00    +0.000 OA
ATOM      7  N   UNL     1      -8.332   0.258 124.356  0.00  0.00    +0.000 N 
ATOM      8  C   UNL     1      -8.999  -0.647 125.125  0.00  0.00    +0.000 C 
ATOM      9  O   UNL     1     -10.123  -0.374 125.550  0.00  0.00    +0.000 OA
ATOM     10  H   UNL     1      -5.646  -1.266 123.462  0.00  0.00    +0.000 HD
ATOM     11  H   UNL     1      -8.818   1.120 124.149  0.00  0.00    +0.000 HD
ENDROOT
BRANCH   1  12
ATOM     12  C   UNL     1      -7.987  -1.977 126.978  0.00  0.00    +0.000 C 
ATOM     13  C   UNL     1      -6.512  -1.657 127.288  0.00  0.00    +0.000 C 
BRANCH  12  15
ATOM     14  C   UNL     1      -8.150  -3.316 129.159  0.00  0.00    +0.000 C 
ATOM     15  C   UNL     1      -8.400  -3.297 127.664  0.00  0.00    +0.000 C 
ENDBRANCH  12  15
ENDBRANCH   1  12
BRANCH   1  16
ATOM     16  C   UNL     1      -9.272  -3.098 124.981  0.00  0.00    +0.000 C 
ATOM     17  C   UNL     1      -9.498  -3.122 123.475  0.00  0.00    +0.000 C 
ENDBRANCH   1  16
TORSDOF 3
ENDMDL
MODEL 7
REMARK VINA RESULT:      -5.3      2.299      3.211
REMARK  Name = Butabarbital
REMARK  6 active torsions:
REMARK  status: ('A' for Active; 'I' for Inactive)
REMARK    1  A    between atoms: C_1  and  C_2
REMARK    2  A    between atoms: C_2  and  C_3
REMARK    3  A    between atoms: C_3  and  C_4
REMARK    4  A    between atoms: C_3  and  C_5
REMARK    5  A    between atoms: C_5  and  C_6
REMARK    6  A    between atoms: C_6  and  C_7
REMARK                            x       y       z     vdW  Elec       q    Type
REMARK                         _______ _______ _______ _____ _____    ______ ____
ROOT
ATOM      1  C   UNL     1     -10.053   6.095 130.017  0.00  0.00    +0.000 C 
ATOM      2  C   UNL     1     -10.663   4.855 130.660  0.00  0.00    +0.000 C 
ATOM      3  O   UNL     1     -11.452   4.115 130.070  0.00  0.00    +0.000 OA
ATOM      4  N   UNL     1     -10.338   4.587 131.952  0.00  0.00    +0.000 N 
ATOM      5  C   UNL     1      -9.336   5.165 132.665  0.00  0.00    +0.000 C 
ATOM      6  O   UNL     1      -9.005   4.741 133.760  0.00  0.00    +0.000 OA
ATOM      7  N   UNL     1      -8.703   6.217 132.084  0.00  0.00    +0.000 N 
ATOM      8  C   UNL     1      -8.916   6.705 130.830  0.00  0.00    +0.000 C 
ATOM      9  O   UNL     1      -8.200   7.610 130.399  0.00  0.00    +0.000 OA
ATOM     10  H   UNL     1     -10.769   3.770 132.360  0.00  0.00    +0.000 HD
ATOM     11  H   UNL     1      -7.933   6.619 132.600  0.00  0.00    +0.000 HD
ENDROOT
BRANCH   1  12
ATOM     12  C   UNL     1     -11.154   7.221 129.853  0.00  0.00    +0.000 C 
ATOM     13  C   UNL     1     -12.198   7.203 130.984  0.00  0.00    +0.000 C 
BRANCH  12  15
ATOM     14  C   UNL     1     -13.342   6.879 128.560  0.00  0.00    +0.000 C 
ATOM     15  C   UNL     1     -11.857   7.171 128.478  0.00  0.00    +0.000 C 
ENDBRANCH  12  15
ENDBRANCH   1  12
BRANCH   1  16
ATOM     16  C   UNL     1      -9.437   5.622 128.672  0.00  0.00    +0.000 C 
ATOM     17  C   UNL     1      -8.345   4.577 128.857  0.00  0.00    +0.000 C 
ENDBRANCH   1  16
TORSDOF 3
ENDMDL
MODEL 8
REMARK VINA RESULT:      -5.3      9.424     11.742
REMARK  Name = Butabarbital
REMARK  6 active torsions:
REMARK  status: ('A' for Active; 'I' for Inactive)
REMARK    1  A    between atoms: C_1  and  C_2
REMARK    2  A    between atoms: C_2  and  C_3
REMARK    3  A    between atoms: C_3  and  C_4
REMARK    4  A    between atoms: C_3  and  C_5
REMARK    5  A    between atoms: C_5  and  C_6
REMARK    6  A    between atoms: C_6  and  C_7
REMARK                            x       y       z     vdW  Elec       q    Type
REMARK                         _______ _______ _______ _____ _____    ______ ____
ROOT
ATOM      1  C   UNL     1      -7.635  -1.483 125.161  0.00  0.00    +0.000 C 
ATOM      2  C   UNL     1      -7.165  -1.544 126.609  0.00  0.00    +0.000 C 
ATOM      3  O   UNL     1      -6.342  -0.755 127.078  0.00  0.00    +0.000 OA
ATOM      4  N   UNL     1      -7.659  -2.538 127.393  0.00  0.00    +0.000 N 
ATOM      5  C   UNL     1      -8.714  -3.342 127.102  0.00  0.00    +0.000 C 
ATOM      6  O   UNL     1      -9.196  -4.090 127.937  0.00  0.00    +0.000 OA
ATOM      7  N   UNL     1      -9.223  -3.248 125.846  0.00  0.00    +0.000 N 
ATOM      8  C   UNL     1      -8.836  -2.378 124.873  0.00  0.00    +0.000 C 
ATOM      9  O   UNL     1      -9.452  -2.344 123.806  0.00  0.00    +0.000 OA
ATOM     10  H   UNL     1      -7.318  -2.567 128.344  0.00  0.00    +0.000 HD
ATOM     11  H   UNL     1     -10.033  -3.819 125.645  0.00  0.00    +0.000 HD
ENDROOT
BRANCH   1  12
ATOM     12  C   UNL     1      -6.474  -1.948 124.190  0.00  0.00    +0.000 C 
ATOM     13  C   UNL     1      -6.655  -1.427 122.753  0.00  0.00    +0.000 C 
BRANCH  12  15
ATOM     14  C   UNL     1      -4.867  -3.920 123.865  0.00  0.00    +0.000 C 
ATOM     15  C   UNL     1      -6.284  -3.481 124.181  0.00  0.00    +0.000 C 
ENDBRANCH  12  15
ENDBRANCH   1  12
BRANCH   1  16
ATOM     16  C   UNL     1      -8.101  -0.020 124.922  0.00  0.00    +0.000 C 
ATOM     17  C   UNL     1      -9.281   0.375 125.799  0.00  0.00    +0.000 C 
ENDBRANCH   1  16
TORSDOF 3
ENDMDL
MODEL 9
REMARK VINA RESULT:      -5.2      2.742      5.138
REMARK  Name = Butabarbital
REMARK  6 active torsions:
REMARK  status: ('A' for Active; 'I' for Inactive)
REMARK    1  A    between atoms: C_1  and  C_2
REMARK    2  A    between atoms: C_2  and  C_3
REMARK    3  A    between atoms: C_3  and  C_4
REMARK    4  A    between atoms: C_3  and  C_5
REMARK    5  A    between atoms: C_5  and  C_6
REMARK    6  A    between atoms: C_6  and  C_7
REMARK                            x       y       z     vdW  Elec       q    Type
REMARK                         _______ _______ _______ _____ _____    ______ ____
ROOT
ATOM      1  C   UNL     1      -9.348   5.987 130.800  0.00  0.00    +0.000 C 
ATOM      2  C   UNL     1      -9.983   6.178 132.172  0.00  0.00    +0.000 C 
ATOM      3  O   UNL     1      -9.339   6.129 133.221  0.00  0.00    +0.000 OA
ATOM      4  N   UNL     1     -11.328   6.375 132.224  0.00  0.00    +0.000 N 
ATOM      5  C   UNL     1     -12.138   6.666 131.174  0.00  0.00    +0.000 C 
ATOM      6  O   UNL     1     -13.301   6.997 131.337  0.00  0.00    +0.000 OA
ATOM      7  N   UNL     1     -11.581   6.598 129.936  0.00  0.00    +0.000 N 
ATOM      8  C   UNL     1     -10.275   6.344 129.644  0.00  0.00    +0.000 C 
ATOM      9  O   UNL     1      -9.890   6.406 128.475  0.00  0.00    +0.000 OA
ATOM     10  H   UNL     1     -11.727   6.481 133.146  0.00  0.00    +0.000 HD
ATOM     11  H   UNL     1     -12.177   6.853 129.161  0.00  0.00    +0.000 HD
ENDROOT
BRANCH   1  12
ATOM     12  C   UNL     1      -8.929   4.473 130.599  0.00  0.00    +0.000 C 
ATOM     13  C   UNL     1      -8.173   4.235 129.279  0.00  0.00    +0.000 C 
BRANCH  12  15
ATOM     14  C   UNL     1      -9.897   2.355 131.672  0.00  0.00    +0.000 C 
ATOM     15  C   UNL     1     -10.126   3.504 130.710  0.00  0.00    +0.000 C 
ENDBRANCH  12  15
ENDBRANCH   1  12
BRANCH   1  16
ATOM     16  C   UNL     1      -8.154   6.979 130.739  0.00  0.00    +0.000 C 
ATOM     17  C   UNL     1      -6.913   6.455 131.448  0.00  0.00    +0.000 C 
ENDBRANCH   1  16
TORSDOF 3
ENDMDL
