MODEL 1
REMARK VINA RESULT:      -7.0      0.000      0.000
REMARK  Name = Butenafine
REMARK  9 active torsions:
REMARK  status: ('A' for Active; 'I' for Inactive)
REMARK    1  A    between atoms: C_1  and  N_2
REMARK    2  A    between atoms: N_2  and  C_3
REMARK    3  A    between atoms: N_2  and  C_14
REMARK    4  A    between atoms: C_3  and  C_4
REMARK    5  A    between atoms: C_7  and  C_10
REMARK    6  A    between atoms: C_10  and  C_11
REMARK    7  A    between atoms: C_10  and  C_12
REMARK    8  A    between atoms: C_10  and  C_13
REMARK    9  A    between atoms: C_14  and  C_15
REMARK                            x       y       z     vdW  Elec       q    Type
REMARK                         _______ _______ _______ _____ _____    ______ ____
ROOT
ATOM      1  C   UNL     1      -7.172   2.135 123.144  0.00  0.00    +0.000 C 
ATOM      2  N   UNL     1      -7.208   1.118 124.201  0.00  0.00    +0.000 NA
ENDROOT
BRANCH   2   3
ATOM      3  C   UNL     1      -6.918   1.691 125.531  0.00  0.00    +0.000 C 
BRANCH   3   4
ATOM      4  C   UNL     1      -6.726   0.629 126.580  0.00  0.00    +0.000 A 
ATOM      5  C   UNL     1      -5.663  -0.262 126.474  0.00  0.00    +0.000 A 
ATOM      6  C   UNL     1      -5.569  -1.324 127.367  0.00  0.00    +0.000 A 
ATOM      7  C   UNL     1      -6.510  -1.485 128.405  0.00  0.00    +0.000 A 
ATOM      8  C   UNL     1      -7.552  -0.566 128.507  0.00  0.00    +0.000 A 
ATOM      9  C   UNL     1      -7.617   0.508 127.650  0.00  0.00    +0.000 A 
BRANCH   7  10
ATOM     10  C   UNL     1      -6.335  -2.575 129.456  0.00  0.00    +0.000 C 
ATOM     11  C   UNL     1      -7.443  -3.629 129.308  0.00  0.00    +0.000 C 
ATOM     12  C   UNL     1      -4.949  -3.214 129.240  0.00  0.00    +0.000 C 
ATOM     13  C   UNL     1      -6.378  -2.018 130.898  0.00  0.00    +0.000 C 
ENDBRANCH   7  10
ENDBRANCH   3   4
ENDBRANCH   2   3
BRANCH   2  14
ATOM     14  C   UNL     1      -8.483   0.415 124.191  0.00  0.00    +0.000 C 
BRANCH  14  15
ATOM     15  C   UNL     1      -8.390  -1.087 124.439  0.00  0.00    +0.000 A 
ATOM     16  C   UNL     1      -9.371  -1.557 125.350  0.00  0.00    +0.000 A 
ATOM     17  C   UNL     1      -9.310  -2.843 125.860  0.00  0.00    +0.000 A 
ATOM     18  C   UNL     1      -8.262  -3.655 125.477  0.00  0.00    +0.000 A 
ATOM     19  C   UNL     1      -7.271  -3.223 124.592  0.00  0.00    +0.000 A 
ATOM     20  C   UNL     1      -6.147  -4.020 124.424  0.00  0.00    +0.000 A 
ATOM     21  C   UNL     1      -5.018  -3.512 123.819  0.00  0.00    +0.000 A 
ATOM     22  C   UNL     1      -5.283  -2.707 122.741  0.00  0.00    +0.000 A 
ATOM     23  C   UNL     1      -6.315  -1.780 122.924  0.00  0.00    +0.000 A 
ATOM     24  C   UNL     1      -7.337  -1.961 123.943  0.00  0.00    +0.000 A 
ENDBRANCH  14  15
ENDBRANCH   2  14
TORSDOF 5
ENDMDL
MODEL 2
REMARK VINA RESULT:      -6.9      2.292      5.185
REMARK  Name = Butenafine
REMARK  9 active torsions:
REMARK  status: ('A' for Active; 'I' for Inactive)
REMARK    1  A    between atoms: C_1  and  N_2
REMARK    2  A    between atoms: N_2  and  C_3
REMARK    3  A    between atoms: N_2  and  C_14
REMARK    4  A    between atoms: C_3  and  C_4
REMARK    5  A    between atoms: C_7  and  C_10
REMARK    6  A    between atoms: C_10  and  C_11
REMARK    7  A    between atoms: C_10  and  C_12
REMARK    8  A    between atoms: C_10  and  C_13
REMARK    9  A    between atoms: C_14  and  C_15
REMARK                            x       y       z     vdW  Elec       q    Type
REMARK                         _______ _______ _______ _____ _____    ______ ____
ROOT
ATOM      1  C   UNL     1      -3.701   3.371 126.490  0.00  0.00    +0.000 C 
ATOM      2  N   UNL     1      -4.924   2.622 126.178  0.00  0.00    +0.000 NA
ENDROOT
BRANCH   2   3
ATOM      3  C   UNL     1      -5.166   1.531 127.143  0.00  0.00    +0.000 C 
BRANCH   3   4
ATOM      4  C   UNL     1      -5.986   0.418 126.551  0.00  0.00    +0.000 A 
ATOM      5  C   UNL     1      -5.610  -0.146 125.336  0.00  0.00    +0.000 A 
ATOM      6  C   UNL     1      -6.445  -1.077 124.727  0.00  0.00    +0.000 A 
ATOM      7  C   UNL     1      -7.643  -1.491 125.344  0.00  0.00    +0.000 A 
ATOM      8  C   UNL     1      -7.988  -0.932 126.572  0.00  0.00    +0.000 A 
ATOM      9  C   UNL     1      -7.138  -0.045 127.193  0.00  0.00    +0.000 A 
BRANCH   7  10
ATOM     10  C   UNL     1      -8.492  -2.602 124.735  0.00  0.00    +0.000 C 
ATOM     11  C   UNL     1      -9.107  -2.125 123.410  0.00  0.00    +0.000 C 
ATOM     12  C   UNL     1      -7.573  -3.816 124.499  0.00  0.00    +0.000 C 
ATOM     13  C   UNL     1      -9.637  -3.051 125.672  0.00  0.00    +0.000 C 
ENDBRANCH   7  10
ENDBRANCH   3   4
ENDBRANCH   2   3
BRANCH   2  14
ATOM     14  C   UNL     1      -6.066   3.521 126.094  0.00  0.00    +0.000 C 
BRANCH  14  15
ATOM     15  C   UNL     1      -6.857   3.432 124.792  0.00  0.00    +0.000 A 
ATOM     16  C   UNL     1      -8.130   2.827 124.961  0.00  0.00    +0.000 A 
ATOM     17  C   UNL     1      -8.897   2.468 123.866  0.00  0.00    +0.000 A 
ATOM     18  C   UNL     1      -8.389   2.693 122.602  0.00  0.00    +0.000 A 
ATOM     19  C   UNL     1      -7.136   3.275 122.397  0.00  0.00    +0.000 A 
ATOM     20  C   UNL     1      -6.613   3.275 121.111  0.00  0.00    +0.000 A 
ATOM     21  C   UNL     1      -5.278   3.546 120.902  0.00  0.00    +0.000 A 
ATOM     22  C   UNL     1      -4.789   4.556 121.690  0.00  0.00    +0.000 A 
ATOM     23  C   UNL     1      -5.172   4.507 123.035  0.00  0.00    +0.000 A 
ATOM     24  C   UNL     1      -6.350   3.773 123.471  0.00  0.00    +0.000 A 
ENDBRANCH  14  15
ENDBRANCH   2  14
TORSDOF 5
ENDMDL
MODEL 3
REMARK VINA RESULT:      -6.9      8.572     11.769
REMARK  Name = Butenafine
REMARK  9 active torsions:
REMARK  status: ('A' for Active; 'I' for Inactive)
REMARK    1  A    between atoms: C_1  and  N_2
REMARK    2  A    between atoms: N_2  and  C_3
REMARK    3  A    between atoms: N_2  and  C_14
REMARK    4  A    between atoms: C_3  and  C_4
REMARK    5  A    between atoms: C_7  and  C_10
REMARK    6  A    between atoms: C_10  and  C_11
REMARK    7  A    between atoms: C_10  and  C_12
REMARK    8  A    between atoms: C_10  and  C_13
REMARK    9  A    between atoms: C_14  and  C_15
REMARK                            x       y       z     vdW  Elec       q    Type
REMARK                         _______ _______ _______ _____ _____    ______ ____
ROOT
ATOM      1  C   UNL     1      -7.481   3.702 131.920  0.00  0.00    +0.000 C 
ATOM      2  N   UNL     1      -7.363   5.129 132.243  0.00  0.00    +0.000 NA
ENDROOT
BRANCH   2   3
ATOM      3  C   UNL     1      -8.579   5.651 132.899  0.00  0.00    +0.000 C 
BRANCH   3   4
ATOM      4  C   UNL     1      -9.514   6.311 131.923  0.00  0.00    +0.000 A 
ATOM      5  C   UNL     1     -10.885   6.291 132.159  0.00  0.00    +0.000 A 
ATOM      6  C   UNL     1     -11.753   6.781 131.189  0.00  0.00    +0.000 A 
ATOM      7  C   UNL     1     -11.262   7.338 129.990  0.00  0.00    +0.000 A 
ATOM      8  C   UNL     1      -9.885   7.370 129.786  0.00  0.00    +0.000 A 
ATOM      9  C   UNL     1      -9.027   6.927 130.766  0.00  0.00    +0.000 A 
BRANCH   7  10
ATOM     10  C   UNL     1     -12.208   7.986 128.985  0.00  0.00    +0.000 C 
ATOM     11  C   UNL     1     -12.815   9.263 129.586  0.00  0.00    +0.000 C 
ATOM     12  C   UNL     1     -11.390   8.319 127.722  0.00  0.00    +0.000 C 
ATOM     13  C   UNL     1     -13.361   7.045 128.566  0.00  0.00    +0.000 C 
ENDBRANCH   7  10
ENDBRANCH   3   4
ENDBRANCH   2   3
BRANCH   2  14
ATOM     14  C   UNL     1      -6.176   5.374 133.050  0.00  0.00    +0.000 C 
BRANCH  14  15
ATOM     15  C   UNL     1      -5.183   6.362 132.446  0.00  0.00    +0.000 A 
ATOM     16  C   UNL     1      -5.586   6.838 131.171  0.00  0.00    +0.000 A 
ATOM     17  C   UNL     1      -4.718   7.571 130.379  0.00  0.00    +0.000 A 
ATOM     18  C   UNL     1      -3.442   7.813 130.848  0.00  0.00    +0.000 A 
ATOM     19  C   UNL     1      -3.007   7.350 132.092  0.00  0.00    +0.000 A 
ATOM     20  C   UNL     1      -1.657   7.455 132.396  0.00  0.00    +0.000 A 
ATOM     21  C   UNL     1      -1.125   6.749 133.454  0.00  0.00    +0.000 A 
ATOM     22  C   UNL     1      -1.933   6.718 134.561  0.00  0.00    +0.000 A 
ATOM     23  C   UNL     1      -3.286   6.463 134.309  0.00  0.00    +0.000 A 
ATOM     24  C   UNL     1      -3.880   6.696 133.002  0.00  0.00    +0.000 A 
ENDBRANCH  14  15
ENDBRANCH   2  14
TORSDOF 5
ENDMDL
MODEL 4
REMARK VINA RESULT:      -6.8      6.492      8.655
REMARK  Name = Butenafine
REMARK  9 active torsions:
REMARK  status: ('A' for Active; 'I' for Inactive)
REMARK    1  A    between atoms: C_1  and  N_2
REMARK    2  A    between atoms: N_2  and  C_3
REMARK    3  A    between atoms: N_2  and  C_14
REMARK    4  A    between atoms: C_3  and  C_4
REMARK    5  A    between atoms: C_7  and  C_10
REMARK    6  A    between atoms: C_10  and  C_11
REMARK    7  A    between atoms: C_10  and  C_12
REMARK    8  A    between atoms: C_10  and  C_13
REMARK    9  A    between atoms: C_14  and  C_15
REMARK                            x       y       z     vdW  Elec       q    Type
REMARK                         _______ _______ _______ _____ _____    ______ ____
ROOT
ATOM      1  C   UNL     1     -11.829   6.524 130.046  0.00  0.00    +0.000 C 
ATOM      2  N   UNL     1     -10.717   5.696 130.530  0.00  0.00    +0.000 NA
ENDROOT
BRANCH   2   3
ATOM      3  C   UNL     1     -10.316   6.057 131.905  0.00  0.00    +0.000 C 
BRANCH   3   4
ATOM      4  C   UNL     1      -8.823   6.155 132.056  0.00  0.00    +0.000 A 
ATOM      5  C   UNL     1      -8.079   6.863 131.118  0.00  0.00    +0.000 A 
ATOM      6  C   UNL     1      -6.690   6.836 131.185  0.00  0.00    +0.000 A 
ATOM      7  C   UNL     1      -6.026   6.139 132.215  0.00  0.00    +0.000 A 
ATOM      8  C   UNL     1      -6.792   5.457 133.158  0.00  0.00    +0.000 A 
ATOM      9  C   UNL     1      -8.165   5.523 133.116  0.00  0.00    +0.000 A 
BRANCH   7  10
ATOM     10  C   UNL     1      -4.510   6.213 132.358  0.00  0.00    +0.000 C 
ATOM     11  C   UNL     1      -3.948   7.296 131.425  0.00  0.00    +0.000 C 
ATOM     12  C   UNL     1      -4.197   6.552 133.829  0.00  0.00    +0.000 C 
ATOM     13  C   UNL     1      -3.818   4.871 132.025  0.00  0.00    +0.000 C 
ENDBRANCH   7  10
ENDBRANCH   3   4
ENDBRANCH   2   3
BRANCH   2  14
ATOM     14  C   UNL     1     -11.048   4.283 130.426  0.00  0.00    +0.000 C 
BRANCH  14  15
ATOM     15  C   UNL     1      -9.873   3.332 130.628  0.00  0.00    +0.000 A 
ATOM     16  C   UNL     1     -10.059   2.452 131.726  0.00  0.00    +0.000 A 
ATOM     17  C   UNL     1      -9.017   1.669 132.193  0.00  0.00    +0.000 A 
ATOM     18  C   UNL     1      -7.785   1.775 131.579  0.00  0.00    +0.000 A 
ATOM     19  C   UNL     1      -7.562   2.638 130.503  0.00  0.00    +0.000 A 
ATOM     20  C   UNL     1      -6.255   2.838 130.082  0.00  0.00    +0.000 A 
ATOM     21  C   UNL     1      -5.946   3.893 129.250  0.00  0.00    +0.000 A 
ATOM     22  C   UNL     1      -6.876   4.114 128.267  0.00  0.00    +0.000 A 
ATOM     23  C   UNL     1      -8.212   4.069 128.684  0.00  0.00    +0.000 A 
ATOM     24  C   UNL     1      -8.613   3.380 129.901  0.00  0.00    +0.000 A 
ENDBRANCH  14  15
ENDBRANCH   2  14
TORSDOF 5
ENDMDL
MODEL 5
REMARK VINA RESULT:      -6.7      7.609     10.578
REMARK  Name = Butenafine
REMARK  9 active torsions:
REMARK  status: ('A' for Active; 'I' for Inactive)
REMARK    1  A    between atoms: C_1  and  N_2
REMARK    2  A    between atoms: N_2  and  C_3
REMARK    3  A    between atoms: N_2  and  C_14
REMARK    4  A    between atoms: C_3  and  C_4
REMARK    5  A    between atoms: C_7  and  C_10
REMARK    6  A    between atoms: C_10  and  C_11
REMARK    7  A    between atoms: C_10  and  C_12
REMARK    8  A    between atoms: C_10  and  C_13
REMARK    9  A    between atoms: C_14  and  C_15
REMARK                            x       y       z     vdW  Elec       q    Type
REMARK                         _______ _______ _______ _____ _____    ______ ____
ROOT
ATOM      1  C   UNL     1      -7.621   3.651 131.214  0.00  0.00    +0.000 C 
ATOM      2  N   UNL     1      -7.001   4.901 131.671  0.00  0.00    +0.000 NA
ENDROOT
BRANCH   2   3
ATOM      3  C   UNL     1      -7.924   5.709 132.492  0.00  0.00    +0.000 C 
BRANCH   3   4
ATOM      4  C   UNL     1      -9.027   6.322 131.673  0.00  0.00    +0.000 A 
ATOM      5  C   UNL     1     -10.355   6.071 132.005  0.00  0.00    +0.000 A 
ATOM      6  C   UNL     1     -11.367   6.527 131.166  0.00  0.00    +0.000 A 
ATOM      7  C   UNL     1     -11.070   7.276 130.010  0.00  0.00    +0.000 A 
ATOM      8  C   UNL     1      -9.734   7.537 129.710  0.00  0.00    +0.000 A 
ATOM      9  C   UNL     1      -8.738   7.124 130.565  0.00  0.00    +0.000 A 
BRANCH   7  10
ATOM     10  C   UNL     1     -12.184   7.879 129.161  0.00  0.00    +0.000 C 
ATOM     11  C   UNL     1     -13.300   6.845 128.951  0.00  0.00    +0.000 C 
ATOM     12  C   UNL     1     -12.724   9.113 129.910  0.00  0.00    +0.000 C 
ATOM     13  C   UNL     1     -11.683   8.349 127.776  0.00  0.00    +0.000 C 
ENDBRANCH   7  10
ENDBRANCH   3   4
ENDBRANCH   2   3
BRANCH   2  14
ATOM     14  C   UNL     1      -5.759   4.627 132.380  0.00  0.00    +0.000 C 
BRANCH  14  15
ATOM     15  C   UNL     1      -4.539   5.373 131.849  0.00  0.00    +0.000 A 
ATOM     16  C   UNL     1      -4.277   6.574 132.557  0.00  0.00    +0.000 A 
ATOM     17  C   UNL     1      -3.347   7.487 132.089  0.00  0.00    +0.000 A 
ATOM     18  C   UNL     1      -2.693   7.213 130.904  0.00  0.00    +0.000 A 
ATOM     19  C   UNL     1      -2.934   6.047 130.174  0.00  0.00    +0.000 A 
ATOM     20  C   UNL     1      -2.395   5.948 128.899  0.00  0.00    +0.000 A 
ATOM     21  C   UNL     1      -2.845   4.981 128.026  0.00  0.00    +0.000 A 
ATOM     22  C   UNL     1      -3.075   3.765 128.618  0.00  0.00    +0.000 A 
ATOM     23  C   UNL     1      -3.755   3.813 129.841  0.00  0.00    +0.000 A 
ATOM     24  C   UNL     1      -3.785   5.017 130.655  0.00  0.00    +0.000 A 
ENDBRANCH  14  15
ENDBRANCH   2  14
TORSDOF 5
ENDMDL
MODEL 6
REMARK VINA RESULT:      -6.6      7.484     10.591
REMARK  Name = Butenafine
REMARK  9 active torsions:
REMARK  status: ('A' for Active; 'I' for Inactive)
REMARK    1  A    between atoms: C_1  and  N_2
REMARK    2  A    between atoms: N_2  and  C_3
REMARK    3  A    between atoms: N_2  and  C_14
REMARK    4  A    between atoms: C_3  and  C_4
REMARK    5  A    between atoms: C_7  and  C_10
REMARK    6  A    between atoms: C_10  and  C_11
REMARK    7  A    between atoms: C_10  and  C_12
REMARK    8  A    between atoms: C_10  and  C_13
REMARK    9  A    between atoms: C_14  and  C_15
REMARK                            x       y       z     vdW  Elec       q    Type
REMARK                         _______ _______ _______ _____ _____    ______ ____
ROOT
ATOM      1  C   UNL     1      -8.620   3.163 133.393  0.00  0.00    +0.000 C 
ATOM      2  N   UNL     1      -8.063   4.181 132.494  0.00  0.00    +0.000 NA
ENDROOT
BRANCH   2   3
ATOM      3  C   UNL     1      -8.418   5.550 132.919  0.00  0.00    +0.000 C 
BRANCH   3   4
ATOM      4  C   UNL     1      -9.351   6.223 131.949  0.00  0.00    +0.000 A 
ATOM      5  C   UNL     1     -10.725   6.168 132.162  0.00  0.00    +0.000 A 
ATOM      6  C   UNL     1     -11.586   6.673 131.193  0.00  0.00    +0.000 A 
ATOM      7  C   UNL     1     -11.088   7.278 130.022  0.00  0.00    +0.000 A 
ATOM      8  C   UNL     1      -9.709   7.346 129.843  0.00  0.00    +0.000 A 
ATOM      9  C   UNL     1      -8.858   6.887 130.822  0.00  0.00    +0.000 A 
BRANCH   7  10
ATOM     10  C   UNL     1     -12.031   7.941 129.023  0.00  0.00    +0.000 C 
ATOM     11  C   UNL     1     -11.244   8.400 127.786  0.00  0.00    +0.000 C 
ATOM     12  C   UNL     1     -13.099   6.902 128.630  0.00  0.00    +0.000 C 
ATOM     13  C   UNL     1     -12.761   9.166 129.622  0.00  0.00    +0.000 C 
ENDBRANCH   7  10
ENDBRANCH   3   4
ENDBRANCH   2   3
BRANCH   2  14
ATOM     14  C   UNL     1      -6.621   4.019 132.369  0.00  0.00    +0.000 C 
BRANCH  14  15
ATOM     15  C   UNL     1      -6.016   4.615 131.102  0.00  0.00    +0.000 A 
ATOM     16  C   UNL     1      -6.401   3.918 129.928  0.00  0.00    +0.000 A 
ATOM     17  C   UNL     1      -5.788   4.178 128.714  0.00  0.00    +0.000 A 
ATOM     18  C   UNL     1      -4.777   5.117 128.673  0.00  0.00    +0.000 A 
ATOM     19  C   UNL     1      -4.363   5.814 129.811  0.00  0.00    +0.000 A 
ATOM     20  C   UNL     1      -3.209   6.581 129.728  0.00  0.00    +0.000 A 
ATOM     21  C   UNL     1      -2.589   7.032 130.873  0.00  0.00    +0.000 A 
ATOM     22  C   UNL     1      -3.460   7.458 131.843  0.00  0.00    +0.000 A 
ATOM     23  C   UNL     1      -4.565   6.628 132.064  0.00  0.00    +0.000 A 
ATOM     24  C   UNL     1      -5.027   5.683 131.060  0.00  0.00    +0.000 A 
ENDBRANCH  14  15
ENDBRANCH   2  14
TORSDOF 5
ENDMDL
MODEL 7
REMARK VINA RESULT:      -6.5      6.003      9.091
REMARK  Name = Butenafine
REMARK  9 active torsions:
REMARK  status: ('A' for Active; 'I' for Inactive)
REMARK    1  A    between atoms: C_1  and  N_2
REMARK    2  A    between atoms: N_2  and  C_3
REMARK    3  A    between atoms: N_2  and  C_14
REMARK    4  A    between atoms: C_3  and  C_4
REMARK    5  A    between atoms: C_7  and  C_10
REMARK    6  A    between atoms: C_10  and  C_11
REMARK    7  A    between atoms: C_10  and  C_12
REMARK    8  A    between atoms: C_10  and  C_13
REMARK    9  A    between atoms: C_14  and  C_15
REMARK                            x       y       z     vdW  Elec       q    Type
REMARK                         _______ _______ _______ _____ _____    ______ ____
ROOT
ATOM      1  C   UNL     1     -11.918   6.540 131.549  0.00  0.00    +0.000 C 
ATOM      2  N   UNL     1     -10.636   5.892 131.247  0.00  0.00    +0.000 NA
ENDROOT
BRANCH   2   3
ATOM      3  C   UNL     1     -10.744   4.957 130.109  0.00  0.00    +0.000 C 
BRANCH   3   4
ATOM      4  C   UNL     1      -9.943   3.701 130.325  0.00  0.00    +0.000 A 
ATOM      5  C   UNL     1     -10.372   2.762 131.258  0.00  0.00    +0.000 A 
ATOM      6  C   UNL     1      -9.560   1.672 131.552  0.00  0.00    +0.000 A 
ATOM      7  C   UNL     1      -8.332   1.481 130.888  0.00  0.00    +0.000 A 
ATOM      8  C   UNL     1      -7.934   2.421 129.940  0.00  0.00    +0.000 A 
ATOM      9  C   UNL     1      -8.759   3.473 129.618  0.00  0.00    +0.000 A 
BRANCH   7  10
ATOM     10  C   UNL     1      -7.504   0.222 131.122  0.00  0.00    +0.000 C 
ATOM     11  C   UNL     1      -6.028   0.596 131.325  0.00  0.00    +0.000 C 
ATOM     12  C   UNL     1      -8.062  -0.477 132.377  0.00  0.00    +0.000 C 
ATOM     13  C   UNL     1      -7.600  -0.776 129.945  0.00  0.00    +0.000 C 
ENDBRANCH   7  10
ENDBRANCH   3   4
ENDBRANCH   2   3
BRANCH   2  14
ATOM     14  C   UNL     1      -9.599   6.888 131.022  0.00  0.00    +0.000 C 
BRANCH  14  15
ATOM     15  C   UNL     1      -8.224   6.517 131.566  0.00  0.00    +0.000 A 
ATOM     16  C   UNL     1      -7.162   7.094 130.821  0.00  0.00    +0.000 A 
ATOM     17  C   UNL     1      -5.851   6.702 131.031  0.00  0.00    +0.000 A 
ATOM     18  C   UNL     1      -5.598   5.722 131.970  0.00  0.00    +0.000 A 
ATOM     19  C   UNL     1      -6.618   5.124 132.714  0.00  0.00    +0.000 A 
ATOM     20  C   UNL     1      -6.305   4.009 133.480  0.00  0.00    +0.000 A 
ATOM     21  C   UNL     1      -7.307   3.204 133.978  0.00  0.00    +0.000 A 
ATOM     22  C   UNL     1      -8.395   3.898 134.442  0.00  0.00    +0.000 A 
ATOM     23  C   UNL     1      -8.838   4.940 133.619  0.00  0.00    +0.000 A 
ATOM     24  C   UNL     1      -7.967   5.560 132.633  0.00  0.00    +0.000 A 
ENDBRANCH  14  15
ENDBRANCH   2  14
TORSDOF 5
ENDMDL
MODEL 8
REMARK VINA RESULT:      -6.5      7.155      9.805
REMARK  Name = Butenafine
REMARK  9 active torsions:
REMARK  status: ('A' for Active; 'I' for Inactive)
REMARK    1  A    between atoms: C_1  and  N_2
REMARK    2  A    between atoms: N_2  and  C_3
REMARK    3  A    between atoms: N_2  and  C_14
REMARK    4  A    between atoms: C_3  and  C_4
REMARK    5  A    between atoms: C_7  and  C_10
REMARK    6  A    between atoms: C_10  and  C_11
REMARK    7  A    between atoms: C_10  and  C_12
REMARK    8  A    between atoms: C_10  and  C_13
REMARK    9  A    between atoms: C_14  and  C_15
REMARK                            x       y       z     vdW  Elec       q    Type
REMARK                         _______ _______ _______ _____ _____    ______ ____
ROOT
ATOM      1  C   UNL     1      -2.043   5.864 133.998  0.00  0.00    +0.000 C 
ATOM      2  N   UNL     1      -2.759   5.820 132.718  0.00  0.00    +0.000 NA
ENDROOT
BRANCH   2   3
ATOM      3  C   UNL     1      -3.562   7.038 132.490  0.00  0.00    +0.000 C 
BRANCH   3   4
ATOM      4  C   UNL     1      -4.989   6.721 132.132  0.00  0.00    +0.000 A 
ATOM      5  C   UNL     1      -5.556   7.286 130.995  0.00  0.00    +0.000 A 
ATOM      6  C   UNL     1      -6.912   7.100 130.743  0.00  0.00    +0.000 A 
ATOM      7  C   UNL     1      -7.708   6.312 131.598  0.00  0.00    +0.000 A 
ATOM      8  C   UNL     1      -7.112   5.735 132.718  0.00  0.00    +0.000 A 
ATOM      9  C   UNL     1      -5.763   5.883 132.940  0.00  0.00    +0.000 A 
BRANCH   7  10
ATOM     10  C   UNL     1      -9.162   6.008 131.253  0.00  0.00    +0.000 C 
ATOM     11  C   UNL     1     -10.012   5.995 132.533  0.00  0.00    +0.000 C 
ATOM     12  C   UNL     1      -9.652   7.105 130.289  0.00  0.00    +0.000 C 
ATOM     13  C   UNL     1      -9.327   4.645 130.541  0.00  0.00    +0.000 C 
ENDBRANCH   7  10
ENDBRANCH   3   4
ENDBRANCH   2   3
BRANCH   2  14
ATOM     14  C   UNL     1      -1.831   5.581 131.621  0.00  0.00    +0.000 C 
BRANCH  14  15
ATOM     15  C   UNL     1      -2.483   5.429 130.251  0.00  0.00    +0.000 A 
ATOM     16  C   UNL     1      -2.030   6.394 129.315  0.00  0.00    +0.000 A 
ATOM     17  C   UNL     1      -2.660   6.548 128.091  0.00  0.00    +0.000 A 
ATOM     18  C   UNL     1      -3.754   5.754 127.808  0.00  0.00    +0.000 A 
ATOM     19  C   UNL     1      -4.235   4.802 128.709  0.00  0.00    +0.000 A 
ATOM     20  C   UNL     1      -5.454   4.197 128.437  0.00  0.00    +0.000 A 
ATOM     21  C   UNL     1      -6.118   3.496 129.420  0.00  0.00    +0.000 A 
ATOM     22  C   UNL     1      -5.295   2.734 130.209  0.00  0.00    +0.000 A 
ATOM     23  C   UNL     1      -4.118   3.364 130.633  0.00  0.00    +0.000 A 
ATOM     24  C   UNL     1      -3.567   4.511 129.928  0.00  0.00    +0.000 A 
ENDBRANCH  14  15
ENDBRANCH   2  14
TORSDOF 5
ENDMDL
MODEL 9
REMARK VINA RESULT:      -6.5      2.805      6.663
REMARK  Name = Butenafine
REMARK  9 active torsions:
REMARK  status: ('A' for Active; 'I' for Inactive)
REMARK    1  A    between atoms: C_1  and  N_2
REMARK    2  A    between atoms: N_2  and  C_3
REMARK    3  A    between atoms: N_2  and  C_14
REMARK    4  A    between atoms: C_3  and  C_4
REMARK    5  A    between atoms: C_7  and  C_10
REMARK    6  A    between atoms: C_10  and  C_11
REMARK    7  A    between atoms: C_10  and  C_12
REMARK    8  A    between atoms: C_10  and  C_13
REMARK    9  A    between atoms: C_14  and  C_15
REMARK                            x       y       z     vdW  Elec       q    Type
REMARK                         _______ _______ _______ _____ _____    ______ ____
ROOT
ATOM      1  C   UNL     1      -3.925  -3.161 133.094  0.00  0.00    +0.000 C 
ATOM      2  N   UNL     1      -4.994  -2.628 132.241  0.00  0.00    +0.000 NA
ENDROOT
BRANCH   2   3
ATOM      3  C   UNL     1      -5.785  -3.702 131.608  0.00  0.00    +0.000 C 
BRANCH   3   4
ATOM      4  C   UNL     1      -6.296  -3.307 130.248  0.00  0.00    +0.000 A 
ATOM      5  C   UNL     1      -5.402  -2.868 129.277  0.00  0.00    +0.000 A 
ATOM      6  C   UNL     1      -5.891  -2.377 128.071  0.00  0.00    +0.000 A 
ATOM      7  C   UNL     1      -7.274  -2.358 127.802  0.00  0.00    +0.000 A 
ATOM      8  C   UNL     1      -8.149  -2.826 128.779  0.00  0.00    +0.000 A 
ATOM      9  C   UNL     1      -7.661  -3.353 129.952  0.00  0.00    +0.000 A 
BRANCH   7  10
ATOM     10  C   UNL     1      -7.799  -1.935 126.434  0.00  0.00    +0.000 C 
ATOM     11  C   UNL     1      -6.676  -2.030 125.390  0.00  0.00    +0.000 C 
ATOM     12  C   UNL     1      -8.959  -2.881 126.067  0.00  0.00    +0.000 C 
ATOM     13  C   UNL     1      -8.349  -0.490 126.432  0.00  0.00    +0.000 C 
ENDBRANCH   7  10
ENDBRANCH   3   4
ENDBRANCH   2   3
BRANCH   2  14
ATOM     14  C   UNL     1      -5.842  -1.715 132.995  0.00  0.00    +0.000 C 
BRANCH  14  15
ATOM     15  C   UNL     1      -6.596  -0.694 132.149  0.00  0.00    +0.000 A 
ATOM     16  C   UNL     1      -8.000  -0.738 132.353  0.00  0.00    +0.000 A 
ATOM     17  C   UNL     1      -8.861  -0.039 131.524  0.00  0.00    +0.000 A 
ATOM     18  C   UNL     1      -8.326   0.687 130.479  0.00  0.00    +0.000 A 
ATOM     19  C   UNL     1      -6.951   0.745 130.240  0.00  0.00    +0.000 A 
ATOM     20  C   UNL     1      -6.514   1.321 129.056  0.00  0.00    +0.000 A 
ATOM     21  C   UNL     1      -5.218   1.131 128.627  0.00  0.00    +0.000 A 
ATOM     22  C   UNL     1      -4.288   1.181 129.634  0.00  0.00    +0.000 A 
ATOM     23  C   UNL     1      -4.627   0.481 130.798  0.00  0.00    +0.000 A 
ATOM     24  C   UNL     1      -6.007   0.150 131.119  0.00  0.00    +0.000 A 
ENDBRANCH  14  15
ENDBRANCH   2  14
TORSDOF 5
ENDMDL
