MODEL 1
REMARK VINA RESULT:      -6.1      0.000      0.000
REMARK  Name = Butobarbital
REMARK  6 active torsions:
REMARK  status: ('A' for Active; 'I' for Inactive)
REMARK    1  A    between atoms: C_1  and  C_2
REMARK    2  A    between atoms: C_2  and  C_3
REMARK    3  A    between atoms: C_3  and  C_4
REMARK    4  A    between atoms: C_4  and  C_5
REMARK    5  A    between atoms: C_5  and  C_6
REMARK    6  A    between atoms: C_6  and  C_7
REMARK                            x       y       z     vdW  Elec       q    Type
REMARK                         _______ _______ _______ _____ _____    ______ ____
ROOT
ATOM      1  C   UNL     1     -12.473   8.246 129.510  0.00  0.00    +0.000 C 
ATOM      2  C   UNL     1     -12.512   7.385 130.763  0.00  0.00    +0.000 C 
ATOM      3  O   UNL     1     -13.534   7.224 131.432  0.00  0.00    +0.000 OA
ATOM      4  N   UNL     1     -11.351   6.793 131.157  0.00  0.00    +0.000 N 
ATOM      5  C   UNL     1     -10.168   6.799 130.489  0.00  0.00    +0.000 C 
ATOM      6  O   UNL     1      -9.209   6.146 130.876  0.00  0.00    +0.000 OA
ATOM      7  N   UNL     1     -10.109   7.545 129.358  0.00  0.00    +0.000 N 
ATOM      8  C   UNL     1     -11.141   8.202 128.768  0.00  0.00    +0.000 C 
ATOM      9  O   UNL     1     -10.976   8.710 127.657  0.00  0.00    +0.000 OA
ATOM     10  H   UNL     1     -11.395   6.224 131.990  0.00  0.00    +0.000 HD
ATOM     11  H   UNL     1      -9.249   7.502 128.830  0.00  0.00    +0.000 HD
ENDROOT
BRANCH   1  12
ATOM     12  C   UNL     1     -13.524   7.726 128.503  0.00  0.00    +0.000 C 
ATOM     13  C   UNL     1     -13.251   6.280 128.097  0.00  0.00    +0.000 C 
ENDBRANCH   1  12
BRANCH   1  14
ATOM     14  C   UNL     1     -12.849   9.685 129.963  0.00  0.00    +0.000 C 
BRANCH  14  15
ATOM     15  C   UNL     1     -13.797  10.387 129.001  0.00  0.00    +0.000 C 
BRANCH  15  17
ATOM     16  C   UNL     1     -13.515  12.146 130.711  0.00  0.00    +0.000 C 
ATOM     17  C   UNL     1     -13.870  11.879 129.261  0.00  0.00    +0.000 C 
ENDBRANCH  15  17
ENDBRANCH  14  15
ENDBRANCH   1  14
TORSDOF 4
ENDMDL
MODEL 2
REMARK VINA RESULT:      -5.8      3.139      4.713
REMARK  Name = Butobarbital
REMARK  6 active torsions:
REMARK  status: ('A' for Active; 'I' for Inactive)
REMARK    1  A    between atoms: C_1  and  C_2
REMARK    2  A    between atoms: C_2  and  C_3
REMARK    3  A    between atoms: C_3  and  C_4
REMARK    4  A    between atoms: C_4  and  C_5
REMARK    5  A    between atoms: C_5  and  C_6
REMARK    6  A    between atoms: C_6  and  C_7
REMARK                            x       y       z     vdW  Elec       q    Type
REMARK                         _______ _______ _______ _____ _____    ______ ____
ROOT
ATOM      1  C   UNL     1      -9.841   6.165 130.329  0.00  0.00    +0.000 C 
ATOM      2  C   UNL     1      -9.293   5.033 129.475  0.00  0.00    +0.000 C 
ATOM      3  O   UNL     1      -8.809   5.214 128.357  0.00  0.00    +0.000 OA
ATOM      4  N   UNL     1      -9.372   3.769 129.977  0.00  0.00    +0.000 N 
ATOM      5  C   UNL     1      -9.794   3.413 131.217  0.00  0.00    +0.000 C 
ATOM      6  O   UNL     1      -9.727   2.257 131.611  0.00  0.00    +0.000 OA
ATOM      7  N   UNL     1     -10.272   4.405 132.009  0.00  0.00    +0.000 N 
ATOM      8  C   UNL     1     -10.274   5.734 131.728  0.00  0.00    +0.000 C 
ATOM      9  O   UNL     1     -10.595   6.536 132.607  0.00  0.00    +0.000 OA
ATOM     10  H   UNL     1      -9.003   3.030 129.396  0.00  0.00    +0.000 HD
ATOM     11  H   UNL     1     -10.530   4.150 132.952  0.00  0.00    +0.000 HD
ENDROOT
BRANCH   1  12
ATOM     12  C   UNL     1      -8.732   7.220 130.548  0.00  0.00    +0.000 C 
ATOM     13  C   UNL     1      -7.505   6.617 131.230  0.00  0.00    +0.000 C 
ENDBRANCH   1  12
BRANCH   1  14
ATOM     14  C   UNL     1     -11.009   6.794 129.519  0.00  0.00    +0.000 C 
BRANCH  14  15
ATOM     15  C   UNL     1     -10.657   8.145 128.912  0.00  0.00    +0.000 C 
BRANCH  15  17
ATOM     16  C   UNL     1     -11.992   7.282 127.023  0.00  0.00    +0.000 C 
ATOM     17  C   UNL     1     -10.807   8.148 127.404  0.00  0.00    +0.000 C 
ENDBRANCH  15  17
ENDBRANCH  14  15
ENDBRANCH   1  14
TORSDOF 4
ENDMDL
MODEL 3
REMARK VINA RESULT:      -5.7     10.879     13.237
REMARK  Name = Butobarbital
REMARK  6 active torsions:
REMARK  status: ('A' for Active; 'I' for Inactive)
REMARK    1  A    between atoms: C_1  and  C_2
REMARK    2  A    between atoms: C_2  and  C_3
REMARK    3  A    between atoms: C_3  and  C_4
REMARK    4  A    between atoms: C_4  and  C_5
REMARK    5  A    between atoms: C_5  and  C_6
REMARK    6  A    between atoms: C_6  and  C_7
REMARK                            x       y       z     vdW  Elec       q    Type
REMARK                         _______ _______ _______ _____ _____    ______ ____
ROOT
ATOM      1  C   UNL     1      -7.651  -1.995 124.639  0.00  0.00    +0.000 C 
ATOM      2  C   UNL     1      -7.798  -1.124 123.401  0.00  0.00    +0.000 C 
ATOM      3  O   UNL     1      -7.258  -1.393 122.327  0.00  0.00    +0.000 OA
ATOM      4  N   UNL     1      -8.544   0.010 123.514  0.00  0.00    +0.000 N 
ATOM      5  C   UNL     1      -9.270   0.401 124.593  0.00  0.00    +0.000 C 
ATOM      6  O   UNL     1      -9.994   1.386 124.557  0.00  0.00    +0.000 OA
ATOM      7  N   UNL     1      -9.172  -0.367 125.707  0.00  0.00    +0.000 N 
ATOM      8  C   UNL     1      -8.506  -1.546 125.820  0.00  0.00    +0.000 C 
ATOM      9  O   UNL     1      -8.635  -2.214 126.847  0.00  0.00    +0.000 OA
ATOM     10  H   UNL     1      -8.632   0.576 122.682  0.00  0.00    +0.000 HD
ATOM     11  H   UNL     1      -9.758  -0.111 126.488  0.00  0.00    +0.000 HD
ENDROOT
BRANCH   1  12
ATOM     12  C   UNL     1      -8.124  -3.430 124.310  0.00  0.00    +0.000 C 
ATOM     13  C   UNL     1      -9.513  -3.435 123.675  0.00  0.00    +0.000 C 
ENDBRANCH   1  12
BRANCH   1  14
ATOM     14  C   UNL     1      -6.135  -2.010 124.981  0.00  0.00    +0.000 C 
BRANCH  14  15
ATOM     15  C   UNL     1      -5.495  -3.380 124.811  0.00  0.00    +0.000 C 
BRANCH  15  17
ATOM     16  C   UNL     1      -4.175  -4.888 123.368  0.00  0.00    +0.000 C 
ATOM     17  C   UNL     1      -4.630  -3.455 123.569  0.00  0.00    +0.000 C 
ENDBRANCH  15  17
ENDBRANCH  14  15
ENDBRANCH   1  14
TORSDOF 4
ENDMDL
MODEL 4
REMARK VINA RESULT:      -5.6      3.276      5.972
REMARK  Name = Butobarbital
REMARK  6 active torsions:
REMARK  status: ('A' for Active; 'I' for Inactive)
REMARK    1  A    between atoms: C_1  and  C_2
REMARK    2  A    between atoms: C_2  and  C_3
REMARK    3  A    between atoms: C_3  and  C_4
REMARK    4  A    between atoms: C_4  and  C_5
REMARK    5  A    between atoms: C_5  and  C_6
REMARK    6  A    between atoms: C_6  and  C_7
REMARK                            x       y       z     vdW  Elec       q    Type
REMARK                         _______ _______ _______ _____ _____    ______ ____
ROOT
ATOM      1  C   UNL     1      -9.206   5.872 131.050  0.00  0.00    +0.000 C 
ATOM      2  C   UNL     1      -9.938   6.170 132.349  0.00  0.00    +0.000 C 
ATOM      3  O   UNL     1      -9.378   6.174 133.446  0.00  0.00    +0.000 OA
ATOM      4  N   UNL     1     -11.275   6.418 132.277  0.00  0.00    +0.000 N 
ATOM      5  C   UNL     1     -12.020   6.536 131.147  0.00  0.00    +0.000 C 
ATOM      6  O   UNL     1     -13.197   6.865 131.185  0.00  0.00    +0.000 OA
ATOM      7  N   UNL     1     -11.389   6.293 129.971  0.00  0.00    +0.000 N 
ATOM      8  C   UNL     1     -10.064   6.047 129.800  0.00  0.00    +0.000 C 
ATOM      9  O   UNL     1      -9.602   6.002 128.658  0.00  0.00    +0.000 OA
ATOM     10  H   UNL     1     -11.745   6.614 133.149  0.00  0.00    +0.000 HD
ATOM     11  H   UNL     1     -11.926   6.438 129.128  0.00  0.00    +0.000 HD
ENDROOT
BRANCH   1  12
ATOM     12  C   UNL     1      -8.033   6.866 130.888  0.00  0.00    +0.000 C 
ATOM     13  C   UNL     1      -6.695   6.225 131.245  0.00  0.00    +0.000 C 
ENDBRANCH   1  12
BRANCH   1  14
ATOM     14  C   UNL     1      -8.652   4.426 131.187  0.00  0.00    +0.000 C 
BRANCH  14  15
ATOM     15  C   UNL     1      -9.724   3.356 131.034  0.00  0.00    +0.000 C 
BRANCH  15  17
ATOM     16  C   UNL     1      -8.606   2.751 133.151  0.00  0.00    +0.000 C 
ATOM     17  C   UNL     1      -9.721   2.378 132.192  0.00  0.00    +0.000 C 
ENDBRANCH  15  17
ENDBRANCH  14  15
ENDBRANCH   1  14
TORSDOF 4
ENDMDL
MODEL 5
REMARK VINA RESULT:      -5.6     11.029     13.105
REMARK  Name = Butobarbital
REMARK  6 active torsions:
REMARK  status: ('A' for Active; 'I' for Inactive)
REMARK    1  A    between atoms: C_1  and  C_2
REMARK    2  A    between atoms: C_2  and  C_3
REMARK    3  A    between atoms: C_3  and  C_4
REMARK    4  A    between atoms: C_4  and  C_5
REMARK    5  A    between atoms: C_5  and  C_6
REMARK    6  A    between atoms: C_6  and  C_7
REMARK                            x       y       z     vdW  Elec       q    Type
REMARK                         _______ _______ _______ _____ _____    ______ ____
ROOT
ATOM      1  C   UNL     1      -8.090  -2.017 125.002  0.00  0.00    +0.000 C 
ATOM      2  C   UNL     1      -8.927  -1.685 123.777  0.00  0.00    +0.000 C 
ATOM      3  O   UNL     1      -9.774  -2.453 123.318  0.00  0.00    +0.000 OA
ATOM      4  N   UNL     1      -8.700  -0.490 123.163  0.00  0.00    +0.000 N 
ATOM      5  C   UNL     1      -7.873   0.498 123.590  0.00  0.00    +0.000 C 
ATOM      6  O   UNL     1      -7.818   1.580 123.023  0.00  0.00    +0.000 OA
ATOM      7  N   UNL     1      -7.125   0.237 124.692  0.00  0.00    +0.000 N 
ATOM      8  C   UNL     1      -7.197  -0.872 125.473  0.00  0.00    +0.000 C 
ATOM      9  O   UNL     1      -6.570  -0.904 126.533  0.00  0.00    +0.000 OA
ATOM     10  H   UNL     1      -9.266  -0.286 122.353  0.00  0.00    +0.000 HD
ATOM     11  H   UNL     1      -6.555   0.992 125.044  0.00  0.00    +0.000 HD
ENDROOT
BRANCH   1  12
ATOM     12  C   UNL     1      -9.028  -2.324 126.192  0.00  0.00    +0.000 C 
ATOM     13  C   UNL     1      -8.732  -3.689 126.808  0.00  0.00    +0.000 C 
ENDBRANCH   1  12
BRANCH   1  14
ATOM     14  C   UNL     1      -7.274  -3.289 124.637  0.00  0.00    +0.000 C 
BRANCH  14  15
ATOM     15  C   UNL     1      -6.135  -3.012 123.665  0.00  0.00    +0.000 C 
BRANCH  15  17
ATOM     16  C   UNL     1      -4.451  -4.815 123.579  0.00  0.00    +0.000 C 
ATOM     17  C   UNL     1      -4.799  -3.478 124.207  0.00  0.00    +0.000 C 
ENDBRANCH  15  17
ENDBRANCH  14  15
ENDBRANCH   1  14
TORSDOF 4
ENDMDL
MODEL 6
REMARK VINA RESULT:      -5.6     11.240     13.326
REMARK  Name = Butobarbital
REMARK  6 active torsions:
REMARK  status: ('A' for Active; 'I' for Inactive)
REMARK    1  A    between atoms: C_1  and  C_2
REMARK    2  A    between atoms: C_2  and  C_3
REMARK    3  A    between atoms: C_3  and  C_4
REMARK    4  A    between atoms: C_4  and  C_5
REMARK    5  A    between atoms: C_5  and  C_6
REMARK    6  A    between atoms: C_6  and  C_7
REMARK                            x       y       z     vdW  Elec       q    Type
REMARK                         _______ _______ _______ _____ _____    ______ ____
ROOT
ATOM      1  C   UNL     1      -6.072  -2.528 124.211  0.00  0.00    +0.000 C 
ATOM      2  C   UNL     1      -5.884  -1.804 125.535  0.00  0.00    +0.000 C 
ATOM      3  O   UNL     1      -5.416  -2.350 126.535  0.00  0.00    +0.000 OA
ATOM      4  N   UNL     1      -6.278  -0.502 125.603  0.00  0.00    +0.000 N 
ATOM      5  C   UNL     1      -6.727   0.265 124.577  0.00  0.00    +0.000 C 
ATOM      6  O   UNL     1      -6.957   1.458 124.719  0.00  0.00    +0.000 OA
ATOM      7  N   UNL     1      -6.888  -0.350 123.378  0.00  0.00    +0.000 N 
ATOM      8  C   UNL     1      -6.545  -1.628 123.073  0.00  0.00    +0.000 C 
ATOM      9  O   UNL     1      -6.602  -2.004 121.901  0.00  0.00    +0.000 OA
ATOM     10  H   UNL     1      -6.145  -0.037 126.489  0.00  0.00    +0.000 HD
ATOM     11  H   UNL     1      -7.165   0.234 122.602  0.00  0.00    +0.000 HD
ENDROOT
BRANCH   1  12
ATOM     12  C   UNL     1      -4.712  -3.098 123.747  0.00  0.00    +0.000 C 
ATOM     13  C   UNL     1      -4.696  -4.625 123.786  0.00  0.00    +0.000 C 
ENDBRANCH   1  12
BRANCH   1  14
ATOM     14  C   UNL     1      -7.061  -3.694 124.492  0.00  0.00    +0.000 C 
BRANCH  14  15
ATOM     15  C   UNL     1      -8.509  -3.338 124.186  0.00  0.00    +0.000 C 
BRANCH  15  17
ATOM     16  C   UNL     1      -8.776  -3.636 126.622  0.00  0.00    +0.000 C 
ATOM     17  C   UNL     1      -9.246  -2.846 125.415  0.00  0.00    +0.000 C 
ENDBRANCH  15  17
ENDBRANCH  14  15
ENDBRANCH   1  14
TORSDOF 4
ENDMDL
MODEL 7
REMARK VINA RESULT:      -5.6     10.903     13.067
REMARK  Name = Butobarbital
REMARK  6 active torsions:
REMARK  status: ('A' for Active; 'I' for Inactive)
REMARK    1  A    between atoms: C_1  and  C_2
REMARK    2  A    between atoms: C_2  and  C_3
REMARK    3  A    between atoms: C_3  and  C_4
REMARK    4  A    between atoms: C_4  and  C_5
REMARK    5  A    between atoms: C_5  and  C_6
REMARK    6  A    between atoms: C_6  and  C_7
REMARK                            x       y       z     vdW  Elec       q    Type
REMARK                         _______ _______ _______ _____ _____    ______ ____
ROOT
ATOM      1  C   UNL     1      -7.824  -1.484 124.880  0.00  0.00    +0.000 C 
ATOM      2  C   UNL     1      -7.224  -1.515 126.277  0.00  0.00    +0.000 C 
ATOM      3  O   UNL     1      -6.326  -0.752 126.636  0.00  0.00    +0.000 OA
ATOM      4  N   UNL     1      -7.700  -2.448 127.147  0.00  0.00    +0.000 N 
ATOM      5  C   UNL     1      -8.739  -3.298 126.939  0.00  0.00    +0.000 C 
ATOM      6  O   UNL     1      -9.159  -4.028 127.825  0.00  0.00    +0.000 OA
ATOM      7  N   UNL     1      -9.306  -3.280 125.707  0.00  0.00    +0.000 N 
ATOM      8  C   UNL     1      -9.010  -2.426 124.693  0.00  0.00    +0.000 C 
ATOM      9  O   UNL     1      -9.715  -2.423 123.682  0.00  0.00    +0.000 OA
ATOM     10  H   UNL     1      -7.292  -2.453 128.071  0.00  0.00    +0.000 HD
ATOM     11  H   UNL     1     -10.115  -3.868 125.570  0.00  0.00    +0.000 HD
ENDROOT
BRANCH   1  12
ATOM     12  C   UNL     1      -8.373  -0.068 124.594  0.00  0.00    +0.000 C 
ATOM     13  C   UNL     1      -9.426   0.348 125.618  0.00  0.00    +0.000 C 
ENDBRANCH   1  12
BRANCH   1  14
ATOM     14  C   UNL     1      -6.658  -1.802 123.902  0.00  0.00    +0.000 C 
BRANCH  14  15
ATOM     15  C   UNL     1      -6.138  -3.226 124.031  0.00  0.00    +0.000 C 
BRANCH  15  17
ATOM     16  C   UNL     1      -4.326  -4.824 123.520  0.00  0.00    +0.000 C 
ATOM     17  C   UNL     1      -4.706  -3.355 123.554  0.00  0.00    +0.000 C 
ENDBRANCH  15  17
ENDBRANCH  14  15
ENDBRANCH   1  14
TORSDOF 4
ENDMDL
MODEL 8
REMARK VINA RESULT:      -5.4      3.136      5.830
REMARK  Name = Butobarbital
REMARK  6 active torsions:
REMARK  status: ('A' for Active; 'I' for Inactive)
REMARK    1  A    between atoms: C_1  and  C_2
REMARK    2  A    between atoms: C_2  and  C_3
REMARK    3  A    between atoms: C_3  and  C_4
REMARK    4  A    between atoms: C_4  and  C_5
REMARK    5  A    between atoms: C_5  and  C_6
REMARK    6  A    between atoms: C_6  and  C_7
REMARK                            x       y       z     vdW  Elec       q    Type
REMARK                         _______ _______ _______ _____ _____    ______ ____
ROOT
ATOM      1  C   UNL     1      -9.355   5.949 130.826  0.00  0.00    +0.000 C 
ATOM      2  C   UNL     1     -10.252   6.386 129.678  0.00  0.00    +0.000 C 
ATOM      3  O   UNL     1      -9.873   6.410 128.507  0.00  0.00    +0.000 OA
ATOM      4  N   UNL     1     -11.518   6.785 129.984  0.00  0.00    +0.000 N 
ATOM      5  C   UNL     1     -12.113   6.736 131.204  0.00  0.00    +0.000 C 
ATOM      6  O   UNL     1     -13.293   7.021 131.354  0.00  0.00    +0.000 OA
ATOM      7  N   UNL     1     -11.342   6.333 132.245  0.00  0.00    +0.000 N 
ATOM      8  C   UNL     1     -10.066   5.873 132.175  0.00  0.00    +0.000 C 
ATOM      9  O   UNL     1      -9.543   5.392 133.182  0.00  0.00    +0.000 OA
ATOM     10  H   UNL     1     -12.099   7.071 129.210  0.00  0.00    +0.000 HD
ATOM     11  H   UNL     1     -11.800   6.239 133.140  0.00  0.00    +0.000 HD
ENDROOT
BRANCH   1  12
ATOM     12  C   UNL     1      -8.838   4.518 130.551  0.00  0.00    +0.000 C 
ATOM     13  C   UNL     1      -9.986   3.526 130.380  0.00  0.00    +0.000 C 
ENDBRANCH   1  12
BRANCH   1  14
ATOM     14  C   UNL     1      -8.161   6.943 130.845  0.00  0.00    +0.000 C 
BRANCH  14  15
ATOM     15  C   UNL     1      -6.909   6.364 131.489  0.00  0.00    +0.000 C 
BRANCH  15  17
ATOM     16  C   UNL     1      -4.893   5.997 130.113  0.00  0.00    +0.000 C 
ATOM     17  C   UNL     1      -5.645   7.008 130.957  0.00  0.00    +0.000 C 
ENDBRANCH  15  17
ENDBRANCH  14  15
ENDBRANCH   1  14
TORSDOF 4
ENDMDL
MODEL 9
REMARK VINA RESULT:      -5.2     10.473     12.322
REMARK  Name = Butobarbital
REMARK  6 active torsions:
REMARK  status: ('A' for Active; 'I' for Inactive)
REMARK    1  A    between atoms: C_1  and  C_2
REMARK    2  A    between atoms: C_2  and  C_3
REMARK    3  A    between atoms: C_3  and  C_4
REMARK    4  A    between atoms: C_4  and  C_5
REMARK    5  A    between atoms: C_5  and  C_6
REMARK    6  A    between atoms: C_6  and  C_7
REMARK                            x       y       z     vdW  Elec       q    Type
REMARK                         _______ _______ _______ _____ _____    ______ ____
ROOT
ATOM      1  C   UNL     1      -8.204  -1.598 124.112  0.00  0.00    +0.000 C 
ATOM      2  C   UNL     1      -6.993  -1.149 123.309  0.00  0.00    +0.000 C 
ATOM      3  O   UNL     1      -6.382  -1.899 122.547  0.00  0.00    +0.000 OA
ATOM      4  N   UNL     1      -6.571   0.136 123.471  0.00  0.00    +0.000 N 
ATOM      5  C   UNL     1      -7.181   1.106 124.199  0.00  0.00    +0.000 C 
ATOM      6  O   UNL     1      -6.778   2.261 124.195  0.00  0.00    +0.000 OA
ATOM      7  N   UNL     1      -8.274   0.739 124.913  0.00  0.00    +0.000 N 
ATOM      8  C   UNL     1      -8.884  -0.475 124.890  0.00  0.00    +0.000 C 
ATOM      9  O   UNL     1      -9.962  -0.618 125.469  0.00  0.00    +0.000 OA
ATOM     10  H   UNL     1      -5.766   0.417 122.929  0.00  0.00    +0.000 HD
ATOM     11  H   UNL     1      -8.763   1.473 125.406  0.00  0.00    +0.000 HD
ENDROOT
BRANCH   1  12
ATOM     12  C   UNL     1      -9.282  -2.141 123.146  0.00  0.00    +0.000 C 
ATOM     13  C   UNL     1      -9.680  -3.574 123.491  0.00  0.00    +0.000 C 
ENDBRANCH   1  12
BRANCH   1  14
ATOM     14  C   UNL     1      -7.708  -2.742 125.040  0.00  0.00    +0.000 C 
BRANCH  14  15
ATOM     15  C   UNL     1      -7.004  -2.236 126.291  0.00  0.00    +0.000 C 
BRANCH  15  17
ATOM     16  C   UNL     1      -8.836  -3.628 127.187  0.00  0.00    +0.000 C 
ATOM     17  C   UNL     1      -7.676  -2.723 127.559  0.00  0.00    +0.000 C 
ENDBRANCH  15  17
ENDBRANCH  14  15
ENDBRANCH   1  14
TORSDOF 4
ENDMDL
