MODEL 1
REMARK VINA RESULT:      -7.4      0.000      0.000
REMARK  Name = Butoconazole
REMARK  7 active torsions:
REMARK  status: ('A' for Active; 'I' for Inactive)
REMARK    1  A    between atoms: C_5  and  C_6
REMARK    2  A    between atoms: C_6  and  C_7
REMARK    3  A    between atoms: C_7  and  C_8
REMARK    4  A    between atoms: C_8  and  C_9
REMARK    5  A    between atoms: C_8  and  S_15
REMARK    6  A    between atoms: C_9  and  N_10
REMARK    7  A    between atoms: S_15  and  C_16
REMARK                            x       y       z     vdW  Elec       q    Type
REMARK                         _______ _______ _______ _____ _____    ______ ____
ROOT
ATOM      1  C   UNL     1      -6.883   1.381 125.763  0.00  0.00    +0.000 C 
ENDROOT
BRANCH   1   2
ATOM      2  C   UNL     1      -6.834   1.594 124.247  0.00  0.00    +0.000 C 
BRANCH   2   3
ATOM      3  C   UNL     1      -7.551   2.876 123.819  0.00  0.00    +0.000 C 
BRANCH   3   8
ATOM      4 CL   UNL     1      -6.751   5.037 118.299  0.00  0.00    +0.000 Cl
ATOM      5  C   UNL     1      -6.984   4.262 119.814  0.00  0.00    +0.000 A 
ATOM      6  C   UNL     1      -8.270   3.959 120.259  0.00  0.00    +0.000 A 
ATOM      7  C   UNL     1      -8.452   3.434 121.539  0.00  0.00    +0.000 A 
ATOM      8  C   UNL     1      -7.344   3.239 122.378  0.00  0.00    +0.000 A 
ATOM      9  C   UNL     1      -6.058   3.451 121.872  0.00  0.00    +0.000 A 
ATOM     10  C   UNL     1      -5.876   3.971 120.601  0.00  0.00    +0.000 A 
ENDBRANCH   3   8
ENDBRANCH   2   3
ENDBRANCH   1   2
BRANCH   1  11
ATOM     11  C   UNL     1      -6.643   2.698 126.575  0.00  0.00    +0.000 C 
BRANCH  11  12
ATOM     12  N   UNL     1      -5.260   3.118 126.760  0.00  0.00    +0.000 N 
ATOM     13  C   UNL     1      -4.120   2.387 126.559  0.00  0.00    +0.000 A 
ATOM     14  C   UNL     1      -3.095   3.298 126.576  0.00  0.00    +0.000 A 
ATOM     15  N   UNL     1      -3.563   4.537 126.933  0.00  0.00    +0.000 NA
ATOM     16  C   UNL     1      -4.839   4.363 127.159  0.00  0.00    +0.000 A 
ENDBRANCH  11  12
ENDBRANCH   1  11
BRANCH   1  17
ATOM     17  S   UNL     1      -8.577   0.702 126.060  0.00  0.00    +0.000 S 
BRANCH  17  18
ATOM     18  C   UNL     1      -8.756  -0.813 125.104  0.00  0.00    +0.000 A 
ATOM     19  C   UNL     1      -9.111  -0.929 123.745  0.00  0.00    +0.000 A 
ATOM     20 CL   UNL     1      -9.872   0.275 122.768  0.00  0.00    +0.000 Cl
ATOM     21  C   UNL     1      -9.010  -2.147 123.067  0.00  0.00    +0.000 A 
ATOM     22  C   UNL     1      -8.741  -3.318 123.750  0.00  0.00    +0.000 A 
ATOM     23  C   UNL     1      -8.522  -3.267 125.117  0.00  0.00    +0.000 A 
ATOM     24  C   UNL     1      -8.491  -2.035 125.785  0.00  0.00    +0.000 A 
ATOM     25 CL   UNL     1      -8.152  -2.135 127.491  0.00  0.00    +0.000 Cl
ENDBRANCH  17  18
ENDBRANCH   1  17
TORSDOF 7
ENDMDL
MODEL 2
REMARK VINA RESULT:      -7.4      2.352      2.624
REMARK  Name = Butoconazole
REMARK  7 active torsions:
REMARK  status: ('A' for Active; 'I' for Inactive)
REMARK    1  A    between atoms: C_5  and  C_6
REMARK    2  A    between atoms: C_6  and  C_7
REMARK    3  A    between atoms: C_7  and  C_8
REMARK    4  A    between atoms: C_8  and  C_9
REMARK    5  A    between atoms: C_8  and  S_15
REMARK    6  A    between atoms: C_9  and  N_10
REMARK    7  A    between atoms: S_15  and  C_16
REMARK                            x       y       z     vdW  Elec       q    Type
REMARK                         _______ _______ _______ _____ _____    ______ ____
ROOT
ATOM      1  C   UNL     1      -7.031   1.440 124.865  0.00  0.00    +0.000 C 
ENDROOT
BRANCH   1   2
ATOM      2  C   UNL     1      -7.080   2.826 124.214  0.00  0.00    +0.000 C 
BRANCH   2   3
ATOM      3  C   UNL     1      -8.102   2.895 123.077  0.00  0.00    +0.000 C 
BRANCH   3   8
ATOM      4 CL   UNL     1      -5.969   5.615 118.196  0.00  0.00    +0.000 Cl
ATOM      5  C   UNL     1      -6.561   4.688 119.514  0.00  0.00    +0.000 A 
ATOM      6  C   UNL     1      -7.908   4.334 119.575  0.00  0.00    +0.000 A 
ATOM      7  C   UNL     1      -8.398   3.679 120.706  0.00  0.00    +0.000 A 
ATOM      8  C   UNL     1      -7.541   3.405 121.782  0.00  0.00    +0.000 A 
ATOM      9  C   UNL     1      -6.175   3.675 121.652  0.00  0.00    +0.000 A 
ATOM     10  C   UNL     1      -5.686   4.324 120.530  0.00  0.00    +0.000 A 
ENDBRANCH   3   8
ENDBRANCH   2   3
ENDBRANCH   1   2
BRANCH   1  11
ATOM     11  C   UNL     1      -8.346   1.079 125.634  0.00  0.00    +0.000 C 
BRANCH  11  12
ATOM     12  N   UNL     1      -8.238   0.883 127.074  0.00  0.00    +0.000 N 
ATOM     13  C   UNL     1      -7.894  -0.259 127.748  0.00  0.00    +0.000 A 
ATOM     14  C   UNL     1      -7.645   0.140 129.037  0.00  0.00    +0.000 A 
ATOM     15  N   UNL     1      -7.975   1.461 129.200  0.00  0.00    +0.000 NA
ATOM     16  C   UNL     1      -8.446   1.837 128.039  0.00  0.00    +0.000 A 
ENDBRANCH  11  12
ENDBRANCH   1  11
BRANCH   1  17
ATOM     17  S   UNL     1      -6.740   0.293 123.445  0.00  0.00    +0.000 S 
BRANCH  17  18
ATOM     18  C   UNL     1      -7.662  -1.224 123.743  0.00  0.00    +0.000 A 
ATOM     19  C   UNL     1      -8.909  -1.587 123.193  0.00  0.00    +0.000 A 
ATOM     20 CL   UNL     1     -10.061  -0.533 122.456  0.00  0.00    +0.000 Cl
ATOM     21  C   UNL     1      -9.419  -2.879 123.338  0.00  0.00    +0.000 A 
ATOM     22  C   UNL     1      -8.812  -3.791 124.181  0.00  0.00    +0.000 A 
ATOM     23  C   UNL     1      -7.655  -3.426 124.851  0.00  0.00    +0.000 A 
ATOM     24  C   UNL     1      -7.063  -2.177 124.612  0.00  0.00    +0.000 A 
ATOM     25 CL   UNL     1      -5.587  -1.888 125.491  0.00  0.00    +0.000 Cl
ENDBRANCH  17  18
ENDBRANCH   1  17
TORSDOF 7
ENDMDL
MODEL 3
REMARK VINA RESULT:      -7.4      2.444      3.321
REMARK  Name = Butoconazole
REMARK  7 active torsions:
REMARK  status: ('A' for Active; 'I' for Inactive)
REMARK    1  A    between atoms: C_5  and  C_6
REMARK    2  A    between atoms: C_6  and  C_7
REMARK    3  A    between atoms: C_7  and  C_8
REMARK    4  A    between atoms: C_8  and  C_9
REMARK    5  A    between atoms: C_8  and  S_15
REMARK    6  A    between atoms: C_9  and  N_10
REMARK    7  A    between atoms: S_15  and  C_16
REMARK                            x       y       z     vdW  Elec       q    Type
REMARK                         _______ _______ _______ _____ _____    ______ ____
ROOT
ATOM      1  C   UNL     1      -6.760   1.072 124.747  0.00  0.00    +0.000 C 
ENDROOT
BRANCH   1   2
ATOM      2  C   UNL     1      -6.669   2.533 124.294  0.00  0.00    +0.000 C 
BRANCH   2   3
ATOM      3  C   UNL     1      -7.793   2.909 123.327  0.00  0.00    +0.000 C 
BRANCH   3   8
ATOM      4 CL   UNL     1      -6.009   5.547 118.264  0.00  0.00    +0.000 Cl
ATOM      5  C   UNL     1      -6.496   4.642 119.639  0.00  0.00    +0.000 A 
ATOM      6  C   UNL     1      -7.815   4.210 119.767  0.00  0.00    +0.000 A 
ATOM      7  C   UNL     1      -8.223   3.575 120.940  0.00  0.00    +0.000 A 
ATOM      8  C   UNL     1      -7.312   3.398 121.992  0.00  0.00    +0.000 A 
ATOM      9  C   UNL     1      -5.971   3.744 121.800  0.00  0.00    +0.000 A 
ATOM     10  C   UNL     1      -5.564   4.374 120.635  0.00  0.00    +0.000 A 
ENDBRANCH   3   8
ENDBRANCH   2   3
ENDBRANCH   1   2
BRANCH   1  11
ATOM     11  C   UNL     1      -8.004   0.789 125.654  0.00  0.00    +0.000 C 
BRANCH  11  12
ATOM     12  N   UNL     1      -7.743   0.325 127.011  0.00  0.00    +0.000 N 
ATOM     13  C   UNL     1      -7.825   1.036 128.178  0.00  0.00    +0.000 A 
ATOM     14  C   UNL     1      -7.783   0.099 129.179  0.00  0.00    +0.000 A 
ATOM     15  N   UNL     1      -7.525  -1.143 128.660  0.00  0.00    +0.000 NA
ATOM     16  C   UNL     1      -7.381  -0.949 127.375  0.00  0.00    +0.000 A 
ENDBRANCH  11  12
ENDBRANCH   1  11
BRANCH   1  17
ATOM     17  S   UNL     1      -6.846   0.122 123.164  0.00  0.00    +0.000 S 
BRANCH  17  18
ATOM     18  C   UNL     1      -7.511  -1.512 123.518  0.00  0.00    +0.000 A 
ATOM     19  C   UNL     1      -6.822  -2.616 124.061  0.00  0.00    +0.000 A 
ATOM     20 CL   UNL     1      -5.111  -2.838 124.126  0.00  0.00    +0.000 Cl
ATOM     21  C   UNL     1      -7.502  -3.762 124.483  0.00  0.00    +0.000 A 
ATOM     22  C   UNL     1      -8.846  -3.930 124.211  0.00  0.00    +0.000 A 
ATOM     23  C   UNL     1      -9.533  -2.922 123.553  0.00  0.00    +0.000 A 
ATOM     24  C   UNL     1      -8.893  -1.715 123.241  0.00  0.00    +0.000 A 
ATOM     25 CL   UNL     1      -9.904  -0.530 122.461  0.00  0.00    +0.000 Cl
ENDBRANCH  17  18
ENDBRANCH   1  17
TORSDOF 7
ENDMDL
MODEL 4
REMARK VINA RESULT:      -7.4      1.904      2.617
REMARK  Name = Butoconazole
REMARK  7 active torsions:
REMARK  status: ('A' for Active; 'I' for Inactive)
REMARK    1  A    between atoms: C_5  and  C_6
REMARK    2  A    between atoms: C_6  and  C_7
REMARK    3  A    between atoms: C_7  and  C_8
REMARK    4  A    between atoms: C_8  and  C_9
REMARK    5  A    between atoms: C_8  and  S_15
REMARK    6  A    between atoms: C_9  and  N_10
REMARK    7  A    between atoms: S_15  and  C_16
REMARK                            x       y       z     vdW  Elec       q    Type
REMARK                         _______ _______ _______ _____ _____    ______ ____
ROOT
ATOM      1  C   UNL     1      -6.735   1.292 125.129  0.00  0.00    +0.000 C 
ENDROOT
BRANCH   1   2
ATOM      2  C   UNL     1      -7.244   1.337 123.684  0.00  0.00    +0.000 C 
BRANCH   2   3
ATOM      3  C   UNL     1      -7.829   2.704 123.321  0.00  0.00    +0.000 C 
BRANCH   3   8
ATOM      4 CL   UNL     1      -6.028   5.509 118.354  0.00  0.00    +0.000 Cl
ATOM      5  C   UNL     1      -6.532   4.559 119.693  0.00  0.00    +0.000 A 
ATOM      6  C   UNL     1      -7.874   4.213 119.843  0.00  0.00    +0.000 A 
ATOM      7  C   UNL     1      -8.288   3.539 120.993  0.00  0.00    +0.000 A 
ATOM      8  C   UNL     1      -7.358   3.237 121.999  0.00  0.00    +0.000 A 
ATOM      9  C   UNL     1      -6.002   3.500 121.777  0.00  0.00    +0.000 A 
ATOM     10  C   UNL     1      -5.590   4.168 120.636  0.00  0.00    +0.000 A 
ENDBRANCH   3   8
ENDBRANCH   2   3
ENDBRANCH   1   2
BRANCH   1  11
ATOM     11  C   UNL     1      -7.868   1.514 126.185  0.00  0.00    +0.000 C 
BRANCH  11  12
ATOM     12  N   UNL     1      -7.723   2.654 127.081  0.00  0.00    +0.000 N 
ATOM     13  C   UNL     1      -8.119   2.757 128.388  0.00  0.00    +0.000 A 
ATOM     14  C   UNL     1      -7.501   3.884 128.868  0.00  0.00    +0.000 A 
ATOM     15  N   UNL     1      -6.867   4.551 127.851  0.00  0.00    +0.000 NA
ATOM     16  C   UNL     1      -7.129   3.854 126.776  0.00  0.00    +0.000 A 
ENDBRANCH  11  12
ENDBRANCH   1  11
BRANCH   1  17
ATOM     17  S   UNL     1      -5.987  -0.392 125.281  0.00  0.00    +0.000 S 
BRANCH  17  18
ATOM     18  C   UNL     1      -7.288  -1.614 125.046  0.00  0.00    +0.000 A 
ATOM     19  C   UNL     1      -8.211  -2.074 126.008  0.00  0.00    +0.000 A 
ATOM     20 CL   UNL     1      -8.079  -1.926 127.723  0.00  0.00    +0.000 Cl
ATOM     21  C   UNL     1      -9.303  -2.866 125.646  0.00  0.00    +0.000 A 
ATOM     22  C   UNL     1      -9.413  -3.383 124.369  0.00  0.00    +0.000 A 
ATOM     23  C   UNL     1      -8.447  -3.067 123.427  0.00  0.00    +0.000 A 
ATOM     24  C   UNL     1      -7.419  -2.167 123.742  0.00  0.00    +0.000 A 
ATOM     25 CL   UNL     1      -6.314  -1.833 122.437  0.00  0.00    +0.000 Cl
ENDBRANCH  17  18
ENDBRANCH   1  17
TORSDOF 7
ENDMDL
MODEL 5
REMARK VINA RESULT:      -7.3      2.781      6.197
REMARK  Name = Butoconazole
REMARK  7 active torsions:
REMARK  status: ('A' for Active; 'I' for Inactive)
REMARK    1  A    between atoms: C_5  and  C_6
REMARK    2  A    between atoms: C_6  and  C_7
REMARK    3  A    between atoms: C_7  and  C_8
REMARK    4  A    between atoms: C_8  and  C_9
REMARK    5  A    between atoms: C_8  and  S_15
REMARK    6  A    between atoms: C_9  and  N_10
REMARK    7  A    between atoms: S_15  and  C_16
REMARK                            x       y       z     vdW  Elec       q    Type
REMARK                         _______ _______ _______ _____ _____    ______ ____
ROOT
ATOM      1  C   UNL     1      -8.033   1.591 124.466  0.00  0.00    +0.000 C 
ENDROOT
BRANCH   1   2
ATOM      2  C   UNL     1      -7.323   1.382 125.807  0.00  0.00    +0.000 C 
BRANCH   2   3
ATOM      3  C   UNL     1      -8.130   0.493 126.756  0.00  0.00    +0.000 C 
BRANCH   3   8
ATOM      4 CL   UNL     1      -5.140  -3.755 129.722  0.00  0.00    +0.000 Cl
ATOM      5  C   UNL     1      -5.951  -2.614 128.727  0.00  0.00    +0.000 A 
ATOM      6  C   UNL     1      -5.264  -1.515 128.215  0.00  0.00    +0.000 A 
ATOM      7  C   UNL     1      -5.960  -0.536 127.504  0.00  0.00    +0.000 A 
ATOM      8  C   UNL     1      -7.348  -0.652 127.332  0.00  0.00    +0.000 A 
ATOM      9  C   UNL     1      -7.995  -1.814 127.763  0.00  0.00    +0.000 A 
ATOM     10  C   UNL     1      -7.305  -2.786 128.468  0.00  0.00    +0.000 A 
ENDBRANCH   3   8
ENDBRANCH   2   3
ENDBRANCH   1   2
BRANCH   1  11
ATOM     11  C   UNL     1      -8.019   3.083 123.992  0.00  0.00    +0.000 C 
BRANCH  11  12
ATOM     12  N   UNL     1      -6.904   3.500 123.152  0.00  0.00    +0.000 N 
ATOM     13  C   UNL     1      -6.801   3.430 121.788  0.00  0.00    +0.000 A 
ATOM     14  C   UNL     1      -5.718   4.208 121.463  0.00  0.00    +0.000 A 
ATOM     15  N   UNL     1      -5.072   4.623 122.599  0.00  0.00    +0.000 NA
ATOM     16  C   UNL     1      -5.734   4.075 123.584  0.00  0.00    +0.000 A 
ENDBRANCH  11  12
ENDBRANCH   1  11
BRANCH   1  17
ATOM     17  S   UNL     1      -7.103   0.501 123.298  0.00  0.00    +0.000 S 
BRANCH  17  18
ATOM     18  C   UNL     1      -7.604  -1.203 123.592  0.00  0.00    +0.000 A 
ATOM     19  C   UNL     1      -6.832  -2.233 124.168  0.00  0.00    +0.000 A 
ATOM     20 CL   UNL     1      -5.114  -2.265 124.342  0.00  0.00    +0.000 Cl
ATOM     21  C   UNL     1      -7.405  -3.453 124.534  0.00  0.00    +0.000 A 
ATOM     22  C   UNL     1      -8.703  -3.764 124.174  0.00  0.00    +0.000 A 
ATOM     23  C   UNL     1      -9.454  -2.828 123.482  0.00  0.00    +0.000 A 
ATOM     24  C   UNL     1      -8.934  -1.552 123.225  0.00  0.00    +0.000 A 
ATOM     25 CL   UNL     1     -10.019  -0.474 122.392  0.00  0.00    +0.000 Cl
ENDBRANCH  17  18
ENDBRANCH   1  17
TORSDOF 7
ENDMDL
MODEL 6
REMARK VINA RESULT:      -7.1      2.461      3.526
REMARK  Name = Butoconazole
REMARK  7 active torsions:
REMARK  status: ('A' for Active; 'I' for Inactive)
REMARK    1  A    between atoms: C_5  and  C_6
REMARK    2  A    between atoms: C_6  and  C_7
REMARK    3  A    between atoms: C_7  and  C_8
REMARK    4  A    between atoms: C_8  and  C_9
REMARK    5  A    between atoms: C_8  and  S_15
REMARK    6  A    between atoms: C_9  and  N_10
REMARK    7  A    between atoms: S_15  and  C_16
REMARK                            x       y       z     vdW  Elec       q    Type
REMARK                         _______ _______ _______ _____ _____    ______ ____
ROOT
ATOM      1  C   UNL     1      -6.749   0.351 125.366  0.00  0.00    +0.000 C 
ENDROOT
BRANCH   1   2
ATOM      2  C   UNL     1      -6.916   0.784 123.906  0.00  0.00    +0.000 C 
BRANCH   2   3
ATOM      3  C   UNL     1      -7.939   1.911 123.750  0.00  0.00    +0.000 C 
BRANCH   3   8
ATOM      4 CL   UNL     1      -6.989   4.738 118.565  0.00  0.00    +0.000 Cl
ATOM      5  C   UNL     1      -7.257   4.079 120.128  0.00  0.00    +0.000 A 
ATOM      6  C   UNL     1      -6.178   3.771 120.955  0.00  0.00    +0.000 A 
ATOM      7  C   UNL     1      -6.404   3.131 122.175  0.00  0.00    +0.000 A 
ATOM      8  C   UNL     1      -7.711   2.780 122.548  0.00  0.00    +0.000 A 
ATOM      9  C   UNL     1      -8.783   3.193 121.752  0.00  0.00    +0.000 A 
ATOM     10  C   UNL     1      -8.560   3.829 120.541  0.00  0.00    +0.000 A 
ENDBRANCH   3   8
ENDBRANCH   2   3
ENDBRANCH   1   2
BRANCH   1  11
ATOM     11  C   UNL     1      -8.055   0.528 126.210  0.00  0.00    +0.000 C 
BRANCH  11  12
ATOM     12  N   UNL     1      -7.961   1.349 127.410  0.00  0.00    +0.000 N 
ATOM     13  C   UNL     1      -8.022   0.945 128.717  0.00  0.00    +0.000 A 
ATOM     14  C   UNL     1      -7.588   2.020 129.452  0.00  0.00    +0.000 A 
ATOM     15  N   UNL     1      -7.413   3.112 128.640  0.00  0.00    +0.000 NA
ATOM     16  C   UNL     1      -7.768   2.708 127.449  0.00  0.00    +0.000 A 
ENDBRANCH  11  12
ENDBRANCH   1  11
BRANCH   1  17
ATOM     17  S   UNL     1      -6.257  -1.427 125.247  0.00  0.00    +0.000 S 
BRANCH  17  18
ATOM     18  C   UNL     1      -7.053  -2.328 126.586  0.00  0.00    +0.000 A 
ATOM     19  C   UNL     1      -6.657  -2.372 127.939  0.00  0.00    +0.000 A 
ATOM     20 CL   UNL     1      -5.111  -1.948 128.580  0.00  0.00    +0.000 Cl
ATOM     21  C   UNL     1      -7.478  -2.935 128.919  0.00  0.00    +0.000 A 
ATOM     22  C   UNL     1      -8.618  -3.637 128.572  0.00  0.00    +0.000 A 
ATOM     23  C   UNL     1      -8.969  -3.736 127.235  0.00  0.00    +0.000 A 
ATOM     24  C   UNL     1      -8.224  -3.064 126.256  0.00  0.00    +0.000 A 
ATOM     25 CL   UNL     1      -8.823  -3.246 124.630  0.00  0.00    +0.000 Cl
ENDBRANCH  17  18
ENDBRANCH   1  17
TORSDOF 7
ENDMDL
MODEL 7
REMARK VINA RESULT:      -7.1      3.420      7.351
REMARK  Name = Butoconazole
REMARK  7 active torsions:
REMARK  status: ('A' for Active; 'I' for Inactive)
REMARK    1  A    between atoms: C_5  and  C_6
REMARK    2  A    between atoms: C_6  and  C_7
REMARK    3  A    between atoms: C_7  and  C_8
REMARK    4  A    between atoms: C_8  and  C_9
REMARK    5  A    between atoms: C_8  and  S_15
REMARK    6  A    between atoms: C_9  and  N_10
REMARK    7  A    between atoms: S_15  and  C_16
REMARK                            x       y       z     vdW  Elec       q    Type
REMARK                         _______ _______ _______ _____ _____    ______ ____
ROOT
ATOM      1  C   UNL     1      -7.781   0.753 126.921  0.00  0.00    +0.000 C 
ENDROOT
BRANCH   1   2
ATOM      2  C   UNL     1      -7.001   1.018 128.213  0.00  0.00    +0.000 C 
BRANCH   2   3
ATOM      3  C   UNL     1      -7.691   0.416 129.439  0.00  0.00    +0.000 C 
BRANCH   3   8
ATOM      4 CL   UNL     1      -5.657  -5.085 130.609  0.00  0.00    +0.000 Cl
ATOM      5  C   UNL     1      -6.176  -3.459 130.422  0.00  0.00    +0.000 A 
ATOM      6  C   UNL     1      -7.396  -3.046 130.954  0.00  0.00    +0.000 A 
ATOM      7  C   UNL     1      -7.858  -1.754 130.698  0.00  0.00    +0.000 A 
ATOM      8  C   UNL     1      -7.106  -0.890 129.888  0.00  0.00    +0.000 A 
ATOM      9  C   UNL     1      -5.838  -1.292 129.455  0.00  0.00    +0.000 A 
ATOM     10  C   UNL     1      -5.378  -2.573 129.709  0.00  0.00    +0.000 A 
ENDBRANCH   3   8
ENDBRANCH   2   3
ENDBRANCH   1   2
BRANCH   1  11
ATOM     11  C   UNL     1      -8.103   2.060 126.121  0.00  0.00    +0.000 C 
BRANCH  11  12
ATOM     12  N   UNL     1      -8.894   1.914 124.906  0.00  0.00    +0.000 N 
ATOM     13  C   UNL     1      -8.661   2.466 123.675  0.00  0.00    +0.000 A 
ATOM     14  C   UNL     1      -9.496   1.801 122.813  0.00  0.00    +0.000 A 
ATOM     15  N   UNL     1     -10.336   0.970 123.509  0.00  0.00    +0.000 NA
ATOM     16  C   UNL     1     -10.033   1.160 124.767  0.00  0.00    +0.000 A 
ENDBRANCH  11  12
ENDBRANCH   1  11
BRANCH   1  17
ATOM     17  S   UNL     1      -6.675  -0.374 125.960  0.00  0.00    +0.000 S 
BRANCH  17  18
ATOM     18  C   UNL     1      -7.700  -1.590 125.116  0.00  0.00    +0.000 A 
ATOM     19  C   UNL     1      -8.528  -2.567 125.706  0.00  0.00    +0.000 A 
ATOM     20 CL   UNL     1      -8.456  -3.137 127.335  0.00  0.00    +0.000 Cl
ATOM     21  C   UNL     1      -9.432  -3.310 124.944  0.00  0.00    +0.000 A 
ATOM     22  C   UNL     1      -9.414  -3.250 123.563  0.00  0.00    +0.000 A 
ATOM     23  C   UNL     1      -8.516  -2.401 122.936  0.00  0.00    +0.000 A 
ATOM     24  C   UNL     1      -7.695  -1.554 123.693  0.00  0.00    +0.000 A 
ATOM     25 CL   UNL     1      -6.659  -0.512 122.758  0.00  0.00    +0.000 Cl
ENDBRANCH  17  18
ENDBRANCH   1  17
TORSDOF 7
ENDMDL
MODEL 8
REMARK VINA RESULT:      -7.1      7.464      9.710
REMARK  Name = Butoconazole
REMARK  7 active torsions:
REMARK  status: ('A' for Active; 'I' for Inactive)
REMARK    1  A    between atoms: C_5  and  C_6
REMARK    2  A    between atoms: C_6  and  C_7
REMARK    3  A    between atoms: C_7  and  C_8
REMARK    4  A    between atoms: C_8  and  C_9
REMARK    5  A    between atoms: C_8  and  S_15
REMARK    6  A    between atoms: C_9  and  N_10
REMARK    7  A    between atoms: S_15  and  C_16
REMARK                            x       y       z     vdW  Elec       q    Type
REMARK                         _______ _______ _______ _____ _____    ______ ____
ROOT
ATOM      1  C   UNL     1      -9.487   4.356 130.883  0.00  0.00    +0.000 C 
ENDROOT
BRANCH   1   2
ATOM      2  C   UNL     1      -8.705   5.664 130.728  0.00  0.00    +0.000 C 
BRANCH   2   3
ATOM      3  C   UNL     1      -8.091   6.130 132.050  0.00  0.00    +0.000 C 
BRANCH   3   8
ATOM      4 CL   UNL     1      -2.175   6.685 131.357  0.00  0.00    +0.000 Cl
ATOM      5  C   UNL     1      -3.868   6.670 131.644  0.00  0.00    +0.000 A 
ATOM      6  C   UNL     1      -4.378   6.107 132.813  0.00  0.00    +0.000 A 
ATOM      7  C   UNL     1      -5.758   5.999 132.982  0.00  0.00    +0.000 A 
ATOM      8  C   UNL     1      -6.623   6.434 131.966  0.00  0.00    +0.000 A 
ATOM      9  C   UNL     1      -6.092   7.090 130.852  0.00  0.00    +0.000 A 
ATOM     10  C   UNL     1      -4.721   7.199 130.683  0.00  0.00    +0.000 A 
ENDBRANCH   3   8
ENDBRANCH   2   3
ENDBRANCH   1   2
BRANCH   1  11
ATOM     11  C   UNL     1     -10.965   4.462 130.381  0.00  0.00    +0.000 C 
BRANCH  11  12
ATOM     12  N   UNL     1     -11.619   5.757 130.517  0.00  0.00    +0.000 N 
ATOM     13  C   UNL     1     -12.041   6.599 129.523  0.00  0.00    +0.000 A 
ATOM     14  C   UNL     1     -12.847   7.521 130.144  0.00  0.00    +0.000 A 
ATOM     15  N   UNL     1     -12.803   7.353 131.504  0.00  0.00    +0.000 NA
ATOM     16  C   UNL     1     -11.960   6.372 131.697  0.00  0.00    +0.000 A 
ENDBRANCH  11  12
ENDBRANCH   1  11
BRANCH   1  17
ATOM     17  S   UNL     1      -8.517   3.140 129.882  0.00  0.00    +0.000 S 
BRANCH  17  18
ATOM     18  C   UNL     1      -6.849   3.055 130.554  0.00  0.00    +0.000 A 
ATOM     19  C   UNL     1      -6.462   2.564 131.818  0.00  0.00    +0.000 A 
ATOM     20 CL   UNL     1      -7.480   2.324 133.191  0.00  0.00    +0.000 Cl
ATOM     21  C   UNL     1      -5.117   2.357 132.136  0.00  0.00    +0.000 A 
ATOM     22  C   UNL     1      -4.113   2.802 131.298  0.00  0.00    +0.000 A 
ATOM     23  C   UNL     1      -4.453   3.418 130.104  0.00  0.00    +0.000 A 
ATOM     24  C   UNL     1      -5.796   3.513 129.714  0.00  0.00    +0.000 A 
ATOM     25 CL   UNL     1      -6.056   4.267 128.165  0.00  0.00    +0.000 Cl
ENDBRANCH  17  18
ENDBRANCH   1  17
TORSDOF 7
ENDMDL
MODEL 9
REMARK VINA RESULT:      -7.0      3.084      5.748
REMARK  Name = Butoconazole
REMARK  7 active torsions:
REMARK  status: ('A' for Active; 'I' for Inactive)
REMARK    1  A    between atoms: C_5  and  C_6
REMARK    2  A    between atoms: C_6  and  C_7
REMARK    3  A    between atoms: C_7  and  C_8
REMARK    4  A    between atoms: C_8  and  C_9
REMARK    5  A    between atoms: C_8  and  S_15
REMARK    6  A    between atoms: C_9  and  N_10
REMARK    7  A    between atoms: S_15  and  C_16
REMARK                            x       y       z     vdW  Elec       q    Type
REMARK                         _______ _______ _______ _____ _____    ______ ____
ROOT
ATOM      1  C   UNL     1      -6.627   0.452 126.244  0.00  0.00    +0.000 C 
ENDROOT
BRANCH   1   2
ATOM      2  C   UNL     1      -5.501   0.998 127.128  0.00  0.00    +0.000 C 
BRANCH   2   3
ATOM      3  C   UNL     1      -4.447   1.756 126.319  0.00  0.00    +0.000 C 
BRANCH   3   8
ATOM      4 CL   UNL     1      -2.505   7.116 128.130  0.00  0.00    +0.000 Cl
ATOM      5  C   UNL     1      -3.089   5.541 127.773  0.00  0.00    +0.000 A 
ATOM      6  C   UNL     1      -2.223   4.449 127.792  0.00  0.00    +0.000 A 
ATOM      7  C   UNL     1      -2.684   3.195 127.390  0.00  0.00    +0.000 A 
ATOM      8  C   UNL     1      -4.007   3.046 126.947  0.00  0.00    +0.000 A 
ATOM      9  C   UNL     1      -4.884   4.131 127.038  0.00  0.00    +0.000 A 
ATOM     10  C   UNL     1      -4.428   5.377 127.437  0.00  0.00    +0.000 A 
ENDBRANCH   3   8
ENDBRANCH   2   3
ENDBRANCH   1   2
BRANCH   1  11
ATOM     11  C   UNL     1      -6.890   1.330 124.975  0.00  0.00    +0.000 C 
BRANCH  11  12
ATOM     12  N   UNL     1      -8.248   1.340 124.447  0.00  0.00    +0.000 N 
ATOM     13  C   UNL     1      -8.672   1.754 123.212  0.00  0.00    +0.000 A 
ATOM     14  C   UNL     1      -9.958   1.291 123.094  0.00  0.00    +0.000 A 
ATOM     15  N   UNL     1     -10.378   0.742 124.278  0.00  0.00    +0.000 NA
ATOM     16  C   UNL     1      -9.375   0.904 125.100  0.00  0.00    +0.000 A 
ENDBRANCH  11  12
ENDBRANCH   1  11
BRANCH   1  17
ATOM     17  S   UNL     1      -6.047  -1.243 125.786  0.00  0.00    +0.000 S 
BRANCH  17  18
ATOM     18  C   UNL     1      -7.412  -2.118 125.005  0.00  0.00    +0.000 A 
ATOM     19  C   UNL     1      -8.431  -2.855 125.643  0.00  0.00    +0.000 A 
ATOM     20 CL   UNL     1      -8.409  -3.468 127.257  0.00  0.00    +0.000 Cl
ATOM     21  C   UNL     1      -9.549  -3.310 124.940  0.00  0.00    +0.000 A 
ATOM     22  C   UNL     1      -9.606  -3.218 123.562  0.00  0.00    +0.000 A 
ATOM     23  C   UNL     1      -8.557  -2.623 122.881  0.00  0.00    +0.000 A 
ATOM     24  C   UNL     1      -7.491  -2.046 123.586  0.00  0.00    +0.000 A 
ATOM     25 CL   UNL     1      -6.277  -1.292 122.590  0.00  0.00    +0.000 Cl
ENDBRANCH  17  18
ENDBRANCH   1  17
TORSDOF 7
ENDMDL
