MODEL 1
REMARK VINA RESULT:      -8.8      0.000      0.000
REMARK  Name = Butorphanol
REMARK  4 active torsions:
REMARK  status: ('A' for Active; 'I' for Inactive)
REMARK    1  A    between atoms: C_7  and  O_8
REMARK    2  A    between atoms: C_16  and  O_17
REMARK    3  A    between atoms: N_20  and  C_21
REMARK    4  A    between atoms: C_21  and  C_22
REMARK                            x       y       z     vdW  Elec       q    Type
REMARK                         _______ _______ _______ _____ _____    ______ ____
ROOT
ATOM      1  C   UNL     1      -8.001  -0.929 125.449  0.00  0.00    +0.000 C 
ATOM      2  C   UNL     1      -9.306  -0.343 124.943  0.00  0.00    +0.000 C 
ATOM      3  C   UNL     1      -8.846   0.653 124.017  0.00  0.00    +0.000 A 
ATOM      4  C   UNL     1      -7.541   0.707 123.971  0.00  0.00    +0.000 A 
ATOM      5  C   UNL     1      -6.652   2.288 123.778  0.00  0.00    +0.000 A 
ATOM      6  C   UNL     1      -7.145   3.340 123.198  0.00  0.00    +0.000 A 
ATOM      7  C   UNL     1      -8.462   2.964 122.967  0.00  0.00    +0.000 A 
ATOM      8  C   UNL     1      -9.295   1.738 123.374  0.00  0.00    +0.000 A 
ATOM      9  C   UNL     1      -6.576  -0.953 124.672  0.00  0.00    +0.000 C 
ATOM     10  C   UNL     1      -7.070  -2.723 124.834  0.00  0.00    +0.000 C 
ATOM     11  C   UNL     1      -8.361  -2.917 123.501  0.00  0.00    +0.000 C 
ATOM     12  C   UNL     1      -9.503  -3.492 124.176  0.00  0.00    +0.000 C 
ATOM     13  C   UNL     1      -9.044  -2.775 123.007  0.00  0.00    +0.000 C 
ATOM     14  C   UNL     1      -7.204  -1.684 123.727  0.00  0.00    +0.000 C 
ATOM     15  C   UNL     1      -5.257  -1.002 125.729  0.00  0.00    +0.000 C 
ATOM     16  C   UNL     1      -5.908  -0.358 126.923  0.00  0.00    +0.000 C 
ATOM     17  N   UNL     1      -7.165   0.123 126.424  0.00  0.00    +0.000 NA
ENDROOT
BRANCH   6  18
ATOM     18  O   UNL     1      -6.310   4.131 122.458  0.00  0.00    +0.000 OA
ATOM     19  H   UNL     1      -5.936   4.886 122.979  0.00  0.00    +0.000 HD
ENDBRANCH   6  18
BRANCH  14  20
ATOM     20  O   UNL     1      -5.583  -2.156 123.239  0.00  0.00    +0.000 OA
ATOM     21  H   UNL     1      -4.730  -2.234 123.777  0.00  0.00    +0.000 HD
ENDBRANCH  14  20
BRANCH  17  22
ATOM     22  C   UNL     1      -6.458   1.160 125.512  0.00  0.00    +0.000 C 
BRANCH  22  23
ATOM     23  C   UNL     1      -5.428   2.776 126.406  0.00  0.00    +0.000 C 
ATOM     24  C   UNL     1      -3.451   2.630 126.877  0.00  0.00    +0.000 C 
ATOM     25  C   UNL     1      -3.157   3.999 126.750  0.00  0.00    +0.000 C 
ATOM     26  C   UNL     1      -4.154   3.953 125.664  0.00  0.00    +0.000 C 
ENDBRANCH  22  23
ENDBRANCH  17  22
TORSDOF 4
ENDMDL
MODEL 2
REMARK VINA RESULT:      -8.4      3.643      5.971
REMARK  Name = Butorphanol
REMARK  4 active torsions:
REMARK  status: ('A' for Active; 'I' for Inactive)
REMARK    1  A    between atoms: C_7  and  O_8
REMARK    2  A    between atoms: C_16  and  O_17
REMARK    3  A    between atoms: N_20  and  C_21
REMARK    4  A    between atoms: C_21  and  C_22
REMARK                            x       y       z     vdW  Elec       q    Type
REMARK                         _______ _______ _______ _____ _____    ______ ____
ROOT
ATOM      1  C   UNL     1      -7.003  -2.040 130.272  0.00  0.00    +0.000 C 
ATOM      2  C   UNL     1      -8.050  -3.135 130.187  0.00  0.00    +0.000 C 
ATOM      3  C   UNL     1      -8.138  -3.354 128.771  0.00  0.00    +0.000 A 
ATOM      4  C   UNL     1      -7.346  -2.554 128.106  0.00  0.00    +0.000 A 
ATOM      5  C   UNL     1      -7.831  -1.841 126.498  0.00  0.00    +0.000 A 
ATOM      6  C   UNL     1      -8.672  -2.392 125.677  0.00  0.00    +0.000 A 
ATOM      7  C   UNL     1      -9.150  -3.468 126.415  0.00  0.00    +0.000 A 
ATOM      8  C   UNL     1      -8.952  -3.918 127.871  0.00  0.00    +0.000 A 
ATOM      9  C   UNL     1      -5.827  -1.728 129.197  0.00  0.00    +0.000 C 
ATOM     10  C   UNL     1      -4.952  -2.251 130.735  0.00  0.00    +0.000 C 
ATOM     11  C   UNL     1      -5.156  -4.106 130.719  0.00  0.00    +0.000 C 
ATOM     12  C   UNL     1      -5.701  -4.427 132.019  0.00  0.00    +0.000 C 
ATOM     13  C   UNL     1      -5.509  -4.882 130.659  0.00  0.00    +0.000 C 
ATOM     14  C   UNL     1      -5.377  -2.973 129.462  0.00  0.00    +0.000 C 
ATOM     15  C   UNL     1      -5.340  -0.110 129.214  0.00  0.00    +0.000 C 
ATOM     16  C   UNL     1      -6.613   0.498 129.737  0.00  0.00    +0.000 C 
ATOM     17  N   UNL     1      -7.558  -0.581 129.706  0.00  0.00    +0.000 NA
ENDROOT
BRANCH   6  18
ATOM     18  O   UNL     1      -8.448  -2.272 124.334  0.00  0.00    +0.000 OA
ATOM     19  H   UNL     1      -9.254  -1.986 123.834  0.00  0.00    +0.000 HD
ENDBRANCH   6  18
BRANCH  14  20
ATOM     20  O   UNL     1      -3.866  -2.405 128.766  0.00  0.00    +0.000 OA
ATOM     21  H   UNL     1      -3.692  -1.821 127.959  0.00  0.00    +0.000 HD
ENDBRANCH  14  20
BRANCH  17  22
ATOM     22  C   UNL     1      -7.525  -0.626 128.157  0.00  0.00    +0.000 C 
BRANCH  22  23
ATOM     23  C   UNL     1      -8.290   1.018 127.068  0.00  0.00    +0.000 C 
ATOM     24  C   UNL     1      -7.645   1.416 125.177  0.00  0.00    +0.000 C 
ATOM     25  C   UNL     1      -8.828   2.034 124.734  0.00  0.00    +0.000 C 
ATOM     26  C   UNL     1      -9.487   1.048 125.610  0.00  0.00    +0.000 C 
ENDBRANCH  22  23
ENDBRANCH  17  22
TORSDOF 4
ENDMDL
MODEL 3
REMARK VINA RESULT:      -7.7      3.193      5.317
REMARK  Name = Butorphanol
REMARK  4 active torsions:
REMARK  status: ('A' for Active; 'I' for Inactive)
REMARK    1  A    between atoms: C_7  and  O_8
REMARK    2  A    between atoms: C_16  and  O_17
REMARK    3  A    between atoms: N_20  and  C_21
REMARK    4  A    between atoms: C_21  and  C_22
REMARK                            x       y       z     vdW  Elec       q    Type
REMARK                         _______ _______ _______ _____ _____    ______ ____
ROOT
ATOM      1  C   UNL     1      -6.779  -0.436 125.602  0.00  0.00    +0.000 C 
ATOM      2  C   UNL     1      -5.455  -1.097 125.935  0.00  0.00    +0.000 C 
ATOM      3  C   UNL     1      -5.783  -1.845 127.116  0.00  0.00    +0.000 A 
ATOM      4  C   UNL     1      -7.029  -1.669 127.470  0.00  0.00    +0.000 A 
ATOM      5  C   UNL     1      -7.524  -1.575 129.223  0.00  0.00    +0.000 A 
ATOM      6  C   UNL     1      -6.877  -2.135 130.199  0.00  0.00    +0.000 A 
ATOM      7  C   UNL     1      -5.736  -2.612 129.565  0.00  0.00    +0.000 A 
ATOM      8  C   UNL     1      -5.178  -2.457 128.141  0.00  0.00    +0.000 A 
ATOM      9  C   UNL     1      -8.261  -0.964 125.999  0.00  0.00    +0.000 C 
ATOM     10  C   UNL     1      -8.196  -1.040 124.157  0.00  0.00    +0.000 C 
ATOM     11  C   UNL     1      -7.190  -2.581 123.841  0.00  0.00    +0.000 C 
ATOM     12  C   UNL     1      -6.140  -2.157 122.943  0.00  0.00    +0.000 C 
ATOM     13  C   UNL     1      -6.570  -3.167 123.884  0.00  0.00    +0.000 C 
ATOM     14  C   UNL     1      -7.969  -2.060 125.267  0.00  0.00    +0.000 C 
ATOM     15  C   UNL     1      -9.390   0.288 126.120  0.00  0.00    +0.000 C 
ATOM     16  C   UNL     1      -8.441   1.409 126.447  0.00  0.00    +0.000 C 
ATOM     17  N   UNL     1      -7.188   0.753 126.688  0.00  0.00    +0.000 NA
ENDROOT
BRANCH   6  18
ATOM     18  O   UNL     1      -7.588  -2.654 131.244  0.00  0.00    +0.000 OA
ATOM     19  H   UNL     1      -7.009  -3.014 131.962  0.00  0.00    +0.000 HD
ENDBRANCH   6  18
BRANCH  14  20
ATOM     20  O   UNL     1      -9.708  -2.312 125.240  0.00  0.00    +0.000 OA
ATOM     21  H   UNL     1     -10.250  -3.163 125.308  0.00  0.00    +0.000 HD
ENDBRANCH  14  20
BRANCH  17  22
ATOM     22  C   UNL     1      -7.742   0.064 127.963  0.00  0.00    +0.000 C 
BRANCH  22  23
ATOM     23  C   UNL     1      -8.172   1.247 129.661  0.00  0.00    +0.000 C 
ATOM     24  C   UNL     1      -7.411   3.127 129.852  0.00  0.00    +0.000 C 
ATOM     25  C   UNL     1      -8.453   3.640 130.645  0.00  0.00    +0.000 C 
ATOM     26  C   UNL     1      -9.301   2.749 129.831  0.00  0.00    +0.000 C 
ENDBRANCH  22  23
ENDBRANCH  17  22
TORSDOF 4
ENDMDL
MODEL 4
REMARK VINA RESULT:      -7.5      1.766      2.192
REMARK  Name = Butorphanol
REMARK  4 active torsions:
REMARK  status: ('A' for Active; 'I' for Inactive)
REMARK    1  A    between atoms: C_7  and  O_8
REMARK    2  A    between atoms: C_16  and  O_17
REMARK    3  A    between atoms: N_20  and  C_21
REMARK    4  A    between atoms: C_21  and  C_22
REMARK                            x       y       z     vdW  Elec       q    Type
REMARK                         _______ _______ _______ _____ _____    ______ ____
ROOT
ATOM      1  C   UNL     1      -8.279  -1.213 125.785  0.00  0.00    +0.000 C 
ATOM      2  C   UNL     1      -9.059  -0.213 124.952  0.00  0.00    +0.000 C 
ATOM      3  C   UNL     1      -8.052   0.761 124.635  0.00  0.00    +0.000 A 
ATOM      4  C   UNL     1      -6.901   0.460 125.175  0.00  0.00    +0.000 A 
ATOM      5  C   UNL     1      -5.786   1.745 125.836  0.00  0.00    +0.000 A 
ATOM      6  C   UNL     1      -5.757   2.974 125.421  0.00  0.00    +0.000 A 
ATOM      7  C   UNL     1      -6.838   3.020 124.548  0.00  0.00    +0.000 A 
ATOM      8  C   UNL     1      -7.950   2.020 124.193  0.00  0.00    +0.000 A 
ATOM      9  C   UNL     1      -6.682  -1.496 125.729  0.00  0.00    +0.000 C 
ATOM     10  C   UNL     1      -7.472  -3.062 125.159  0.00  0.00    +0.000 C 
ATOM     11  C   UNL     1      -7.964  -2.664 123.403  0.00  0.00    +0.000 C 
ATOM     12  C   UNL     1      -9.366  -3.008 123.327  0.00  0.00    +0.000 C 
ATOM     13  C   UNL     1      -8.287  -2.257 122.724  0.00  0.00    +0.000 C 
ATOM     14  C   UNL     1      -6.880  -1.853 124.443  0.00  0.00    +0.000 C 
ATOM     15  C   UNL     1      -6.071  -2.085 127.191  0.00  0.00    +0.000 C 
ATOM     16  C   UNL     1      -7.106  -1.499 128.113  0.00  0.00    +0.000 C 
ATOM     17  N   UNL     1      -7.864  -0.613 127.277  0.00  0.00    +0.000 NA
ENDROOT
BRANCH   6  18
ATOM     18  O   UNL     1      -4.553   3.619 125.369  0.00  0.00    +0.000 OA
ATOM     19  H   UNL     1      -4.577   4.433 124.805  0.00  0.00    +0.000 HD
ENDBRANCH   6  18
BRANCH  14  20
ATOM     20  O   UNL     1      -5.327  -2.663 124.593  0.00  0.00    +0.000 OA
ATOM     21  H   UNL     1      -4.620  -2.600 125.313  0.00  0.00    +0.000 HD
ENDBRANCH  14  20
BRANCH  17  22
ATOM     22  C   UNL     1      -6.646   0.328 127.091  0.00  0.00    +0.000 C 
BRANCH  22  23
ATOM     23  C   UNL     1      -5.952   1.444 128.748  0.00  0.00    +0.000 C 
ATOM     24  C   UNL     1      -4.792   0.580 130.184  0.00  0.00    +0.000 C 
ATOM     25  C   UNL     1      -4.109   1.751 130.560  0.00  0.00    +0.000 C 
ATOM     26  C   UNL     1      -4.220   2.088 129.129  0.00  0.00    +0.000 C 
ENDBRANCH  22  23
ENDBRANCH  17  22
TORSDOF 4
ENDMDL
MODEL 5
REMARK VINA RESULT:      -7.5      3.524      5.805
REMARK  Name = Butorphanol
REMARK  4 active torsions:
REMARK  status: ('A' for Active; 'I' for Inactive)
REMARK    1  A    between atoms: C_7  and  O_8
REMARK    2  A    between atoms: C_16  and  O_17
REMARK    3  A    between atoms: N_20  and  C_21
REMARK    4  A    between atoms: C_21  and  C_22
REMARK                            x       y       z     vdW  Elec       q    Type
REMARK                         _______ _______ _______ _____ _____    ______ ____
ROOT
ATOM      1  C   UNL     1      -6.343  -0.191 129.712  0.00  0.00    +0.000 C 
ATOM      2  C   UNL     1      -7.020   1.156 129.541  0.00  0.00    +0.000 C 
ATOM      3  C   UNL     1      -7.939   0.893 128.469  0.00  0.00    +0.000 A 
ATOM      4  C   UNL     1      -7.841  -0.336 128.037  0.00  0.00    +0.000 A 
ATOM      5  C   UNL     1      -8.014  -0.749 126.269  0.00  0.00    +0.000 A 
ATOM      6  C   UNL     1      -8.698  -0.049 125.417  0.00  0.00    +0.000 A 
ATOM      7  C   UNL     1      -9.056   1.066 126.164  0.00  0.00    +0.000 A 
ATOM      8  C   UNL     1      -8.683   1.554 127.574  0.00  0.00    +0.000 A 
ATOM      9  C   UNL     1      -6.952  -1.646 129.332  0.00  0.00    +0.000 C 
ATOM     10  C   UNL     1      -6.756  -1.667 131.166  0.00  0.00    +0.000 C 
ATOM     11  C   UNL     1      -8.214  -0.659 131.750  0.00  0.00    +0.000 C 
ATOM     12  C   UNL     1      -7.643   0.343 132.622  0.00  0.00    +0.000 C 
ATOM     13  C   UNL     1      -8.788  -0.030 131.821  0.00  0.00    +0.000 C 
ATOM     14  C   UNL     1      -7.923  -1.375 130.229  0.00  0.00    +0.000 C 
ATOM     15  C   UNL     1      -5.753  -2.783 128.976  0.00  0.00    +0.000 C 
ATOM     16  C   UNL     1      -4.674  -1.834 128.530  0.00  0.00    +0.000 C 
ATOM     17  N   UNL     1      -5.334  -0.563 128.446  0.00  0.00    +0.000 NA
ENDROOT
BRANCH   6  18
ATOM     18  O   UNL     1      -9.379  -0.704 124.429  0.00  0.00    +0.000 OA
ATOM     19  H   UNL     1     -10.362  -0.652 124.540  0.00  0.00    +0.000 HD
ENDBRANCH   6  18
BRANCH  14  20
ATOM     20  O   UNL     1      -8.202  -3.111 130.215  0.00  0.00    +0.000 OA
ATOM     21  H   UNL     1      -9.065  -3.638 130.210  0.00  0.00    +0.000 HD
ENDBRANCH  14  20
BRANCH  17  22
ATOM     22  C   UNL     1      -6.213  -1.047 127.263  0.00  0.00    +0.000 C 
BRANCH  22  23
ATOM     23  C   UNL     1      -5.293  -1.453 125.403  0.00  0.00    +0.000 C 
ATOM     24  C   UNL     1      -5.292  -3.334 124.620  0.00  0.00    +0.000 C 
ATOM     25  C   UNL     1      -5.238  -2.942 123.270  0.00  0.00    +0.000 C 
ATOM     26  C   UNL     1      -6.074  -1.816 123.724  0.00  0.00    +0.000 C 
ENDBRANCH  22  23
ENDBRANCH  17  22
TORSDOF 4
ENDMDL
MODEL 6
REMARK VINA RESULT:      -7.4      2.265      4.809
REMARK  Name = Butorphanol
REMARK  4 active torsions:
REMARK  status: ('A' for Active; 'I' for Inactive)
REMARK    1  A    between atoms: C_7  and  O_8
REMARK    2  A    between atoms: C_16  and  O_17
REMARK    3  A    between atoms: N_20  and  C_21
REMARK    4  A    between atoms: C_21  and  C_22
REMARK                            x       y       z     vdW  Elec       q    Type
REMARK                         _______ _______ _______ _____ _____    ______ ____
ROOT
ATOM      1  C   UNL     1      -7.999  -1.034 127.502  0.00  0.00    +0.000 C 
ATOM      2  C   UNL     1      -8.643  -2.340 127.079  0.00  0.00    +0.000 C 
ATOM      3  C   UNL     1      -7.802  -2.750 125.990  0.00  0.00    +0.000 A 
ATOM      4  C   UNL     1      -6.856  -1.879 125.756  0.00  0.00    +0.000 A 
ATOM      5  C   UNL     1      -6.296  -1.502 124.061  0.00  0.00    +0.000 A 
ATOM      6  C   UNL     1      -6.375  -2.328 123.063  0.00  0.00    +0.000 A 
ATOM      7  C   UNL     1      -7.097  -3.385 123.605  0.00  0.00    +0.000 A 
ATOM      8  C   UNL     1      -7.811  -3.592 124.951  0.00  0.00    +0.000 A 
ATOM      9  C   UNL     1      -6.449  -0.598 127.297  0.00  0.00    +0.000 C 
ATOM     10  C   UNL     1      -6.683  -0.710 129.123  0.00  0.00    +0.000 C 
ATOM     11  C   UNL     1      -6.641  -2.550 129.434  0.00  0.00    +0.000 C 
ATOM     12  C   UNL     1      -7.844  -2.823 130.189  0.00  0.00    +0.000 C 
ATOM     13  C   UNL     1      -6.797  -3.388 129.366  0.00  0.00    +0.000 C 
ATOM     14  C   UNL     1      -6.140  -1.664 128.065  0.00  0.00    +0.000 C 
ATOM     15  C   UNL     1      -6.248   1.078 127.210  0.00  0.00    +0.000 C 
ATOM     16  C   UNL     1      -7.622   1.439 126.714  0.00  0.00    +0.000 C 
ATOM     17  N   UNL     1      -8.223   0.178 126.388  0.00  0.00    +0.000 NA
ENDROOT
BRANCH   6  18
ATOM     18  O   UNL     1      -5.373  -2.330 122.133  0.00  0.00    +0.000 OA
ATOM     19  H   UNL     1      -4.834  -3.161 122.151  0.00  0.00    +0.000 HD
ENDBRANCH   6  18
BRANCH  14  20
ATOM     20  O   UNL     1      -4.595  -0.857 128.288  0.00  0.00    +0.000 OA
ATOM     21  H   UNL     1      -4.378   0.120 128.431  0.00  0.00    +0.000 HD
ENDBRANCH  14  20
BRANCH  17  22
ATOM     22  C   UNL     1      -7.222  -0.052 125.226  0.00  0.00    +0.000 C 
BRANCH  22  23
ATOM     23  C   UNL     1      -7.417   1.102 123.465  0.00  0.00    +0.000 C 
ATOM     24  C   UNL     1      -9.157   2.067 123.028  0.00  0.00    +0.000 C 
ATOM     25  C   UNL     1      -8.577   3.109 122.282  0.00  0.00    +0.000 C 
ATOM     26  C   UNL     1      -7.471   2.975 123.249  0.00  0.00    +0.000 C 
ENDBRANCH  22  23
ENDBRANCH  17  22
TORSDOF 4
ENDMDL
MODEL 7
REMARK VINA RESULT:      -7.3      3.280      4.905
REMARK  Name = Butorphanol
REMARK  4 active torsions:
REMARK  status: ('A' for Active; 'I' for Inactive)
REMARK    1  A    between atoms: C_7  and  O_8
REMARK    2  A    between atoms: C_16  and  O_17
REMARK    3  A    between atoms: N_20  and  C_21
REMARK    4  A    between atoms: C_21  and  C_22
REMARK                            x       y       z     vdW  Elec       q    Type
REMARK                         _______ _______ _______ _____ _____    ______ ____
ROOT
ATOM      1  C   UNL     1      -6.892  -1.168 125.922  0.00  0.00    +0.000 C 
ATOM      2  C   UNL     1      -6.664  -2.527 126.556  0.00  0.00    +0.000 C 
ATOM      3  C   UNL     1      -7.339  -2.386 127.815  0.00  0.00    +0.000 A 
ATOM      4  C   UNL     1      -7.852  -1.192 127.959  0.00  0.00    +0.000 A 
ATOM      5  C   UNL     1      -7.868  -0.342 129.573  0.00  0.00    +0.000 A 
ATOM      6  C   UNL     1      -7.866  -0.949 130.720  0.00  0.00    +0.000 A 
ATOM      7  C   UNL     1      -7.689  -2.278 130.356  0.00  0.00    +0.000 A 
ATOM      8  C   UNL     1      -7.399  -2.973 129.016  0.00  0.00    +0.000 A 
ATOM      9  C   UNL     1      -8.113  -0.142 126.224  0.00  0.00    +0.000 C 
ATOM     10  C   UNL     1      -8.331  -0.650 124.464  0.00  0.00    +0.000 C 
ATOM     11  C   UNL     1      -9.072  -2.356 124.614  0.00  0.00    +0.000 C 
ATOM     12  C   UNL     1      -8.230  -3.197 123.792  0.00  0.00    +0.000 C 
ATOM     13  C   UNL     1      -9.204  -3.164 124.861  0.00  0.00    +0.000 C 
ATOM     14  C   UNL     1      -8.928  -1.123 125.785  0.00  0.00    +0.000 C 
ATOM     15  C   UNL     1      -7.698   1.470 125.930  0.00  0.00    +0.000 C 
ATOM     16  C   UNL     1      -6.212   1.356 126.135  0.00  0.00    +0.000 C 
ATOM     17  N   UNL     1      -6.028   0.038 126.670  0.00  0.00    +0.000 NA
ENDROOT
BRANCH   6  18
ATOM     18  O   UNL     1      -8.582  -0.404 131.749  0.00  0.00    +0.000 OA
ATOM     19  H   UNL     1      -9.012  -1.088 132.323  0.00  0.00    +0.000 HD
ENDBRANCH   6  18
BRANCH  14  20
ATOM     20  O   UNL     1     -10.109   0.164 125.585  0.00  0.00    +0.000 OA
ATOM     21  H   UNL     1     -11.114   0.157 125.697  0.00  0.00    +0.000 HD
ENDBRANCH  14  20
BRANCH  17  22
ATOM     22  C   UNL     1      -6.772   0.416 127.978  0.00  0.00    +0.000 C 
BRANCH  22  23
ATOM     23  C   UNL     1      -5.940   1.896 129.237  0.00  0.00    +0.000 C 
ATOM     24  C   UNL     1      -4.818   1.386 130.860  0.00  0.00    +0.000 C 
ATOM     25  C   UNL     1      -4.028   2.549 130.877  0.00  0.00    +0.000 C 
ATOM     26  C   UNL     1      -4.149   2.466 129.410  0.00  0.00    +0.000 C 
ENDBRANCH  22  23
ENDBRANCH  17  22
TORSDOF 4
ENDMDL
MODEL 8
REMARK VINA RESULT:      -7.2      2.812      4.502
REMARK  Name = Butorphanol
REMARK  4 active torsions:
REMARK  status: ('A' for Active; 'I' for Inactive)
REMARK    1  A    between atoms: C_7  and  O_8
REMARK    2  A    between atoms: C_16  and  O_17
REMARK    3  A    between atoms: N_20  and  C_21
REMARK    4  A    between atoms: C_21  and  C_22
REMARK                            x       y       z     vdW  Elec       q    Type
REMARK                         _______ _______ _______ _____ _____    ______ ____
ROOT
ATOM      1  C   UNL     1      -6.370   1.649 125.519  0.00  0.00    +0.000 C 
ATOM      2  C   UNL     1      -7.076   0.649 126.413  0.00  0.00    +0.000 C 
ATOM      3  C   UNL     1      -7.888   1.503 127.234  0.00  0.00    +0.000 A 
ATOM      4  C   UNL     1      -7.709   2.765 126.944  0.00  0.00    +0.000 A 
ATOM      5  C   UNL     1      -7.711   4.056 128.234  0.00  0.00    +0.000 A 
ATOM      6  C   UNL     1      -8.342   3.960 129.364  0.00  0.00    +0.000 A 
ATOM      7  C   UNL     1      -8.803   2.650 129.340  0.00  0.00    +0.000 A 
ATOM      8  C   UNL     1      -8.573   1.469 128.383  0.00  0.00    +0.000 A 
ATOM      9  C   UNL     1      -6.892   3.130 125.106  0.00  0.00    +0.000 C 
ATOM     10  C   UNL     1      -6.857   2.171 123.531  0.00  0.00    +0.000 C 
ATOM     11  C   UNL     1      -8.395   1.121 123.650  0.00  0.00    +0.000 C 
ATOM     12  C   UNL     1      -7.938  -0.229 123.408  0.00  0.00    +0.000 C 
ATOM     13  C   UNL     1      -8.995   0.593 123.954  0.00  0.00    +0.000 C 
ATOM     14  C   UNL     1      -7.947   2.504 124.544  0.00  0.00    +0.000 C 
ATOM     15  C   UNL     1      -5.627   4.189 124.739  0.00  0.00    +0.000 C 
ATOM     16  C   UNL     1      -4.547   3.535 125.558  0.00  0.00    +0.000 C 
ATOM     17  N   UNL     1      -5.242   2.552 126.338  0.00  0.00    +0.000 NA
ENDROOT
BRANCH   6  18
ATOM     18  O   UNL     1      -8.910   5.086 129.894  0.00  0.00    +0.000 OA
ATOM     19  H   UNL     1      -8.255   5.664 130.360  0.00  0.00    +0.000 HD
ENDBRANCH   6  18
BRANCH  14  20
ATOM     20  O   UNL     1      -8.162   4.004 123.654  0.00  0.00    +0.000 OA
ATOM     21  H   UNL     1      -9.004   4.466 123.339  0.00  0.00    +0.000 HD
ENDBRANCH  14  20
BRANCH  17  22
ATOM     22  C   UNL     1      -5.995   3.649 127.134  0.00  0.00    +0.000 C 
BRANCH  22  23
ATOM     23  C   UNL     1      -4.891   4.952 128.379  0.00  0.00    +0.000 C 
ATOM     24  C   UNL     1      -2.938   4.577 128.823  0.00  0.00    +0.000 C 
ATOM     25  C   UNL     1      -2.558   5.918 129.012  0.00  0.00    +0.000 C 
ATOM     26  C   UNL     1      -3.530   6.182 127.936  0.00  0.00    +0.000 C 
ENDBRANCH  22  23
ENDBRANCH  17  22
TORSDOF 4
ENDMDL
MODEL 9
REMARK VINA RESULT:      -7.1      5.981      8.150
REMARK  Name = Butorphanol
REMARK  4 active torsions:
REMARK  status: ('A' for Active; 'I' for Inactive)
REMARK    1  A    between atoms: C_7  and  O_8
REMARK    2  A    between atoms: C_16  and  O_17
REMARK    3  A    between atoms: N_20  and  C_21
REMARK    4  A    between atoms: C_21  and  C_22
REMARK                            x       y       z     vdW  Elec       q    Type
REMARK                         _______ _______ _______ _____ _____    ______ ____
ROOT
ATOM      1  C   UNL     1      -6.524  -3.061 129.401  0.00  0.00    +0.000 C 
ATOM      2  C   UNL     1      -7.739  -2.186 129.154  0.00  0.00    +0.000 C 
ATOM      3  C   UNL     1      -7.565  -1.150 130.133  0.00  0.00    +0.000 A 
ATOM      4  C   UNL     1      -6.496  -1.345 130.859  0.00  0.00    +0.000 A 
ATOM      5  C   UNL     1      -6.459  -0.945 132.639  0.00  0.00    +0.000 A 
ATOM      6  C   UNL     1      -7.202  -0.042 133.202  0.00  0.00    +0.000 A 
ATOM      7  C   UNL     1      -8.048   0.338 132.167  0.00  0.00    +0.000 A 
ATOM      8  C   UNL     1      -8.269  -0.188 130.740  0.00  0.00    +0.000 A 
ATOM      9  C   UNL     1      -5.105  -2.602 130.044  0.00  0.00    +0.000 C 
ATOM     10  C   UNL     1      -4.715  -3.094 128.309  0.00  0.00    +0.000 C 
ATOM     11  C   UNL     1      -5.306  -1.627 127.319  0.00  0.00    +0.000 C 
ATOM     12  C   UNL     1      -6.173  -2.189 126.309  0.00  0.00    +0.000 C 
ATOM     13  C   UNL     1      -5.796  -0.991 127.026  0.00  0.00    +0.000 C 
ATOM     14  C   UNL     1      -5.002  -1.762 128.993  0.00  0.00    +0.000 C 
ATOM     15  C   UNL     1      -4.297  -3.872 130.813  0.00  0.00    +0.000 C 
ATOM     16  C   UNL     1      -5.491  -4.724 131.146  0.00  0.00    +0.000 C 
ATOM     17  N   UNL     1      -6.617  -3.891 130.836  0.00  0.00    +0.000 NA
ENDROOT
BRANCH   6  18
ATOM     18  O   UNL     1      -6.674   0.694 134.226  0.00  0.00    +0.000 OA
ATOM     19  H   UNL     1      -5.697   0.565 134.328  0.00  0.00    +0.000 HD
ENDBRANCH   6  18
BRANCH  14  20
ATOM     20  O   UNL     1      -3.291  -1.724 129.393  0.00  0.00    +0.000 OA
ATOM     21  H   UNL     1      -2.612  -0.979 129.309  0.00  0.00    +0.000 HD
ENDBRANCH  14  20
BRANCH  17  22
ATOM     22  C   UNL     1      -6.263  -2.907 131.981  0.00  0.00    +0.000 C 
BRANCH  22  23
ATOM     23  C   UNL     1      -6.458  -3.553 133.985  0.00  0.00    +0.000 C 
ATOM     24  C   UNL     1      -8.264  -4.131 134.731  0.00  0.00    +0.000 C 
ATOM     25  C   UNL     1      -7.759  -5.027 135.690  0.00  0.00    +0.000 C 
ATOM     26  C   UNL     1      -6.725  -5.290 134.672  0.00  0.00    +0.000 C 
ENDBRANCH  22  23
ENDBRANCH  17  22
TORSDOF 4
ENDMDL
