MODEL 1
REMARK VINA RESULT:      -3.6      0.000      0.000
REMARK  Name = Butylene glycol
REMARK  5 active torsions:
REMARK  status: ('A' for Active; 'I' for Inactive)
REMARK    1  A    between atoms: C_1  and  C_2
REMARK    2  A    between atoms: C_2  and  O_3
REMARK    3  A    between atoms: C_2  and  C_4
REMARK    4  A    between atoms: C_4  and  C_5
REMARK    5  A    between atoms: C_5  and  O_6
REMARK                            x       y       z     vdW  Elec       q    Type
REMARK                         _______ _______ _______ _____ _____    ______ ____
ROOT
ATOM      1  C   UNL     1      -5.937   5.885 118.533  0.00  0.00    +0.000 C 
ATOM      2  C   UNL     1      -5.249   5.170 119.687  0.00  0.00    +0.000 C 
ENDROOT
BRANCH   2   3
ATOM      3  O   UNL     1      -4.654   6.142 120.545  0.00  0.00    +0.000 OA
ATOM      4  H   UNL     1      -5.027   6.032 121.435  0.00  0.00    +0.000 HD
ENDBRANCH   2   3
BRANCH   2   5
ATOM      5  C   UNL     1      -6.236   4.315 120.479  0.00  0.00    +0.000 C 
BRANCH   5   6
ATOM      6  C   UNL     1      -5.610   3.758 121.751  0.00  0.00    +0.000 C 
BRANCH   6   7
ATOM      7  O   UNL     1      -5.858   4.653 122.829  0.00  0.00    +0.000 OA
ATOM      8  H   UNL     1      -5.065   5.203 122.939  0.00  0.00    +0.000 HD
ENDBRANCH   6   7
ENDBRANCH   5   6
ENDBRANCH   2   5
TORSDOF 4
ENDMDL
MODEL 2
REMARK VINA RESULT:      -3.4      8.952      9.966
REMARK  Name = Butylene glycol
REMARK  5 active torsions:
REMARK  status: ('A' for Active; 'I' for Inactive)
REMARK    1  A    between atoms: C_1  and  C_2
REMARK    2  A    between atoms: C_2  and  O_3
REMARK    3  A    between atoms: C_2  and  C_4
REMARK    4  A    between atoms: C_4  and  C_5
REMARK    5  A    between atoms: C_5  and  O_6
REMARK                            x       y       z     vdW  Elec       q    Type
REMARK                         _______ _______ _______ _____ _____    ______ ____
ROOT
ATOM      1  C   UNL     1     -13.546   7.448 127.790  0.00  0.00    +0.000 C 
ATOM      2  C   UNL     1     -12.253   7.392 128.592  0.00  0.00    +0.000 C 
ENDROOT
BRANCH   2   3
ATOM      3  O   UNL     1     -11.912   6.027 128.824  0.00  0.00    +0.000 OA
ATOM      4  H   UNL     1     -11.569   5.949 129.730  0.00  0.00    +0.000 HD
ENDBRANCH   2   3
BRANCH   2   5
ATOM      5  C   UNL     1     -11.114   8.094 127.857  0.00  0.00    +0.000 C 
BRANCH   5   6
ATOM      6  C   UNL     1     -11.054   7.692 126.389  0.00  0.00    +0.000 C 
BRANCH   6   7
ATOM      7  O   UNL     1     -10.469   6.400 126.277  0.00  0.00    +0.000 OA
ATOM      8  H   UNL     1     -10.133   6.155 127.155  0.00  0.00    +0.000 HD
ENDBRANCH   6   7
ENDBRANCH   5   6
ENDBRANCH   2   5
TORSDOF 4
ENDMDL
MODEL 3
REMARK VINA RESULT:      -3.3      9.279     10.052
REMARK  Name = Butylene glycol
REMARK  5 active torsions:
REMARK  status: ('A' for Active; 'I' for Inactive)
REMARK    1  A    between atoms: C_1  and  C_2
REMARK    2  A    between atoms: C_2  and  O_3
REMARK    3  A    between atoms: C_2  and  C_4
REMARK    4  A    between atoms: C_4  and  C_5
REMARK    5  A    between atoms: C_5  and  O_6
REMARK                            x       y       z     vdW  Elec       q    Type
REMARK                         _______ _______ _______ _____ _____    ______ ____
ROOT
ATOM      1  C   UNL     1     -10.874   8.372 127.776  0.00  0.00    +0.000 C 
ATOM      2  C   UNL     1     -11.946   7.650 126.972  0.00  0.00    +0.000 C 
ENDROOT
BRANCH   2   3
ATOM      3  O   UNL     1     -11.370   6.496 126.364  0.00  0.00    +0.000 OA
ATOM      4  H   UNL     1     -11.286   5.805 127.041  0.00  0.00    +0.000 HD
ENDBRANCH   2   3
BRANCH   2   5
ATOM      5  C   UNL     1     -13.120   7.239 127.857  0.00  0.00    +0.000 C 
BRANCH   5   6
ATOM      6  C   UNL     1     -12.664   6.843 129.256  0.00  0.00    +0.000 C 
BRANCH   6   7
ATOM      7  O   UNL     1     -12.139   5.522 129.225  0.00  0.00    +0.000 OA
ATOM      8  H   UNL     1     -12.544   5.065 128.469  0.00  0.00    +0.000 HD
ENDBRANCH   6   7
ENDBRANCH   5   6
ENDBRANCH   2   5
TORSDOF 4
ENDMDL
MODEL 4
REMARK VINA RESULT:      -3.2      9.613     10.304
REMARK  Name = Butylene glycol
REMARK  5 active torsions:
REMARK  status: ('A' for Active; 'I' for Inactive)
REMARK    1  A    between atoms: C_1  and  C_2
REMARK    2  A    between atoms: C_2  and  O_3
REMARK    3  A    between atoms: C_2  and  C_4
REMARK    4  A    between atoms: C_4  and  C_5
REMARK    5  A    between atoms: C_5  and  O_6
REMARK                            x       y       z     vdW  Elec       q    Type
REMARK                         _______ _______ _______ _____ _____    ______ ____
ROOT
ATOM      1  C   UNL     1     -10.200   7.495 129.628  0.00  0.00    +0.000 C 
ATOM      2  C   UNL     1     -11.509   8.037 129.071  0.00  0.00    +0.000 C 
ENDROOT
BRANCH   2   3
ATOM      3  O   UNL     1     -11.220   8.945 128.010  0.00  0.00    +0.000 OA
ATOM      4  H   UNL     1     -11.222   8.449 127.175  0.00  0.00    +0.000 HD
ENDBRANCH   2   3
BRANCH   2   5
ATOM      5  C   UNL     1     -12.403   6.910 128.560  0.00  0.00    +0.000 C 
BRANCH   5   6
ATOM      6  C   UNL     1     -12.770   7.099 127.094  0.00  0.00    +0.000 C 
BRANCH   6   7
ATOM      7  O   UNL     1     -11.701   6.637 126.276  0.00  0.00    +0.000 OA
ATOM      8  H   UNL     1     -11.619   5.679 126.417  0.00  0.00    +0.000 HD
ENDBRANCH   6   7
ENDBRANCH   5   6
ENDBRANCH   2   5
TORSDOF 4
ENDMDL
MODEL 5
REMARK VINA RESULT:      -3.2      9.805     10.553
REMARK  Name = Butylene glycol
REMARK  5 active torsions:
REMARK  status: ('A' for Active; 'I' for Inactive)
REMARK    1  A    between atoms: C_1  and  C_2
REMARK    2  A    between atoms: C_2  and  O_3
REMARK    3  A    between atoms: C_2  and  C_4
REMARK    4  A    between atoms: C_4  and  C_5
REMARK    5  A    between atoms: C_5  and  O_6
REMARK                            x       y       z     vdW  Elec       q    Type
REMARK                         _______ _______ _______ _____ _____    ______ ____
ROOT
ATOM      1  C   UNL     1     -10.610   7.949 127.664  0.00  0.00    +0.000 C 
ATOM      2  C   UNL     1     -11.959   7.764 126.984  0.00  0.00    +0.000 C 
ENDROOT
BRANCH   2   3
ATOM      3  O   UNL     1     -11.961   6.517 126.293  0.00  0.00    +0.000 OA
ATOM      4  H   UNL     1     -12.880   6.293 126.070  0.00  0.00    +0.000 HD
ENDBRANCH   2   3
BRANCH   2   5
ATOM      5  C   UNL     1     -13.100   7.798 127.997  0.00  0.00    +0.000 C 
BRANCH   5   6
ATOM      6  C   UNL     1     -12.866   8.845 129.078  0.00  0.00    +0.000 C 
BRANCH   6   7
ATOM      7  O   UNL     1     -13.332  10.109 128.621  0.00  0.00    +0.000 OA
ATOM      8  H   UNL     1     -12.951  10.258 127.740  0.00  0.00    +0.000 HD
ENDBRANCH   6   7
ENDBRANCH   5   6
ENDBRANCH   2   5
TORSDOF 4
ENDMDL
MODEL 6
REMARK VINA RESULT:      -3.2     11.505     11.891
REMARK  Name = Butylene glycol
REMARK  5 active torsions:
REMARK  status: ('A' for Active; 'I' for Inactive)
REMARK    1  A    between atoms: C_1  and  C_2
REMARK    2  A    between atoms: C_2  and  O_3
REMARK    3  A    between atoms: C_2  and  C_4
REMARK    4  A    between atoms: C_4  and  C_5
REMARK    5  A    between atoms: C_5  and  O_6
REMARK                            x       y       z     vdW  Elec       q    Type
REMARK                         _______ _______ _______ _____ _____    ______ ____
ROOT
ATOM      1  C   UNL     1     -13.648   7.547 127.981  0.00  0.00    +0.000 C 
ATOM      2  C   UNL     1     -12.654   8.385 128.772  0.00  0.00    +0.000 C 
ENDROOT
BRANCH   2   3
ATOM      3  O   UNL     1     -12.987   9.763 128.621  0.00  0.00    +0.000 OA
ATOM      4  H   UNL     1     -12.398  10.148 127.952  0.00  0.00    +0.000 HD
ENDBRANCH   2   3
BRANCH   2   5
ATOM      5  C   UNL     1     -12.662   8.007 130.251  0.00  0.00    +0.000 C 
BRANCH   5   6
ATOM      6  C   UNL     1     -12.075   6.621 130.485  0.00  0.00    +0.000 C 
BRANCH   6   7
ATOM      7  O   UNL     1     -12.245   6.260 131.850  0.00  0.00    +0.000 OA
ATOM      8  H   UNL     1     -13.116   6.587 132.131  0.00  0.00    +0.000 HD
ENDBRANCH   6   7
ENDBRANCH   5   6
ENDBRANCH   2   5
TORSDOF 4
ENDMDL
MODEL 7
REMARK VINA RESULT:      -3.2      9.598      9.890
REMARK  Name = Butylene glycol
REMARK  5 active torsions:
REMARK  status: ('A' for Active; 'I' for Inactive)
REMARK    1  A    between atoms: C_1  and  C_2
REMARK    2  A    between atoms: C_2  and  O_3
REMARK    3  A    between atoms: C_2  and  C_4
REMARK    4  A    between atoms: C_4  and  C_5
REMARK    5  A    between atoms: C_5  and  O_6
REMARK                            x       y       z     vdW  Elec       q    Type
REMARK                         _______ _______ _______ _____ _____    ______ ____
ROOT
ATOM      1  C   UNL     1     -13.739   7.523 127.722  0.00  0.00    +0.000 C 
ATOM      2  C   UNL     1     -12.290   7.124 127.478  0.00  0.00    +0.000 C 
ENDROOT
BRANCH   2   3
ATOM      3  O   UNL     1     -12.160   6.648 126.140  0.00  0.00    +0.000 OA
ATOM      4  H   UNL     1     -12.720   5.861 126.041  0.00  0.00    +0.000 HD
ENDBRANCH   2   3
BRANCH   2   5
ATOM      5  C   UNL     1     -11.344   8.301 127.705  0.00  0.00    +0.000 C 
BRANCH   5   6
ATOM      6  C   UNL     1     -10.345   8.018 128.820  0.00  0.00    +0.000 C 
BRANCH   6   7
ATOM      7  O   UNL     1      -9.690   6.781 128.564  0.00  0.00    +0.000 OA
ATOM      8  H   UNL     1      -9.497   6.371 129.423  0.00  0.00    +0.000 HD
ENDBRANCH   6   7
ENDBRANCH   5   6
ENDBRANCH   2   5
TORSDOF 4
ENDMDL
MODEL 8
REMARK VINA RESULT:      -3.1      7.560      9.104
REMARK  Name = Butylene glycol
REMARK  5 active torsions:
REMARK  status: ('A' for Active; 'I' for Inactive)
REMARK    1  A    between atoms: C_1  and  C_2
REMARK    2  A    between atoms: C_2  and  O_3
REMARK    3  A    between atoms: C_2  and  C_4
REMARK    4  A    between atoms: C_4  and  C_5
REMARK    5  A    between atoms: C_5  and  O_6
REMARK                            x       y       z     vdW  Elec       q    Type
REMARK                         _______ _______ _______ _____ _____    ______ ____
ROOT
ATOM      1  C   UNL     1      -8.939  -2.846 125.203  0.00  0.00    +0.000 C 
ATOM      2  C   UNL     1      -8.941  -3.247 123.735  0.00  0.00    +0.000 C 
ENDROOT
BRANCH   2   3
ATOM      3  O   UNL     1     -10.277  -3.548 123.340  0.00  0.00    +0.000 OA
ATOM      4  H   UNL     1     -10.782  -2.719 123.315  0.00  0.00    +0.000 HD
ENDBRANCH   2   3
BRANCH   2   5
ATOM      5  C   UNL     1      -8.378  -2.134 122.855  0.00  0.00    +0.000 C 
BRANCH   5   6
ATOM      6  C   UNL     1      -8.987  -0.780 123.196  0.00  0.00    +0.000 C 
BRANCH   6   7
ATOM      7  O   UNL     1     -10.249  -0.654 122.552  0.00  0.00    +0.000 OA
ATOM      8  H   UNL     1     -10.930  -0.923 123.190  0.00  0.00    +0.000 HD
ENDBRANCH   6   7
ENDBRANCH   5   6
ENDBRANCH   2   5
TORSDOF 4
ENDMDL
MODEL 9
REMARK VINA RESULT:      -3.1     10.689     11.589
REMARK  Name = Butylene glycol
REMARK  5 active torsions:
REMARK  status: ('A' for Active; 'I' for Inactive)
REMARK    1  A    between atoms: C_1  and  C_2
REMARK    2  A    between atoms: C_2  and  O_3
REMARK    3  A    between atoms: C_2  and  C_4
REMARK    4  A    between atoms: C_4  and  C_5
REMARK    5  A    between atoms: C_5  and  O_6
REMARK                            x       y       z     vdW  Elec       q    Type
REMARK                         _______ _______ _______ _____ _____    ______ ____
ROOT
ATOM      1  C   UNL     1     -11.262   8.002 127.819  0.00  0.00    +0.000 C 
ATOM      2  C   UNL     1     -12.328   7.488 128.777  0.00  0.00    +0.000 C 
ENDROOT
BRANCH   2   3
ATOM      3  O   UNL     1     -12.265   6.064 128.819  0.00  0.00    +0.000 OA
ATOM      4  H   UNL     1     -11.550   5.774 128.229  0.00  0.00    +0.000 HD
ENDBRANCH   2   3
BRANCH   2   5
ATOM      5  C   UNL     1     -12.133   8.058 130.180  0.00  0.00    +0.000 C 
BRANCH   5   6
ATOM      6  C   UNL     1     -12.971   7.317 131.214  0.00  0.00    +0.000 C 
BRANCH   6   7
ATOM      7  O   UNL     1     -12.198   6.268 131.785  0.00  0.00    +0.000 OA
ATOM      8  H   UNL     1     -11.459   6.679 132.265  0.00  0.00    +0.000 HD
ENDBRANCH   6   7
ENDBRANCH   5   6
ENDBRANCH   2   5
TORSDOF 4
ENDMDL
