MODEL 1
REMARK VINA RESULT:      -5.7      0.000      0.000
REMARK  Name = Butylparaben
REMARK  7 active torsions:
REMARK  status: ('A' for Active; 'I' for Inactive)
REMARK    1  A    between atoms: C_1  and  C_2
REMARK    2  A    between atoms: C_2  and  C_3
REMARK    3  A    between atoms: C_3  and  C_4
REMARK    4  A    between atoms: C_4  and  O_5
REMARK    5  A    between atoms: O_5  and  C_6
REMARK    6  A    between atoms: C_6  and  C_8
REMARK    7  A    between atoms: C_11  and  O_12
REMARK                            x       y       z     vdW  Elec       q    Type
REMARK                         _______ _______ _______ _____ _____    ______ ____
ROOT
ATOM      1  C   UNL     1     -12.080   7.387 129.630  0.00  0.00    +0.000 A 
ATOM      2  C   UNL     1     -10.926   8.128 129.342  0.00  0.00    +0.000 A 
ATOM      3  C   UNL     1     -10.536   8.345 128.009  0.00  0.00    +0.000 A 
ATOM      4  C   UNL     1     -11.311   7.833 126.969  0.00  0.00    +0.000 A 
ATOM      5  C   UNL     1     -12.477   7.129 127.242  0.00  0.00    +0.000 A 
ATOM      6  C   UNL     1     -12.860   6.899 128.569  0.00  0.00    +0.000 A 
ENDROOT
BRANCH   1   7
ATOM      7  C   UNL     1     -12.422   6.986 131.025  0.00  0.00    +0.000 C 
ATOM      8  O   UNL     1     -13.519   7.227 131.516  0.00  0.00    +0.000 OA
BRANCH   7   9
ATOM      9  O   UNL     1     -11.397   6.347 131.655  0.00  0.00    +0.000 OA
BRANCH   9  10
ATOM     10  C   UNL     1     -10.924   5.171 130.959  0.00  0.00    +0.000 C 
BRANCH  10  11
ATOM     11  C   UNL     1      -9.418   4.998 131.179  0.00  0.00    +0.000 C 
BRANCH  11  13
ATOM     12  C   UNL     1      -7.746   6.878 130.964  0.00  0.00    +0.000 C 
ATOM     13  C   UNL     1      -8.789   6.220 131.857  0.00  0.00    +0.000 C 
ENDBRANCH  11  13
ENDBRANCH  10  11
ENDBRANCH   9  10
ENDBRANCH   7   9
ENDBRANCH   1   7
BRANCH   4  14
ATOM     14  O   UNL     1     -10.961   7.981 125.660  0.00  0.00    +0.000 OA
ATOM     15  H   UNL     1     -10.042   7.697 125.529  0.00  0.00    +0.000 HD
ENDBRANCH   4  14
TORSDOF 6
ENDMDL
MODEL 2
REMARK VINA RESULT:      -5.5      2.066      5.132
REMARK  Name = Butylparaben
REMARK  7 active torsions:
REMARK  status: ('A' for Active; 'I' for Inactive)
REMARK    1  A    between atoms: C_1  and  C_2
REMARK    2  A    between atoms: C_2  and  C_3
REMARK    3  A    between atoms: C_3  and  C_4
REMARK    4  A    between atoms: C_4  and  O_5
REMARK    5  A    between atoms: O_5  and  C_6
REMARK    6  A    between atoms: C_6  and  C_8
REMARK    7  A    between atoms: C_11  and  O_12
REMARK                            x       y       z     vdW  Elec       q    Type
REMARK                         _______ _______ _______ _____ _____    ______ ____
ROOT
ATOM      1  C   UNL     1     -10.235   6.321 129.836  0.00  0.00    +0.000 A 
ATOM      2  C   UNL     1      -8.895   6.376 130.240  0.00  0.00    +0.000 A 
ATOM      3  C   UNL     1      -8.563   6.346 131.605  0.00  0.00    +0.000 A 
ATOM      4  C   UNL     1      -9.572   6.246 132.560  0.00  0.00    +0.000 A 
ATOM      5  C   UNL     1     -10.902   6.153 132.171  0.00  0.00    +0.000 A 
ATOM      6  C   UNL     1     -11.237   6.197 130.812  0.00  0.00    +0.000 A 
ENDROOT
BRANCH   1   7
ATOM      7  C   UNL     1     -10.632   6.531 128.414  0.00  0.00    +0.000 C 
ATOM      8  O   UNL     1      -9.801   6.623 127.517  0.00  0.00    +0.000 OA
BRANCH   7   9
ATOM      9  O   UNL     1     -11.982   6.607 128.250  0.00  0.00    +0.000 OA
BRANCH   9  10
ATOM     10  C   UNL     1     -12.421   7.786 127.536  0.00  0.00    +0.000 C 
BRANCH  10  11
ATOM     11  C   UNL     1     -13.425   8.573 128.383  0.00  0.00    +0.000 C 
BRANCH  11  13
ATOM     12  C   UNL     1     -13.451  10.664 129.799  0.00  0.00    +0.000 C 
ATOM     13  C   UNL     1     -12.744   9.346 129.518  0.00  0.00    +0.000 C 
ENDBRANCH  11  13
ENDBRANCH  10  11
ENDBRANCH   9  10
ENDBRANCH   7   9
ENDBRANCH   1   7
BRANCH   4  14
ATOM     14  O   UNL     1      -9.311   6.250 133.899  0.00  0.00    +0.000 OA
ATOM     15  H   UNL     1      -9.131   7.156 134.198  0.00  0.00    +0.000 HD
ENDBRANCH   4  14
TORSDOF 6
ENDMDL
MODEL 3
REMARK VINA RESULT:      -5.5     10.145     11.872
REMARK  Name = Butylparaben
REMARK  7 active torsions:
REMARK  status: ('A' for Active; 'I' for Inactive)
REMARK    1  A    between atoms: C_1  and  C_2
REMARK    2  A    between atoms: C_2  and  C_3
REMARK    3  A    between atoms: C_3  and  C_4
REMARK    4  A    between atoms: C_4  and  O_5
REMARK    5  A    between atoms: O_5  and  C_6
REMARK    6  A    between atoms: C_6  and  C_8
REMARK    7  A    between atoms: C_11  and  O_12
REMARK                            x       y       z     vdW  Elec       q    Type
REMARK                         _______ _______ _______ _____ _____    ______ ____
ROOT
ATOM      1  C   UNL     1      -8.614  -2.479 126.245  0.00  0.00    +0.000 A 
ATOM      2  C   UNL     1      -9.118  -3.625 126.874  0.00  0.00    +0.000 A 
ATOM      3  C   UNL     1      -8.842  -3.871 128.230  0.00  0.00    +0.000 A 
ATOM      4  C   UNL     1      -8.074  -2.961 128.955  0.00  0.00    +0.000 A 
ATOM      5  C   UNL     1      -7.600  -1.803 128.352  0.00  0.00    +0.000 A 
ATOM      6  C   UNL     1      -7.862  -1.563 126.998  0.00  0.00    +0.000 A 
ENDROOT
BRANCH   1   7
ATOM      7  C   UNL     1      -8.735  -2.280 124.772  0.00  0.00    +0.000 C 
ATOM      8  O   UNL     1      -9.676  -2.737 124.133  0.00  0.00    +0.000 OA
BRANCH   7   9
ATOM      9  O   UNL     1      -7.705  -1.555 124.253  0.00  0.00    +0.000 OA
BRANCH   9  10
ATOM     10  C   UNL     1      -7.019  -2.211 123.161  0.00  0.00    +0.000 C 
BRANCH  10  11
ATOM     11  C   UNL     1      -5.531  -2.365 123.488  0.00  0.00    +0.000 C 
BRANCH  11  13
ATOM     12  C   UNL     1      -4.315  -4.578 123.530  0.00  0.00    +0.000 C 
ATOM     13  C   UNL     1      -5.244  -3.640 124.289  0.00  0.00    +0.000 C 
ENDBRANCH  11  13
ENDBRANCH  10  11
ENDBRANCH   9  10
ENDBRANCH   7   9
ENDBRANCH   1   7
BRANCH   4  14
ATOM     14  O   UNL     1      -7.744  -3.166 130.262  0.00  0.00    +0.000 OA
ATOM     15  H   UNL     1      -8.268  -3.899 130.624  0.00  0.00    +0.000 HD
ENDBRANCH   4  14
TORSDOF 6
ENDMDL
MODEL 4
REMARK VINA RESULT:      -5.5      1.738      4.749
REMARK  Name = Butylparaben
REMARK  7 active torsions:
REMARK  status: ('A' for Active; 'I' for Inactive)
REMARK    1  A    between atoms: C_1  and  C_2
REMARK    2  A    between atoms: C_2  and  C_3
REMARK    3  A    between atoms: C_3  and  C_4
REMARK    4  A    between atoms: C_4  and  O_5
REMARK    5  A    between atoms: O_5  and  C_6
REMARK    6  A    between atoms: C_6  and  C_8
REMARK    7  A    between atoms: C_11  and  O_12
REMARK                            x       y       z     vdW  Elec       q    Type
REMARK                         _______ _______ _______ _____ _____    ______ ____
ROOT
ATOM      1  C   UNL     1     -10.553   6.555 131.342  0.00  0.00    +0.000 A 
ATOM      2  C   UNL     1     -10.181   5.939 132.545  0.00  0.00    +0.000 A 
ATOM      3  C   UNL     1      -8.823   5.773 132.866  0.00  0.00    +0.000 A 
ATOM      4  C   UNL     1      -7.842   6.236 131.991  0.00  0.00    +0.000 A 
ATOM      5  C   UNL     1      -8.199   6.881 130.813  0.00  0.00    +0.000 A 
ATOM      6  C   UNL     1      -9.551   7.035 130.483  0.00  0.00    +0.000 A 
ENDROOT
BRANCH   1   7
ATOM      7  C   UNL     1     -11.973   6.585 130.887  0.00  0.00    +0.000 C 
ATOM      8  O   UNL     1     -12.892   6.843 131.656  0.00  0.00    +0.000 OA
BRANCH   7   9
ATOM      9  O   UNL     1     -12.107   6.298 129.562  0.00  0.00    +0.000 OA
BRANCH   9  10
ATOM     10  C   UNL     1     -13.298   6.856 128.960  0.00  0.00    +0.000 C 
BRANCH  10  11
ATOM     11  C   UNL     1     -12.975   7.412 127.570  0.00  0.00    +0.000 C 
BRANCH  11  13
ATOM     12  C   UNL     1     -10.677   7.488 126.527  0.00  0.00    +0.000 C 
ATOM     13  C   UNL     1     -11.621   8.129 127.534  0.00  0.00    +0.000 C 
ENDBRANCH  11  13
ENDBRANCH  10  11
ENDBRANCH   9  10
ENDBRANCH   7   9
ENDBRANCH   1   7
BRANCH   4  14
ATOM     14  O   UNL     1      -6.511   6.069 132.234  0.00  0.00    +0.000 OA
ATOM     15  H   UNL     1      -6.322   6.241 133.171  0.00  0.00    +0.000 HD
ENDBRANCH   4  14
TORSDOF 6
ENDMDL
MODEL 5
REMARK VINA RESULT:      -5.4      2.039      2.524
REMARK  Name = Butylparaben
REMARK  7 active torsions:
REMARK  status: ('A' for Active; 'I' for Inactive)
REMARK    1  A    between atoms: C_1  and  C_2
REMARK    2  A    between atoms: C_2  and  C_3
REMARK    3  A    between atoms: C_3  and  C_4
REMARK    4  A    between atoms: C_4  and  O_5
REMARK    5  A    between atoms: O_5  and  C_6
REMARK    6  A    between atoms: C_6  and  C_8
REMARK    7  A    between atoms: C_11  and  O_12
REMARK                            x       y       z     vdW  Elec       q    Type
REMARK                         _______ _______ _______ _____ _____    ______ ____
ROOT
ATOM      1  C   UNL     1     -11.153   6.431 129.850  0.00  0.00    +0.000 A 
ATOM      2  C   UNL     1     -10.649   7.183 128.780  0.00  0.00    +0.000 A 
ATOM      3  C   UNL     1     -11.227   8.420 128.447  0.00  0.00    +0.000 A 
ATOM      4  C   UNL     1     -12.297   8.907 129.196  0.00  0.00    +0.000 A 
ATOM      5  C   UNL     1     -12.780   8.189 130.282  0.00  0.00    +0.000 A 
ATOM      6  C   UNL     1     -12.216   6.950 130.607  0.00  0.00    +0.000 A 
ENDROOT
BRANCH   1   7
ATOM      7  C   UNL     1     -10.684   5.041 130.116  0.00  0.00    +0.000 C 
ATOM      8  O   UNL     1     -11.451   4.084 130.093  0.00  0.00    +0.000 OA
BRANCH   7   9
ATOM      9  O   UNL     1      -9.350   4.977 130.381  0.00  0.00    +0.000 OA
BRANCH   9  10
ATOM     10  C   UNL     1      -9.036   4.886 131.791  0.00  0.00    +0.000 C 
BRANCH  10  11
ATOM     11  C   UNL     1      -8.297   6.147 132.249  0.00  0.00    +0.000 C 
BRANCH  11  13
ATOM     12  C   UNL     1      -6.132   6.843 131.153  0.00  0.00    +0.000 C 
ATOM     13  C   UNL     1      -7.651   6.897 131.079  0.00  0.00    +0.000 C 
ENDBRANCH  11  13
ENDBRANCH  10  11
ENDBRANCH   9  10
ENDBRANCH   7   9
ENDBRANCH   1   7
BRANCH   4  14
ATOM     14  O   UNL     1     -12.919  10.083 128.896  0.00  0.00    +0.000 OA
ATOM     15  H   UNL     1     -13.495  10.349 129.631  0.00  0.00    +0.000 HD
ENDBRANCH   4  14
TORSDOF 6
ENDMDL
MODEL 6
REMARK VINA RESULT:      -5.2      9.958     11.030
REMARK  Name = Butylparaben
REMARK  7 active torsions:
REMARK  status: ('A' for Active; 'I' for Inactive)
REMARK    1  A    between atoms: C_1  and  C_2
REMARK    2  A    between atoms: C_2  and  C_3
REMARK    3  A    between atoms: C_3  and  C_4
REMARK    4  A    between atoms: C_4  and  O_5
REMARK    5  A    between atoms: O_5  and  C_6
REMARK    6  A    between atoms: C_6  and  C_8
REMARK    7  A    between atoms: C_11  and  O_12
REMARK                            x       y       z     vdW  Elec       q    Type
REMARK                         _______ _______ _______ _____ _____    ______ ____
ROOT
ATOM      1  C   UNL     1      -6.849  -1.896 125.811  0.00  0.00    +0.000 A 
ATOM      2  C   UNL     1      -6.682  -3.038 125.017  0.00  0.00    +0.000 A 
ATOM      3  C   UNL     1      -7.759  -3.546 124.269  0.00  0.00    +0.000 A 
ATOM      4  C   UNL     1      -8.993  -2.901 124.307  0.00  0.00    +0.000 A 
ATOM      5  C   UNL     1      -9.161  -1.747 125.061  0.00  0.00    +0.000 A 
ATOM      6  C   UNL     1      -8.094  -1.247 125.819  0.00  0.00    +0.000 A 
ENDROOT
BRANCH   1   7
ATOM      7  C   UNL     1      -5.787  -1.438 126.752  0.00  0.00    +0.000 C 
ATOM      8  O   UNL     1      -5.315  -0.308 126.694  0.00  0.00    +0.000 OA
BRANCH   7   9
ATOM      9  O   UNL     1      -5.425  -2.401 127.646  0.00  0.00    +0.000 OA
BRANCH   9  10
ATOM     10  C   UNL     1      -5.990  -2.219 128.965  0.00  0.00    +0.000 C 
BRANCH  10  11
ATOM     11  C   UNL     1      -6.875  -3.415 129.328  0.00  0.00    +0.000 C 
BRANCH  11  13
ATOM     12  C   UNL     1      -8.929  -4.073 128.014  0.00  0.00    +0.000 C 
ATOM     13  C   UNL     1      -8.360  -3.136 129.069  0.00  0.00    +0.000 C 
ENDBRANCH  11  13
ENDBRANCH  10  11
ENDBRANCH   9  10
ENDBRANCH   7   9
ENDBRANCH   1   7
BRANCH   4  14
ATOM     14  O   UNL     1     -10.081  -3.370 123.631  0.00  0.00    +0.000 OA
ATOM     15  H   UNL     1     -10.212  -4.312 123.828  0.00  0.00    +0.000 HD
ENDBRANCH   4  14
TORSDOF 6
ENDMDL
MODEL 7
REMARK VINA RESULT:      -5.2      2.124      3.032
REMARK  Name = Butylparaben
REMARK  7 active torsions:
REMARK  status: ('A' for Active; 'I' for Inactive)
REMARK    1  A    between atoms: C_1  and  C_2
REMARK    2  A    between atoms: C_2  and  C_3
REMARK    3  A    between atoms: C_3  and  C_4
REMARK    4  A    between atoms: C_4  and  O_5
REMARK    5  A    between atoms: O_5  and  C_6
REMARK    6  A    between atoms: C_6  and  C_8
REMARK    7  A    between atoms: C_11  and  O_12
REMARK                            x       y       z     vdW  Elec       q    Type
REMARK                         _______ _______ _______ _____ _____    ______ ____
ROOT
ATOM      1  C   UNL     1     -11.448   6.828 130.288  0.00  0.00    +0.000 A 
ATOM      2  C   UNL     1     -10.985   7.346 129.072  0.00  0.00    +0.000 A 
ATOM      3  C   UNL     1     -11.571   8.499 128.522  0.00  0.00    +0.000 A 
ATOM      4  C   UNL     1     -12.608   9.138 129.199  0.00  0.00    +0.000 A 
ATOM      5  C   UNL     1     -13.051   8.655 130.424  0.00  0.00    +0.000 A 
ATOM      6  C   UNL     1     -12.479   7.498 130.967  0.00  0.00    +0.000 A 
ENDROOT
BRANCH   1   7
ATOM      7  C   UNL     1     -10.975   5.512 130.808  0.00  0.00    +0.000 C 
ATOM      8  O   UNL     1     -11.050   4.488 130.138  0.00  0.00    +0.000 OA
BRANCH   7   9
ATOM      9  O   UNL     1     -10.473   5.596 132.071  0.00  0.00    +0.000 OA
BRANCH   9  10
ATOM     10  C   UNL     1      -9.220   4.896 132.251  0.00  0.00    +0.000 C 
BRANCH  10  11
ATOM     11  C   UNL     1      -9.331   3.904 133.413  0.00  0.00    +0.000 C 
BRANCH  11  13
ATOM     12  C   UNL     1      -9.843   1.826 132.073  0.00  0.00    +0.000 C 
ATOM     13  C   UNL     1      -8.860   2.499 133.020  0.00  0.00    +0.000 C 
ENDBRANCH  11  13
ENDBRANCH  10  11
ENDBRANCH   9  10
ENDBRANCH   7   9
ENDBRANCH   1   7
BRANCH   4  14
ATOM     14  O   UNL     1     -13.237  10.238 128.695  0.00  0.00    +0.000 OA
ATOM     15  H   UNL     1     -14.130  10.309 129.071  0.00  0.00    +0.000 HD
ENDBRANCH   4  14
TORSDOF 6
ENDMDL
MODEL 8
REMARK VINA RESULT:      -5.2      8.862      9.951
REMARK  Name = Butylparaben
REMARK  7 active torsions:
REMARK  status: ('A' for Active; 'I' for Inactive)
REMARK    1  A    between atoms: C_1  and  C_2
REMARK    2  A    between atoms: C_2  and  C_3
REMARK    3  A    between atoms: C_3  and  C_4
REMARK    4  A    between atoms: C_4  and  O_5
REMARK    5  A    between atoms: O_5  and  C_6
REMARK    6  A    between atoms: C_6  and  C_8
REMARK    7  A    between atoms: C_11  and  O_12
REMARK                            x       y       z     vdW  Elec       q    Type
REMARK                         _______ _______ _______ _____ _____    ______ ____
ROOT
ATOM      1  C   UNL     1      -8.832   1.417 123.169  0.00  0.00    +0.000 A 
ATOM      2  C   UNL     1      -7.719   1.399 124.021  0.00  0.00    +0.000 A 
ATOM      3  C   UNL     1      -6.743   2.406 123.934  0.00  0.00    +0.000 A 
ATOM      4  C   UNL     1      -6.891   3.435 123.005  0.00  0.00    +0.000 A 
ATOM      5  C   UNL     1      -8.008   3.484 122.182  0.00  0.00    +0.000 A 
ATOM      6  C   UNL     1      -8.975   2.474 122.256  0.00  0.00    +0.000 A 
ENDROOT
BRANCH   1   7
ATOM      7  C   UNL     1      -9.788   0.274 123.111  0.00  0.00    +0.000 C 
ATOM      8  O   UNL     1     -10.849   0.349 122.501  0.00  0.00    +0.000 OA
BRANCH   7   9
ATOM      9  O   UNL     1      -9.348  -0.816 123.800  0.00  0.00    +0.000 OA
BRANCH   9  10
ATOM     10  C   UNL     1      -8.937  -1.916 122.955  0.00  0.00    +0.000 C 
BRANCH  10  11
ATOM     11  C   UNL     1      -9.412  -3.244 123.550  0.00  0.00    +0.000 C 
BRANCH  11  13
ATOM     12  C   UNL     1      -7.025  -3.487 124.340  0.00  0.00    +0.000 C 
ATOM     13  C   UNL     1      -8.490  -3.739 124.671  0.00  0.00    +0.000 C 
ENDBRANCH  11  13
ENDBRANCH  10  11
ENDBRANCH   9  10
ENDBRANCH   7   9
ENDBRANCH   1   7
BRANCH   4  14
ATOM     14  O   UNL     1      -5.957   4.417 122.852  0.00  0.00    +0.000 OA
ATOM     15  H   UNL     1      -5.108   4.028 122.588  0.00  0.00    +0.000 HD
ENDBRANCH   4  14
TORSDOF 6
ENDMDL
MODEL 9
REMARK VINA RESULT:      -5.1      9.145     10.295
REMARK  Name = Butylparaben
REMARK  7 active torsions:
REMARK  status: ('A' for Active; 'I' for Inactive)
REMARK    1  A    between atoms: C_1  and  C_2
REMARK    2  A    between atoms: C_2  and  C_3
REMARK    3  A    between atoms: C_3  and  C_4
REMARK    4  A    between atoms: C_4  and  O_5
REMARK    5  A    between atoms: O_5  and  C_6
REMARK    6  A    between atoms: C_6  and  C_8
REMARK    7  A    between atoms: C_11  and  O_12
REMARK                            x       y       z     vdW  Elec       q    Type
REMARK                         _______ _______ _______ _____ _____    ______ ____
ROOT
ATOM      1  C   UNL     1      -6.478   3.442 122.195  0.00  0.00    +0.000 A 
ATOM      2  C   UNL     1      -5.272   4.150 122.277  0.00  0.00    +0.000 A 
ATOM      3  C   UNL     1      -4.816   4.904 121.181  0.00  0.00    +0.000 A 
ATOM      4  C   UNL     1      -5.576   4.958 120.014  0.00  0.00    +0.000 A 
ATOM      5  C   UNL     1      -6.792   4.291 119.935  0.00  0.00    +0.000 A 
ATOM      6  C   UNL     1      -7.241   3.527 121.020  0.00  0.00    +0.000 A 
ENDROOT
BRANCH   1   7
ATOM      7  C   UNL     1      -6.900   2.494 123.266  0.00  0.00    +0.000 C 
ATOM      8  O   UNL     1      -6.331   2.447 124.350  0.00  0.00    +0.000 OA
BRANCH   7   9
ATOM      9  O   UNL     1      -7.955   1.716 122.893  0.00  0.00    +0.000 OA
BRANCH   9  10
ATOM     10  C   UNL     1      -8.155   0.557 123.735  0.00  0.00    +0.000 C 
BRANCH  10  11
ATOM     11  C   UNL     1      -9.146  -0.408 123.079  0.00  0.00    +0.000 C 
BRANCH  11  13
ATOM     12  C   UNL     1      -9.297  -2.909 123.394  0.00  0.00    +0.000 C 
ATOM     13  C   UNL     1      -8.510  -1.767 122.767  0.00  0.00    +0.000 C 
ENDBRANCH  11  13
ENDBRANCH  10  11
ENDBRANCH   9  10
ENDBRANCH   7   9
ENDBRANCH   1   7
BRANCH   4  14
ATOM     14  O   UNL     1      -5.165   5.643 118.909  0.00  0.00    +0.000 OA
ATOM     15  H   UNL     1      -5.440   5.171 118.106  0.00  0.00    +0.000 HD
ENDBRANCH   4  14
TORSDOF 6
ENDMDL
