MODEL 1
REMARK VINA RESULT:      -7.7      0.000      0.000
REMARK  Name = Butylscopolamine
REMARK  11 active torsions:
REMARK  status: ('A' for Active; 'I' for Inactive)
REMARK    1  A    between atoms: C_1  and  C_2
REMARK    2  A    between atoms: C_2  and  C_3
REMARK    3  A    between atoms: C_3  and  C_4
REMARK    4  A    between atoms: C_4  and  N_5
REMARK    5  A    between atoms: N_5  and  C_6
REMARK    6  A    between atoms: C_9  and  O_15
REMARK    7  A    between atoms: O_15  and  C_16
REMARK    8  A    between atoms: C_16  and  C_18
REMARK    9  A    between atoms: C_18  and  C_19
REMARK   10  A    between atoms: C_18  and  C_21
REMARK   11  A    between atoms: C_19  and  O_20
REMARK                            x       y       z     vdW  Elec       q    Type
REMARK                         _______ _______ _______ _____ _____    ______ ____
ROOT
ATOM      1  N   UNL     1      -8.252  -2.429 125.097  0.00  0.00    +0.000 N 
ATOM      2  C   UNL     1      -8.297  -3.939 124.735  0.00  0.00    +0.000 C 
ATOM      3  C   UNL     1      -6.941  -1.624 125.214  0.00  0.00    +0.000 C 
ATOM      4  C   UNL     1      -7.355  -0.128 125.439  0.00  0.00    +0.000 C 
ATOM      5  C   UNL     1      -8.116   0.502 124.275  0.00  0.00    +0.000 C 
ATOM      6  C   UNL     1      -9.191  -0.438 123.766  0.00  0.00    +0.000 C 
ATOM      7  C   UNL     1      -8.677  -1.854 123.710  0.00  0.00    +0.000 C 
ATOM      8  C   UNL     1      -7.335  -2.001 122.890  0.00  0.00    +0.000 C 
ATOM      9  O   UNL     1      -6.390  -0.959 122.858  0.00  0.00    +0.000 OA
ATOM     10  C   UNL     1      -6.212  -1.859 123.947  0.00  0.00    +0.000 C 
ENDROOT
BRANCH   1  11
ATOM     11  C   UNL     1      -8.703  -2.334 126.529  0.00  0.00    +0.000 C 
BRANCH  11  12
ATOM     12  C   UNL     1      -8.698  -3.577 127.326  0.00  0.00    +0.000 C 
BRANCH  12  14
ATOM     13  C   UNL     1      -7.928  -1.859 128.841  0.00  0.00    +0.000 C 
ATOM     14  C   UNL     1      -7.769  -3.310 128.500  0.00  0.00    +0.000 C 
ENDBRANCH  12  14
ENDBRANCH  11  12
ENDBRANCH   1  11
BRANCH   5  15
ATOM     15  O   UNL     1      -8.750   1.755 124.568  0.00  0.00    +0.000 OA
BRANCH  15  16
ATOM     16  C   UNL     1      -8.225   3.001 124.406  0.00  0.00    +0.000 C 
ATOM     17  O   UNL     1      -8.732   3.942 124.975  0.00  0.00    +0.000 OA
BRANCH  16  18
ATOM     18  C   UNL     1      -6.974   3.160 123.562  0.00  0.00    +0.000 C 
BRANCH  18  19
ATOM     19  C   UNL     1      -7.212   3.464 122.104  0.00  0.00    +0.000 A 
ATOM     20  C   UNL     1      -6.177   3.862 121.237  0.00  0.00    +0.000 A 
ATOM     21  C   UNL     1      -6.436   4.318 119.953  0.00  0.00    +0.000 A 
ATOM     22  C   UNL     1      -7.727   4.249 119.463  0.00  0.00    +0.000 A 
ATOM     23  C   UNL     1      -8.762   3.831 120.289  0.00  0.00    +0.000 A 
ATOM     24  C   UNL     1      -8.509   3.488 121.606  0.00  0.00    +0.000 A 
ENDBRANCH  18  19
BRANCH  18  25
ATOM     25  C   UNL     1      -5.944   4.001 124.357  0.00  0.00    +0.000 C 
BRANCH  25  26
ATOM     26  O   UNL     1      -6.275   5.373 124.510  0.00  0.00    +0.000 OA
ATOM     27  H   UNL     1      -6.125   5.824 123.657  0.00  0.00    +0.000 HD
ENDBRANCH  25  26
ENDBRANCH  18  25
ENDBRANCH  16  18
ENDBRANCH  15  16
ENDBRANCH   5  15
TORSDOF 9
ENDMDL
MODEL 2
REMARK VINA RESULT:      -7.6      1.601      2.601
REMARK  Name = Butylscopolamine
REMARK  11 active torsions:
REMARK  status: ('A' for Active; 'I' for Inactive)
REMARK    1  A    between atoms: C_1  and  C_2
REMARK    2  A    between atoms: C_2  and  C_3
REMARK    3  A    between atoms: C_3  and  C_4
REMARK    4  A    between atoms: C_4  and  N_5
REMARK    5  A    between atoms: N_5  and  C_6
REMARK    6  A    between atoms: C_9  and  O_15
REMARK    7  A    between atoms: O_15  and  C_16
REMARK    8  A    between atoms: C_16  and  C_18
REMARK    9  A    between atoms: C_18  and  C_19
REMARK   10  A    between atoms: C_18  and  C_21
REMARK   11  A    between atoms: C_19  and  O_20
REMARK                            x       y       z     vdW  Elec       q    Type
REMARK                         _______ _______ _______ _____ _____    ______ ____
ROOT
ATOM      1  N   UNL     1      -7.334  -2.404 124.446  0.00  0.00    +0.000 N 
ATOM      2  C   UNL     1      -7.740  -3.904 124.448  0.00  0.00    +0.000 C 
ATOM      3  C   UNL     1      -7.343  -1.525 123.178  0.00  0.00    +0.000 C 
ATOM      4  C   UNL     1      -7.020  -0.064 123.646  0.00  0.00    +0.000 C 
ATOM      5  C   UNL     1      -8.065   0.551 124.574  0.00  0.00    +0.000 C 
ATOM      6  C   UNL     1      -8.477  -0.438 125.647  0.00  0.00    +0.000 C 
ATOM      7  C   UNL     1      -8.641  -1.818 125.063  0.00  0.00    +0.000 C 
ATOM      8  C   UNL     1      -9.616  -1.862 123.822  0.00  0.00    +0.000 C 
ATOM      9  O   UNL     1      -9.722  -0.764 122.948  0.00  0.00    +0.000 OA
ATOM     10  C   UNL     1      -8.693  -1.682 122.592  0.00  0.00    +0.000 C 
ENDROOT
BRANCH   1  11
ATOM     11  C   UNL     1      -5.857  -2.376 124.730  0.00  0.00    +0.000 C 
BRANCH  11  12
ATOM     12  C   UNL     1      -4.953  -2.868 123.670  0.00  0.00    +0.000 C 
BRANCH  12  14
ATOM     13  C   UNL     1      -4.293  -5.146 123.209  0.00  0.00    +0.000 C 
ATOM     14  C   UNL     1      -4.246  -4.078 124.260  0.00  0.00    +0.000 C 
ENDBRANCH  12  14
ENDBRANCH  11  12
ENDBRANCH   1  11
BRANCH   5  15
ATOM     15  O   UNL     1      -7.657   1.755 125.239  0.00  0.00    +0.000 OA
BRANCH  15  16
ATOM     16  C   UNL     1      -7.700   3.023 124.744  0.00  0.00    +0.000 C 
ATOM     17  O   UNL     1      -8.698   3.692 124.901  0.00  0.00    +0.000 OA
BRANCH  16  18
ATOM     18  C   UNL     1      -6.464   3.582 124.064  0.00  0.00    +0.000 C 
BRANCH  18  19
ATOM     19  C   UNL     1      -6.553   3.707 122.564  0.00  0.00    +0.000 A 
ATOM     20  C   UNL     1      -5.456   4.097 121.773  0.00  0.00    +0.000 A 
ATOM     21  C   UNL     1      -5.596   4.389 120.424  0.00  0.00    +0.000 A 
ATOM     22  C   UNL     1      -6.814   4.159 119.810  0.00  0.00    +0.000 A 
ATOM     23  C   UNL     1      -7.904   3.745 120.563  0.00  0.00    +0.000 A 
ATOM     24  C   UNL     1      -7.781   3.568 121.930  0.00  0.00    +0.000 A 
ENDBRANCH  18  19
BRANCH  18  25
ATOM     25  C   UNL     1      -5.938   4.777 124.898  0.00  0.00    +0.000 C 
BRANCH  25  26
ATOM     26  O   UNL     1      -6.845   5.858 125.042  0.00  0.00    +0.000 OA
ATOM     27  H   UNL     1      -6.484   6.631 124.566  0.00  0.00    +0.000 HD
ENDBRANCH  25  26
ENDBRANCH  18  25
ENDBRANCH  16  18
ENDBRANCH  15  16
ENDBRANCH   5  15
TORSDOF 9
ENDMDL
MODEL 3
REMARK VINA RESULT:      -7.1      1.350      2.028
REMARK  Name = Butylscopolamine
REMARK  11 active torsions:
REMARK  status: ('A' for Active; 'I' for Inactive)
REMARK    1  A    between atoms: C_1  and  C_2
REMARK    2  A    between atoms: C_2  and  C_3
REMARK    3  A    between atoms: C_3  and  C_4
REMARK    4  A    between atoms: C_4  and  N_5
REMARK    5  A    between atoms: N_5  and  C_6
REMARK    6  A    between atoms: C_9  and  O_15
REMARK    7  A    between atoms: O_15  and  C_16
REMARK    8  A    between atoms: C_16  and  C_18
REMARK    9  A    between atoms: C_18  and  C_19
REMARK   10  A    between atoms: C_18  and  C_21
REMARK   11  A    between atoms: C_19  and  O_20
REMARK                            x       y       z     vdW  Elec       q    Type
REMARK                         _______ _______ _______ _____ _____    ______ ____
ROOT
ATOM      1  N   UNL     1      -8.678  -2.433 124.878  0.00  0.00    +0.000 N 
ATOM      2  C   UNL     1      -9.389  -3.599 124.136  0.00  0.00    +0.000 C 
ATOM      3  C   UNL     1      -7.151  -2.367 125.086  0.00  0.00    +0.000 C 
ATOM      4  C   UNL     1      -6.849  -0.971 125.734  0.00  0.00    +0.000 C 
ATOM      5  C   UNL     1      -7.191   0.226 124.850  0.00  0.00    +0.000 C 
ATOM      6  C   UNL     1      -8.553   0.047 124.208  0.00  0.00    +0.000 C 
ATOM      7  C   UNL     1      -8.736  -1.372 123.736  0.00  0.00    +0.000 C 
ATOM      8  C   UNL     1      -7.574  -1.872 122.790  0.00  0.00    +0.000 C 
ATOM      9  O   UNL     1      -6.258  -1.400 122.950  0.00  0.00    +0.000 OA
ATOM     10  C   UNL     1      -6.555  -2.545 123.743  0.00  0.00    +0.000 C 
ENDROOT
BRANCH   1  11
ATOM     11  C   UNL     1      -9.097  -2.545 126.319  0.00  0.00    +0.000 C 
BRANCH  11  12
ATOM     12  C   UNL     1      -8.627  -3.724 127.073  0.00  0.00    +0.000 C 
BRANCH  12  14
ATOM     13  C   UNL     1      -7.386  -3.681 129.146  0.00  0.00    +0.000 C 
ATOM     14  C   UNL     1      -8.714  -3.336 128.540  0.00  0.00    +0.000 C 
ENDBRANCH  12  14
ENDBRANCH  11  12
ENDBRANCH   1  11
BRANCH   5  15
ATOM     15  O   UNL     1      -7.199   1.496 125.518  0.00  0.00    +0.000 OA
BRANCH  15  16
ATOM     16  C   UNL     1      -6.219   2.440 125.500  0.00  0.00    +0.000 C 
ATOM     17  O   UNL     1      -5.124   2.173 125.945  0.00  0.00    +0.000 OA
BRANCH  16  18
ATOM     18  C   UNL     1      -6.513   3.785 124.862  0.00  0.00    +0.000 C 
BRANCH  18  19
ATOM     19  C   UNL     1      -6.149   3.902 123.404  0.00  0.00    +0.000 A 
ATOM     20  C   UNL     1      -6.826   3.190 122.397  0.00  0.00    +0.000 A 
ATOM     21  C   UNL     1      -6.366   3.161 121.089  0.00  0.00    +0.000 A 
ATOM     22  C   UNL     1      -5.295   3.961 120.735  0.00  0.00    +0.000 A 
ATOM     23  C   UNL     1      -4.629   4.698 121.704  0.00  0.00    +0.000 A 
ATOM     24  C   UNL     1      -5.026   4.629 123.028  0.00  0.00    +0.000 A 
ENDBRANCH  18  19
BRANCH  18  25
ATOM     25  C   UNL     1      -7.907   4.265 125.340  0.00  0.00    +0.000 C 
BRANCH  25  26
ATOM     26  O   UNL     1      -9.001   3.480 124.893  0.00  0.00    +0.000 OA
ATOM     27  H   UNL     1      -9.288   2.902 125.625  0.00  0.00    +0.000 HD
ENDBRANCH  25  26
ENDBRANCH  18  25
ENDBRANCH  16  18
ENDBRANCH  15  16
ENDBRANCH   5  15
TORSDOF 9
ENDMDL
MODEL 4
REMARK VINA RESULT:      -7.1      1.695      2.969
REMARK  Name = Butylscopolamine
REMARK  11 active torsions:
REMARK  status: ('A' for Active; 'I' for Inactive)
REMARK    1  A    between atoms: C_1  and  C_2
REMARK    2  A    between atoms: C_2  and  C_3
REMARK    3  A    between atoms: C_3  and  C_4
REMARK    4  A    between atoms: C_4  and  N_5
REMARK    5  A    between atoms: N_5  and  C_6
REMARK    6  A    between atoms: C_9  and  O_15
REMARK    7  A    between atoms: O_15  and  C_16
REMARK    8  A    between atoms: C_16  and  C_18
REMARK    9  A    between atoms: C_18  and  C_19
REMARK   10  A    between atoms: C_18  and  C_21
REMARK   11  A    between atoms: C_19  and  O_20
REMARK                            x       y       z     vdW  Elec       q    Type
REMARK                         _______ _______ _______ _____ _____    ______ ____
ROOT
ATOM      1  N   UNL     1      -6.167  -1.344 125.816  0.00  0.00    +0.000 N 
ATOM      2  C   UNL     1      -5.664  -2.191 127.018  0.00  0.00    +0.000 C 
ATOM      3  C   UNL     1      -6.071  -1.814 124.349  0.00  0.00    +0.000 C 
ATOM      4  C   UNL     1      -6.823  -0.742 123.488  0.00  0.00    +0.000 C 
ATOM      5  C   UNL     1      -8.317  -0.625 123.781  0.00  0.00    +0.000 C 
ATOM      6  C   UNL     1      -8.570  -0.605 125.276  0.00  0.00    +0.000 C 
ATOM      7  C   UNL     1      -7.695  -1.612 125.977  0.00  0.00    +0.000 C 
ATOM      8  C   UNL     1      -7.818  -3.070 125.383  0.00  0.00    +0.000 C 
ATOM      9  O   UNL     1      -8.085  -3.273 124.016  0.00  0.00    +0.000 OA
ATOM     10  C   UNL     1      -6.698  -3.155 124.317  0.00  0.00    +0.000 C 
ENDROOT
BRANCH   1  11
ATOM     11  C   UNL     1      -5.245  -0.158 125.733  0.00  0.00    +0.000 C 
BRANCH  11  12
ATOM     12  C   UNL     1      -5.390   0.888 126.766  0.00  0.00    +0.000 C 
BRANCH  12  14
ATOM     13  C   UNL     1      -4.555   3.060 127.416  0.00  0.00    +0.000 C 
ATOM     14  C   UNL     1      -4.460   2.014 126.345  0.00  0.00    +0.000 C 
ENDBRANCH  12  14
ENDBRANCH  11  12
ENDBRANCH   1  11
BRANCH   5  15
ATOM     15  O   UNL     1      -8.960   0.531 123.225  0.00  0.00    +0.000 OA
BRANCH  15  16
ATOM     16  C   UNL     1      -8.942   1.799 123.719  0.00  0.00    +0.000 C 
ATOM     17  O   UNL     1      -9.899   2.214 124.334  0.00  0.00    +0.000 OA
BRANCH  16  18
ATOM     18  C   UNL     1      -7.689   2.635 123.537  0.00  0.00    +0.000 C 
BRANCH  18  19
ATOM     19  C   UNL     1      -7.522   3.263 122.176  0.00  0.00    +0.000 A 
ATOM     20  C   UNL     1      -8.614   3.534 121.331  0.00  0.00    +0.000 A 
ATOM     21  C   UNL     1      -8.436   3.936 120.015  0.00  0.00    +0.000 A 
ATOM     22  C   UNL     1      -7.159   4.211 119.563  0.00  0.00    +0.000 A 
ATOM     23  C   UNL     1      -6.066   3.982 120.389  0.00  0.00    +0.000 A 
ATOM     24  C   UNL     1      -6.248   3.470 121.661  0.00  0.00    +0.000 A 
ENDBRANCH  18  19
BRANCH  18  25
ATOM     25  C   UNL     1      -7.482   3.501 124.805  0.00  0.00    +0.000 C 
BRANCH  25  26
ATOM     26  O   UNL     1      -8.355   4.613 124.925  0.00  0.00    +0.000 OA
ATOM     27  H   UNL     1      -8.235   5.187 124.144  0.00  0.00    +0.000 HD
ENDBRANCH  25  26
ENDBRANCH  18  25
ENDBRANCH  16  18
ENDBRANCH  15  16
ENDBRANCH   5  15
TORSDOF 9
ENDMDL
MODEL 5
REMARK VINA RESULT:      -6.9      1.758      3.335
REMARK  Name = Butylscopolamine
REMARK  11 active torsions:
REMARK  status: ('A' for Active; 'I' for Inactive)
REMARK    1  A    between atoms: C_1  and  C_2
REMARK    2  A    between atoms: C_2  and  C_3
REMARK    3  A    between atoms: C_3  and  C_4
REMARK    4  A    between atoms: C_4  and  N_5
REMARK    5  A    between atoms: N_5  and  C_6
REMARK    6  A    between atoms: C_9  and  O_15
REMARK    7  A    between atoms: O_15  and  C_16
REMARK    8  A    between atoms: C_16  and  C_18
REMARK    9  A    between atoms: C_18  and  C_19
REMARK   10  A    between atoms: C_18  and  C_21
REMARK   11  A    between atoms: C_19  and  O_20
REMARK                            x       y       z     vdW  Elec       q    Type
REMARK                         _______ _______ _______ _____ _____    ______ ____
ROOT
ATOM      1  N   UNL     1      -7.429  -1.910 125.561  0.00  0.00    +0.000 N 
ATOM      2  C   UNL     1      -8.369  -3.038 126.069  0.00  0.00    +0.000 C 
ATOM      3  C   UNL     1      -7.652  -1.152 124.235  0.00  0.00    +0.000 C 
ATOM      4  C   UNL     1      -6.578  -0.012 124.187  0.00  0.00    +0.000 C 
ATOM      5  C   UNL     1      -6.719   1.040 125.284  0.00  0.00    +0.000 C 
ATOM      6  C   UNL     1      -6.961   0.383 126.629  0.00  0.00    +0.000 C 
ATOM      7  C   UNL     1      -7.930  -0.764 126.493  0.00  0.00    +0.000 C 
ATOM      8  C   UNL     1      -9.284  -0.361 125.787  0.00  0.00    +0.000 C 
ATOM      9  O   UNL     1      -9.313   0.642 124.800  0.00  0.00    +0.000 OA
ATOM     10  C   UNL     1      -9.047  -0.660 124.286  0.00  0.00    +0.000 C 
ENDROOT
BRANCH   1  11
ATOM     11  C   UNL     1      -6.126  -2.581 125.220  0.00  0.00    +0.000 C 
BRANCH  11  12
ATOM     12  C   UNL     1      -6.094  -3.426 124.009  0.00  0.00    +0.000 C 
BRANCH  12  14
ATOM     13  C   UNL     1      -4.137  -4.771 123.562  0.00  0.00    +0.000 C 
ATOM     14  C   UNL     1      -4.662  -3.367 123.504  0.00  0.00    +0.000 C 
ENDBRANCH  12  14
ENDBRANCH  11  12
ENDBRANCH   1  11
BRANCH   5  15
ATOM     15  O   UNL     1      -5.594   1.918 125.436  0.00  0.00    +0.000 OA
BRANCH  15  16
ATOM     16  C   UNL     1      -5.611   3.209 125.868  0.00  0.00    +0.000 C 
ATOM     17  O   UNL     1      -5.009   3.509 126.876  0.00  0.00    +0.000 OA
BRANCH  16  18
ATOM     18  C   UNL     1      -6.335   4.248 125.033  0.00  0.00    +0.000 C 
BRANCH  18  19
ATOM     19  C   UNL     1      -6.094   4.166 123.547  0.00  0.00    +0.000 A 
ATOM     20  C   UNL     1      -6.971   3.494 122.676  0.00  0.00    +0.000 A 
ATOM     21  C   UNL     1      -6.647   3.265 121.347  0.00  0.00    +0.000 A 
ATOM     22  C   UNL     1      -5.496   3.830 120.829  0.00  0.00    +0.000 A 
ATOM     23  C   UNL     1      -4.629   4.525 121.661  0.00  0.00    +0.000 A 
ATOM     24  C   UNL     1      -4.905   4.648 123.012  0.00  0.00    +0.000 A 
ENDBRANCH  18  19
BRANCH  18  25
ATOM     25  C   UNL     1      -7.784   4.387 125.563  0.00  0.00    +0.000 C 
BRANCH  25  26
ATOM     26  O   UNL     1      -8.336   5.691 125.477  0.00  0.00    +0.000 OA
ATOM     27  H   UNL     1      -9.300   5.612 125.342  0.00  0.00    +0.000 HD
ENDBRANCH  25  26
ENDBRANCH  18  25
ENDBRANCH  16  18
ENDBRANCH  15  16
ENDBRANCH   5  15
TORSDOF 9
ENDMDL
MODEL 6
REMARK VINA RESULT:      -6.8      7.745      9.804
REMARK  Name = Butylscopolamine
REMARK  11 active torsions:
REMARK  status: ('A' for Active; 'I' for Inactive)
REMARK    1  A    between atoms: C_1  and  C_2
REMARK    2  A    between atoms: C_2  and  C_3
REMARK    3  A    between atoms: C_3  and  C_4
REMARK    4  A    between atoms: C_4  and  N_5
REMARK    5  A    between atoms: N_5  and  C_6
REMARK    6  A    between atoms: C_9  and  O_15
REMARK    7  A    between atoms: O_15  and  C_16
REMARK    8  A    between atoms: C_16  and  C_18
REMARK    9  A    between atoms: C_18  and  C_19
REMARK   10  A    between atoms: C_18  and  C_21
REMARK   11  A    between atoms: C_19  and  O_20
REMARK                            x       y       z     vdW  Elec       q    Type
REMARK                         _______ _______ _______ _____ _____    ______ ____
ROOT
ATOM      1  N   UNL     1      -3.886   5.876 130.080  0.00  0.00    +0.000 N 
ATOM      2  C   UNL     1      -2.572   6.652 129.786  0.00  0.00    +0.000 C 
ATOM      3  C   UNL     1      -3.991   4.755 131.135  0.00  0.00    +0.000 C 
ATOM      4  C   UNL     1      -5.505   4.358 131.215  0.00  0.00    +0.000 C 
ATOM      5  C   UNL     1      -6.429   5.470 131.710  0.00  0.00    +0.000 C 
ATOM      6  C   UNL     1      -6.098   6.783 131.028  0.00  0.00    +0.000 C 
ATOM      7  C   UNL     1      -4.606   6.970 130.928  0.00  0.00    +0.000 C 
ATOM      8  C   UNL     1      -3.862   6.827 132.314  0.00  0.00    +0.000 C 
ATOM      9  O   UNL     1      -4.348   5.958 133.308  0.00  0.00    +0.000 OA
ATOM     10  C   UNL     1      -3.457   5.334 132.389  0.00  0.00    +0.000 C 
ENDROOT
BRANCH   1  11
ATOM     11  C   UNL     1      -4.165   5.056 128.850  0.00  0.00    +0.000 C 
BRANCH  11  12
ATOM     12  C   UNL     1      -3.055   4.866 127.895  0.00  0.00    +0.000 C 
BRANCH  12  14
ATOM     13  C   UNL     1      -1.778   3.155 126.765  0.00  0.00    +0.000 C 
ATOM     14  C   UNL     1      -2.895   3.362 127.743  0.00  0.00    +0.000 C 
ENDBRANCH  12  14
ENDBRANCH  11  12
ENDBRANCH   1  11
BRANCH   5  15
ATOM     15  O   UNL     1      -7.830   5.230 131.516  0.00  0.00    +0.000 OA
BRANCH  15  16
ATOM     16  C   UNL     1      -8.616   5.713 130.515  0.00  0.00    +0.000 C 
ATOM     17  O   UNL     1      -8.392   5.387 129.370  0.00  0.00    +0.000 OA
BRANCH  16  18
ATOM     18  C   UNL     1      -9.795   6.597 130.875  0.00  0.00    +0.000 C 
BRANCH  18  19
ATOM     19  C   UNL     1     -10.708   6.957 129.730  0.00  0.00    +0.000 A 
ATOM     20  C   UNL     1     -10.424   8.010 128.841  0.00  0.00    +0.000 A 
ATOM     21  C   UNL     1     -11.355   8.450 127.912  0.00  0.00    +0.000 A 
ATOM     22  C   UNL     1     -12.538   7.750 127.761  0.00  0.00    +0.000 A 
ATOM     23  C   UNL     1     -12.827   6.687 128.606  0.00  0.00    +0.000 A 
ATOM     24  C   UNL     1     -11.941   6.329 129.607  0.00  0.00    +0.000 A 
ENDBRANCH  18  19
BRANCH  18  25
ATOM     25  C   UNL     1     -10.406   6.090 132.206  0.00  0.00    +0.000 C 
BRANCH  25  26
ATOM     26  O   UNL     1      -9.660   6.405 133.371  0.00  0.00    +0.000 OA
ATOM     27  H   UNL     1      -9.988   7.253 133.730  0.00  0.00    +0.000 HD
ENDBRANCH  25  26
ENDBRANCH  18  25
ENDBRANCH  16  18
ENDBRANCH  15  16
ENDBRANCH   5  15
TORSDOF 9
ENDMDL
MODEL 7
REMARK VINA RESULT:      -6.6      2.685      6.758
REMARK  Name = Butylscopolamine
REMARK  11 active torsions:
REMARK  status: ('A' for Active; 'I' for Inactive)
REMARK    1  A    between atoms: C_1  and  C_2
REMARK    2  A    between atoms: C_2  and  C_3
REMARK    3  A    between atoms: C_3  and  C_4
REMARK    4  A    between atoms: C_4  and  N_5
REMARK    5  A    between atoms: N_5  and  C_6
REMARK    6  A    between atoms: C_9  and  O_15
REMARK    7  A    between atoms: O_15  and  C_16
REMARK    8  A    between atoms: C_16  and  C_18
REMARK    9  A    between atoms: C_18  and  C_19
REMARK   10  A    between atoms: C_18  and  C_21
REMARK   11  A    between atoms: C_19  and  O_20
REMARK                            x       y       z     vdW  Elec       q    Type
REMARK                         _______ _______ _______ _____ _____    ______ ____
ROOT
ATOM      1  N   UNL     1      -6.877   3.236 126.717  0.00  0.00    +0.000 N 
ATOM      2  C   UNL     1      -5.894   4.060 127.595  0.00  0.00    +0.000 C 
ATOM      3  C   UNL     1      -7.567   3.802 125.458  0.00  0.00    +0.000 C 
ATOM      4  C   UNL     1      -8.340   2.607 124.800  0.00  0.00    +0.000 C 
ATOM      5  C   UNL     1      -7.449   1.473 124.300  0.00  0.00    +0.000 C 
ATOM      6  C   UNL     1      -6.397   1.122 125.334  0.00  0.00    +0.000 C 
ATOM      7  C   UNL     1      -5.826   2.371 125.956  0.00  0.00    +0.000 C 
ATOM      8  C   UNL     1      -5.282   3.406 124.896  0.00  0.00    +0.000 C 
ATOM      9  O   UNL     1      -5.877   3.521 123.626  0.00  0.00    +0.000 OA
ATOM     10  C   UNL     1      -6.479   4.348 124.616  0.00  0.00    +0.000 C 
ENDROOT
BRANCH   1  11
ATOM     11  C   UNL     1      -8.101   3.016 127.565  0.00  0.00    +0.000 C 
BRANCH  11  12
ATOM     12  C   UNL     1      -7.903   2.406 128.896  0.00  0.00    +0.000 C 
BRANCH  12  14
ATOM     13  C   UNL     1      -8.037   0.294 130.061  0.00  0.00    +0.000 C 
ATOM     14  C   UNL     1      -8.085   0.911 128.695  0.00  0.00    +0.000 C 
ENDBRANCH  12  14
ENDBRANCH  11  12
ENDBRANCH   1  11
BRANCH   5  15
ATOM     15  O   UNL     1      -8.137   0.259 123.964  0.00  0.00    +0.000 OA
BRANCH  15  16
ATOM     16  C   UNL     1      -8.703  -0.631 124.826  0.00  0.00    +0.000 C 
ATOM     17  O   UNL     1      -9.751  -0.353 125.368  0.00  0.00    +0.000 OA
BRANCH  16  18
ATOM     18  C   UNL     1      -8.031  -1.975 125.032  0.00  0.00    +0.000 C 
BRANCH  18  19
ATOM     19  C   UNL     1      -7.890  -2.415 126.467  0.00  0.00    +0.000 A 
ATOM     20  C   UNL     1      -6.724  -2.179 127.218  0.00  0.00    +0.000 A 
ATOM     21  C   UNL     1      -6.534  -2.748 128.468  0.00  0.00    +0.000 A 
ATOM     22  C   UNL     1      -7.572  -3.453 129.051  0.00  0.00    +0.000 A 
ATOM     23  C   UNL     1      -8.745  -3.673 128.343  0.00  0.00    +0.000 A 
ATOM     24  C   UNL     1      -8.879  -3.199 127.050  0.00  0.00    +0.000 A 
ENDBRANCH  18  19
BRANCH  18  25
ATOM     25  C   UNL     1      -8.584  -2.971 123.981  0.00  0.00    +0.000 C 
BRANCH  25  26
ATOM     26  O   UNL     1      -9.949  -2.788 123.637  0.00  0.00    +0.000 OA
ATOM     27  H   UNL     1     -10.338  -3.662 123.440  0.00  0.00    +0.000 HD
ENDBRANCH  25  26
ENDBRANCH  18  25
ENDBRANCH  16  18
ENDBRANCH  15  16
ENDBRANCH   5  15
TORSDOF 9
ENDMDL
MODEL 8
REMARK VINA RESULT:      -6.6      3.711      6.066
REMARK  Name = Butylscopolamine
REMARK  11 active torsions:
REMARK  status: ('A' for Active; 'I' for Inactive)
REMARK    1  A    between atoms: C_1  and  C_2
REMARK    2  A    between atoms: C_2  and  C_3
REMARK    3  A    between atoms: C_3  and  C_4
REMARK    4  A    between atoms: C_4  and  N_5
REMARK    5  A    between atoms: N_5  and  C_6
REMARK    6  A    between atoms: C_9  and  O_15
REMARK    7  A    between atoms: O_15  and  C_16
REMARK    8  A    between atoms: C_16  and  C_18
REMARK    9  A    between atoms: C_18  and  C_19
REMARK   10  A    between atoms: C_18  and  C_21
REMARK   11  A    between atoms: C_19  and  O_20
REMARK                            x       y       z     vdW  Elec       q    Type
REMARK                         _______ _______ _______ _____ _____    ______ ____
ROOT
ATOM      1  N   UNL     1      -7.569  -0.386 125.139  0.00  0.00    +0.000 N 
ATOM      2  C   UNL     1      -8.565  -1.549 124.878  0.00  0.00    +0.000 C 
ATOM      3  C   UNL     1      -7.454   0.852 124.226  0.00  0.00    +0.000 C 
ATOM      4  C   UNL     1      -6.454   1.834 124.929  0.00  0.00    +0.000 C 
ATOM      5  C   UNL     1      -6.932   2.367 126.278  0.00  0.00    +0.000 C 
ATOM      6  C   UNL     1      -7.504   1.247 127.125  0.00  0.00    +0.000 C 
ATOM      7  C   UNL     1      -8.352   0.326 126.285  0.00  0.00    +0.000 C 
ATOM      8  C   UNL     1      -9.477   1.077 125.471  0.00  0.00    +0.000 C 
ATOM      9  O   UNL     1      -9.277   2.390 125.005  0.00  0.00    +0.000 OA
ATOM     10  C   UNL     1      -8.828   1.386 124.099  0.00  0.00    +0.000 C 
ENDROOT
BRANCH   1  11
ATOM     11  C   UNL     1      -6.196  -0.960 124.915  0.00  0.00    +0.000 C 
BRANCH  11  12
ATOM     12  C   UNL     1      -6.092  -2.423 124.744  0.00  0.00    +0.000 C 
BRANCH  12  14
ATOM     13  C   UNL     1      -4.568  -3.889 123.575  0.00  0.00    +0.000 C 
ATOM     14  C   UNL     1      -5.373  -2.633 123.422  0.00  0.00    +0.000 C 
ENDBRANCH  12  14
ENDBRANCH  11  12
ENDBRANCH   1  11
BRANCH   5  15
ATOM     15  O   UNL     1      -5.927   3.025 127.064  0.00  0.00    +0.000 OA
BRANCH  15  16
ATOM     16  C   UNL     1      -5.196   4.119 126.716  0.00  0.00    +0.000 C 
ATOM     17  O   UNL     1      -5.758   5.096 126.270  0.00  0.00    +0.000 OA
BRANCH  16  18
ATOM     18  C   UNL     1      -3.699   4.104 126.958  0.00  0.00    +0.000 C 
BRANCH  18  19
ATOM     19  C   UNL     1      -3.238   4.810 128.208  0.00  0.00    +0.000 A 
ATOM     20  C   UNL     1      -2.521   6.020 128.172  0.00  0.00    +0.000 A 
ATOM     21  C   UNL     1      -1.944   6.561 129.311  0.00  0.00    +0.000 A 
ATOM     22  C   UNL     1      -2.194   5.971 130.536  0.00  0.00    +0.000 A 
ATOM     23  C   UNL     1      -2.925   4.793 130.603  0.00  0.00    +0.000 A 
ATOM     24  C   UNL     1      -3.399   4.199 129.446  0.00  0.00    +0.000 A 
ENDBRANCH  18  19
BRANCH  18  25
ATOM     25  C   UNL     1      -3.161   2.685 126.643  0.00  0.00    +0.000 C 
BRANCH  25  26
ATOM     26  O   UNL     1      -1.749   2.556 126.668  0.00  0.00    +0.000 OA
ATOM     27  H   UNL     1      -1.415   2.624 125.752  0.00  0.00    +0.000 HD
ENDBRANCH  25  26
ENDBRANCH  18  25
ENDBRANCH  16  18
ENDBRANCH  15  16
ENDBRANCH   5  15
TORSDOF 9
ENDMDL
MODEL 9
REMARK VINA RESULT:      -6.6      6.013      8.039
REMARK  Name = Butylscopolamine
REMARK  11 active torsions:
REMARK  status: ('A' for Active; 'I' for Inactive)
REMARK    1  A    between atoms: C_1  and  C_2
REMARK    2  A    between atoms: C_2  and  C_3
REMARK    3  A    between atoms: C_3  and  C_4
REMARK    4  A    between atoms: C_4  and  N_5
REMARK    5  A    between atoms: N_5  and  C_6
REMARK    6  A    between atoms: C_9  and  O_15
REMARK    7  A    between atoms: O_15  and  C_16
REMARK    8  A    between atoms: C_16  and  C_18
REMARK    9  A    between atoms: C_18  and  C_19
REMARK   10  A    between atoms: C_18  and  C_21
REMARK   11  A    between atoms: C_19  and  O_20
REMARK                            x       y       z     vdW  Elec       q    Type
REMARK                         _______ _______ _______ _____ _____    ______ ____
ROOT
ATOM      1  N   UNL     1      -5.832   3.129 127.535  0.00  0.00    +0.000 N 
ATOM      2  C   UNL     1      -4.817   2.253 126.750  0.00  0.00    +0.000 C 
ATOM      3  C   UNL     1      -7.069   3.783 126.885  0.00  0.00    +0.000 C 
ATOM      4  C   UNL     1      -7.891   4.437 128.048  0.00  0.00    +0.000 C 
ATOM      5  C   UNL     1      -8.445   3.446 129.069  0.00  0.00    +0.000 C 
ATOM      6  C   UNL     1      -7.387   2.434 129.462  0.00  0.00    +0.000 C 
ATOM      7  C   UNL     1      -6.609   1.982 128.253  0.00  0.00    +0.000 C 
ATOM      8  C   UNL     1      -7.523   1.448 127.082  0.00  0.00    +0.000 C 
ATOM      9  O   UNL     1      -8.810   1.977 126.872  0.00  0.00    +0.000 OA
ATOM     10  C   UNL     1      -7.782   2.688 126.190  0.00  0.00    +0.000 C 
ENDROOT
BRANCH   1  11
ATOM     11  C   UNL     1      -5.089   4.381 127.916  0.00  0.00    +0.000 C 
BRANCH  11  12
ATOM     12  C   UNL     1      -3.687   4.231 128.357  0.00  0.00    +0.000 C 
BRANCH  12  14
ATOM     13  C   UNL     1      -2.823   5.028 130.468  0.00  0.00    +0.000 C 
ATOM     14  C   UNL     1      -3.749   4.017 129.860  0.00  0.00    +0.000 C 
ENDBRANCH  12  14
ENDBRANCH  11  12
ENDBRANCH   1  11
BRANCH   5  15
ATOM     15  O   UNL     1      -8.943   4.033 130.281  0.00  0.00    +0.000 OA
BRANCH  15  16
ATOM     16  C   UNL     1     -10.128   4.680 130.454  0.00  0.00    +0.000 C 
ATOM     17  O   UNL     1     -11.166   4.098 130.224  0.00  0.00    +0.000 OA
BRANCH  16  18
ATOM     18  C   UNL     1     -10.113   6.098 130.994  0.00  0.00    +0.000 C 
BRANCH  18  19
ATOM     19  C   UNL     1     -10.824   7.121 130.145  0.00  0.00    +0.000 A 
ATOM     20  C   UNL     1     -12.141   7.540 130.411  0.00  0.00    +0.000 A 
ATOM     21  C   UNL     1     -12.847   8.336 129.522  0.00  0.00    +0.000 A 
ATOM     22  C   UNL     1     -12.196   8.845 128.413  0.00  0.00    +0.000 A 
ATOM     23  C   UNL     1     -10.887   8.472 128.145  0.00  0.00    +0.000 A 
ATOM     24  C   UNL     1     -10.229   7.584 128.978  0.00  0.00    +0.000 A 
ENDBRANCH  18  19
BRANCH  18  25
ATOM     25  C   UNL     1     -10.388   6.049 132.519  0.00  0.00    +0.000 C 
BRANCH  25  26
ATOM     26  O   UNL     1     -10.084   4.814 133.147  0.00  0.00    +0.000 OA
ATOM     27  H   UNL     1      -9.114   4.706 133.165  0.00  0.00    +0.000 HD
ENDBRANCH  25  26
ENDBRANCH  18  25
ENDBRANCH  16  18
ENDBRANCH  15  16
ENDBRANCH   5  15
TORSDOF 9
ENDMDL
