MODEL 1
REMARK VINA RESULT:      -7.8      0.000      0.000
REMARK  Name = Cabergoline
REMARK  11 active torsions:
REMARK  status: ('A' for Active; 'I' for Inactive)
REMARK    1  A    between atoms: C_16  and  C_22
REMARK    2  A    between atoms: N_18  and  C_19
REMARK    3  A    between atoms: C_19  and  C_20
REMARK    4  A    between atoms: N_24  and  C_25
REMARK    5  A    between atoms: C_25  and  C_26
REMARK    6  A    between atoms: C_26  and  C_27
REMARK    7  A    between atoms: C_27  and  N_28
REMARK    8  A    between atoms: N_28  and  C_29
REMARK    9  A    between atoms: N_28  and  C_30
REMARK   10  A    between atoms: N_33  and  C_34
REMARK   11  A    between atoms: C_34  and  C_35
REMARK                            x       y       z     vdW  Elec       q    Type
REMARK                         _______ _______ _______ _____ _____    ______ ____
ROOT
ATOM      1  C   UNL     1      -5.956   2.591 124.630  0.00  0.00    +0.000 C 
ATOM      2  C   UNL     1      -7.320   1.934 124.294  0.00  0.00    +0.000 C 
ATOM      3  C   UNL     1      -7.780   2.568 122.980  0.00  0.00    +0.000 A 
ATOM      4  C   UNL     1      -9.012   2.720 122.419  0.00  0.00    +0.000 A 
ATOM      5  N   UNL     1      -8.822   3.313 121.190  0.00  0.00    +0.000 N 
ATOM      6  C   UNL     1      -7.507   3.696 121.021  0.00  0.00    +0.000 A 
ATOM      7  C   UNL     1      -6.793   4.277 119.972  0.00  0.00    +0.000 A 
ATOM      8  C   UNL     1      -5.425   4.502 120.223  0.00  0.00    +0.000 A 
ATOM      9  C   UNL     1      -4.871   4.357 121.533  0.00  0.00    +0.000 A 
ATOM     10  C   UNL     1      -5.694   3.988 122.647  0.00  0.00    +0.000 A 
ATOM     11  C   UNL     1      -6.923   3.443 122.242  0.00  0.00    +0.000 A 
ATOM     12  C   UNL     1      -5.444   3.941 124.240  0.00  0.00    +0.000 C 
ATOM     13  C   UNL     1      -6.664   4.672 125.551  0.00  0.00    +0.000 C 
ATOM     14  C   UNL     1      -6.455   4.334 127.100  0.00  0.00    +0.000 C 
ATOM     15  C   UNL     1      -6.194   2.809 127.112  0.00  0.00    +0.000 C 
ATOM     16  N   UNL     1      -5.346   2.491 125.971  0.00  0.00    +0.000 NA
ATOM     17  H   UNL     1      -9.558   3.475 120.523  0.00  0.00    +0.000 HD
ENDROOT
BRANCH  14  18
ATOM     18  C   UNL     1      -7.582   4.609 128.298  0.00  0.00    +0.000 C 
ATOM     19  O   UNL     1      -8.731   4.812 127.887  0.00  0.00    +0.000 OA
ATOM     20  N   UNL     1      -7.349   4.512 129.715  0.00  0.00    +0.000 N 
ATOM     21  C   UNL     1      -8.463   4.752 130.616  0.00  0.00    +0.000 C 
ATOM     22  O   UNL     1      -9.613   4.938 130.297  0.00  0.00    +0.000 OA
ATOM     23  N   UNL     1      -8.153   4.741 131.992  0.00  0.00    +0.000 N 
ATOM     24  H   UNL     1      -7.223   4.624 132.341  0.00  0.00    +0.000 HD
BRANCH  23  25
ATOM     25  C   UNL     1      -9.208   4.952 132.996  0.00  0.00    +0.000 C 
ATOM     26  C   UNL     1      -9.242   3.871 134.072  0.00  0.00    +0.000 C 
ENDBRANCH  23  25
BRANCH  20  27
ATOM     27  C   UNL     1      -6.034   4.219 130.334  0.00  0.00    +0.000 C 
BRANCH  27  28
ATOM     28  C   UNL     1      -5.020   5.310 130.195  0.00  0.00    +0.000 C 
BRANCH  28  29
ATOM     29  C   UNL     1      -3.598   5.081 129.735  0.00  0.00    +0.000 C 
BRANCH  29  30
ATOM     30  N   UNL     1      -3.307   5.548 128.354  0.00  0.00    +0.000 NA
ATOM     31  C   UNL     1      -2.352   6.635 128.228  0.00  0.00    +0.000 C 
ATOM     32  C   UNL     1      -2.690   4.502 127.574  0.00  0.00    +0.000 C 
ENDBRANCH  29  30
ENDBRANCH  28  29
ENDBRANCH  27  28
ENDBRANCH  20  27
ENDBRANCH  14  18
BRANCH  16  33
ATOM     33  C   UNL     1      -4.730   1.210 125.932  0.00  0.00    +0.000 C 
BRANCH  33  34
ATOM     34  C   UNL     1      -5.384   0.170 126.742  0.00  0.00    +0.000 C 
ATOM     35  C   UNL     1      -5.614  -1.009 126.163  0.00  0.00    +0.000 C 
ENDBRANCH  33  34
ENDBRANCH  16  33
TORSDOF 8
ENDMDL
MODEL 2
REMARK VINA RESULT:      -7.7      4.228      7.622
REMARK  Name = Cabergoline
REMARK  11 active torsions:
REMARK  status: ('A' for Active; 'I' for Inactive)
REMARK    1  A    between atoms: C_16  and  C_22
REMARK    2  A    between atoms: N_18  and  C_19
REMARK    3  A    between atoms: C_19  and  C_20
REMARK    4  A    between atoms: N_24  and  C_25
REMARK    5  A    between atoms: C_25  and  C_26
REMARK    6  A    between atoms: C_26  and  C_27
REMARK    7  A    between atoms: C_27  and  N_28
REMARK    8  A    between atoms: N_28  and  C_29
REMARK    9  A    between atoms: N_28  and  C_30
REMARK   10  A    between atoms: N_33  and  C_34
REMARK   11  A    between atoms: C_34  and  C_35
REMARK                            x       y       z     vdW  Elec       q    Type
REMARK                         _______ _______ _______ _____ _____    ______ ____
ROOT
ATOM      1  C   UNL     1      -3.995   4.975 129.417  0.00  0.00    +0.000 C 
ATOM      2  C   UNL     1      -4.100   6.488 129.093  0.00  0.00    +0.000 C 
ATOM      3  C   UNL     1      -3.470   7.217 130.281  0.00  0.00    +0.000 A 
ATOM      4  C   UNL     1      -3.625   8.480 130.767  0.00  0.00    +0.000 A 
ATOM      5  N   UNL     1      -2.756   8.611 131.828  0.00  0.00    +0.000 N 
ATOM      6  C   UNL     1      -2.164   7.403 132.137  0.00  0.00    +0.000 A 
ATOM      7  C   UNL     1      -1.199   7.005 133.064  0.00  0.00    +0.000 A 
ATOM      8  C   UNL     1      -0.867   5.637 133.041  0.00  0.00    +0.000 A 
ATOM      9  C   UNL     1      -1.630   4.694 132.282  0.00  0.00    +0.000 A 
ATOM     10  C   UNL     1      -2.774   5.108 131.525  0.00  0.00    +0.000 A 
ATOM     11  C   UNL     1      -2.801   6.497 131.320  0.00  0.00    +0.000 A 
ATOM     12  C   UNL     1      -3.940   4.304 130.753  0.00  0.00    +0.000 C 
ATOM     13  C   UNL     1      -5.825   4.703 130.921  0.00  0.00    +0.000 C 
ATOM     14  C   UNL     1      -6.867   4.029 129.912  0.00  0.00    +0.000 C 
ATOM     15  C   UNL     1      -6.203   4.202 128.526  0.00  0.00    +0.000 C 
ATOM     16  N   UNL     1      -4.774   3.959 128.681  0.00  0.00    +0.000 NA
ATOM     17  H   UNL     1      -2.605   9.471 132.330  0.00  0.00    +0.000 HD
ENDROOT
BRANCH  14  18
ATOM     18  C   UNL     1      -8.453   4.509 129.716  0.00  0.00    +0.000 C 
ATOM     19  O   UNL     1      -9.100   3.831 128.908  0.00  0.00    +0.000 OA
ATOM     20  N   UNL     1      -9.126   5.531 130.474  0.00  0.00    +0.000 N 
ATOM     21  C   UNL     1     -10.527   5.792 130.191  0.00  0.00    +0.000 C 
ATOM     22  O   UNL     1     -11.230   5.167 129.434  0.00  0.00    +0.000 OA
ATOM     23  N   UNL     1     -11.105   6.869 130.894  0.00  0.00    +0.000 N 
ATOM     24  H   UNL     1     -10.586   7.455 131.517  0.00  0.00    +0.000 HD
BRANCH  23  25
ATOM     25  C   UNL     1     -12.523   7.210 130.701  0.00  0.00    +0.000 C 
ATOM     26  C   UNL     1     -12.733   8.444 129.828  0.00  0.00    +0.000 C 
ENDBRANCH  23  25
BRANCH  20  27
ATOM     27  C   UNL     1      -8.481   6.373 131.510  0.00  0.00    +0.000 C 
BRANCH  27  28
ATOM     28  C   UNL     1      -8.601   5.848 132.906  0.00  0.00    +0.000 C 
BRANCH  28  29
ATOM     29  C   UNL     1      -9.244   4.523 133.252  0.00  0.00    +0.000 C 
BRANCH  29  30
ATOM     30  N   UNL     1      -8.377   3.593 134.023  0.00  0.00    +0.000 NA
ATOM     31  C   UNL     1      -7.784   2.496 133.278  0.00  0.00    +0.000 C 
ATOM     32  C   UNL     1      -7.217   4.278 134.543  0.00  0.00    +0.000 C 
ENDBRANCH  29  30
ENDBRANCH  28  29
ENDBRANCH  27  28
ENDBRANCH  20  27
ENDBRANCH  14  18
BRANCH  16  33
ATOM     33  C   UNL     1      -3.997   3.770 127.506  0.00  0.00    +0.000 C 
BRANCH  33  34
ATOM     34  C   UNL     1      -2.614   3.319 127.729  0.00  0.00    +0.000 C 
ATOM     35  C   UNL     1      -1.853   3.106 126.655  0.00  0.00    +0.000 C 
ENDBRANCH  33  34
ENDBRANCH  16  33
TORSDOF 8
ENDMDL
MODEL 3
REMARK VINA RESULT:      -7.5      3.319      5.405
REMARK  Name = Cabergoline
REMARK  11 active torsions:
REMARK  status: ('A' for Active; 'I' for Inactive)
REMARK    1  A    between atoms: C_16  and  C_22
REMARK    2  A    between atoms: N_18  and  C_19
REMARK    3  A    between atoms: C_19  and  C_20
REMARK    4  A    between atoms: N_24  and  C_25
REMARK    5  A    between atoms: C_25  and  C_26
REMARK    6  A    between atoms: C_26  and  C_27
REMARK    7  A    between atoms: C_27  and  N_28
REMARK    8  A    between atoms: N_28  and  C_29
REMARK    9  A    between atoms: N_28  and  C_30
REMARK   10  A    between atoms: N_33  and  C_34
REMARK   11  A    between atoms: C_34  and  C_35
REMARK                            x       y       z     vdW  Elec       q    Type
REMARK                         _______ _______ _______ _____ _____    ______ ____
ROOT
ATOM      1  C   UNL     1      -6.702  -2.558 128.157  0.00  0.00    +0.000 C 
ATOM      2  C   UNL     1      -8.159  -3.065 128.001  0.00  0.00    +0.000 C 
ATOM      3  C   UNL     1      -8.493  -2.934 126.514  0.00  0.00    +0.000 A 
ATOM      4  C   UNL     1      -9.676  -2.819 125.848  0.00  0.00    +0.000 A 
ATOM      5  N   UNL     1      -9.379  -2.796 124.503  0.00  0.00    +0.000 N 
ATOM      6  C   UNL     1      -8.015  -2.727 124.297  0.00  0.00    +0.000 A 
ATOM      7  C   UNL     1      -7.205  -2.729 123.161  0.00  0.00    +0.000 A 
ATOM      8  C   UNL     1      -5.820  -2.647 123.406  0.00  0.00    +0.000 A 
ATOM      9  C   UNL     1      -5.307  -2.352 124.708  0.00  0.00    +0.000 A 
ATOM     10  C   UNL     1      -6.187  -2.115 125.813  0.00  0.00    +0.000 A 
ATOM     11  C   UNL     1      -7.492  -2.570 125.560  0.00  0.00    +0.000 A 
ATOM     12  C   UNL     1      -5.957  -1.571 127.314  0.00  0.00    +0.000 C 
ATOM     13  C   UNL     1      -7.035  -0.198 128.146  0.00  0.00    +0.000 C 
ATOM     14  C   UNL     1      -6.896   0.071 129.717  0.00  0.00    +0.000 C 
ATOM     15  C   UNL     1      -6.909  -1.346 130.336  0.00  0.00    +0.000 C 
ATOM     16  N   UNL     1      -6.125  -2.219 129.473  0.00  0.00    +0.000 NA
ATOM     17  H   UNL     1     -10.071  -2.793 123.773  0.00  0.00    +0.000 HD
ENDROOT
BRANCH  14  18
ATOM     18  C   UNL     1      -7.962   0.973 130.629  0.00  0.00    +0.000 C 
ATOM     19  O   UNL     1      -8.792   0.307 131.259  0.00  0.00    +0.000 OA
ATOM     20  N   UNL     1      -7.911   2.399 130.823  0.00  0.00    +0.000 N 
ATOM     21  C   UNL     1      -8.906   3.015 131.685  0.00  0.00    +0.000 C 
ATOM     22  O   UNL     1      -9.735   2.437 132.345  0.00  0.00    +0.000 OA
ATOM     23  N   UNL     1      -8.867   4.423 131.758  0.00  0.00    +0.000 N 
ATOM     24  H   UNL     1      -8.232   4.980 131.221  0.00  0.00    +0.000 HD
BRANCH  23  25
ATOM     25  C   UNL     1      -9.815   5.151 132.616  0.00  0.00    +0.000 C 
ATOM     26  C   UNL     1     -10.701   6.125 131.845  0.00  0.00    +0.000 C 
ENDBRANCH  23  25
BRANCH  20  27
ATOM     27  C   UNL     1      -6.931   3.303 130.174  0.00  0.00    +0.000 C 
BRANCH  27  28
ATOM     28  C   UNL     1      -7.317   3.760 128.802  0.00  0.00    +0.000 C 
BRANCH  28  29
ATOM     29  C   UNL     1      -6.443   3.581 127.581  0.00  0.00    +0.000 C 
BRANCH  29  30
ATOM     30  N   UNL     1      -6.624   4.615 126.528  0.00  0.00    +0.000 NA
ATOM     31  C   UNL     1      -5.673   4.592 125.430  0.00  0.00    +0.000 C 
ATOM     32  C   UNL     1      -7.886   4.443 125.848  0.00  0.00    +0.000 C 
ENDBRANCH  29  30
ENDBRANCH  28  29
ENDBRANCH  27  28
ENDBRANCH  20  27
ENDBRANCH  14  18
BRANCH  16  33
ATOM     33  C   UNL     1      -5.746  -3.493 129.978  0.00  0.00    +0.000 C 
BRANCH  33  34
ATOM     34  C   UNL     1      -4.311  -3.659 130.260  0.00  0.00    +0.000 C 
ATOM     35  C   UNL     1      -3.474  -3.662 129.222  0.00  0.00    +0.000 C 
ENDBRANCH  33  34
ENDBRANCH  16  33
TORSDOF 8
ENDMDL
MODEL 4
REMARK VINA RESULT:      -7.5      3.510      5.223
REMARK  Name = Cabergoline
REMARK  11 active torsions:
REMARK  status: ('A' for Active; 'I' for Inactive)
REMARK    1  A    between atoms: C_16  and  C_22
REMARK    2  A    between atoms: N_18  and  C_19
REMARK    3  A    between atoms: C_19  and  C_20
REMARK    4  A    between atoms: N_24  and  C_25
REMARK    5  A    between atoms: C_25  and  C_26
REMARK    6  A    between atoms: C_26  and  C_27
REMARK    7  A    between atoms: C_27  and  N_28
REMARK    8  A    between atoms: N_28  and  C_29
REMARK    9  A    between atoms: N_28  and  C_30
REMARK   10  A    between atoms: N_33  and  C_34
REMARK   11  A    between atoms: C_34  and  C_35
REMARK                            x       y       z     vdW  Elec       q    Type
REMARK                         _______ _______ _______ _____ _____    ______ ____
ROOT
ATOM      1  C   UNL     1      -6.753  -2.327 128.151  0.00  0.00    +0.000 C 
ATOM      2  C   UNL     1      -8.165  -2.944 127.977  0.00  0.00    +0.000 C 
ATOM      3  C   UNL     1      -8.435  -2.958 126.472  0.00  0.00    +0.000 A 
ATOM      4  C   UNL     1      -9.590  -2.980 125.749  0.00  0.00    +0.000 A 
ATOM      5  N   UNL     1      -9.231  -3.048 124.421  0.00  0.00    +0.000 N 
ATOM      6  C   UNL     1      -7.866  -2.903 124.267  0.00  0.00    +0.000 A 
ATOM      7  C   UNL     1      -7.004  -2.943 123.171  0.00  0.00    +0.000 A 
ATOM      8  C   UNL     1      -5.640  -2.746 123.467  0.00  0.00    +0.000 A 
ATOM      9  C   UNL     1      -5.210  -2.311 124.759  0.00  0.00    +0.000 A 
ATOM     10  C   UNL     1      -6.156  -2.045 125.802  0.00  0.00    +0.000 A 
ATOM     11  C   UNL     1      -7.415  -2.607 125.534  0.00  0.00    +0.000 A 
ATOM     12  C   UNL     1      -6.034  -1.364 127.260  0.00  0.00    +0.000 C 
ATOM     13  C   UNL     1      -7.237  -0.004 127.925  0.00  0.00    +0.000 C 
ATOM     14  C   UNL     1      -7.191   0.402 129.471  0.00  0.00    +0.000 C 
ATOM     15  C   UNL     1      -7.143  -0.957 130.209  0.00  0.00    +0.000 C 
ATOM     16  N   UNL     1      -6.263  -1.842 129.457  0.00  0.00    +0.000 NA
ATOM     17  H   UNL     1      -9.886  -3.153 123.664  0.00  0.00    +0.000 HD
ENDROOT
BRANCH  14  18
ATOM     18  C   UNL     1      -8.356   1.302 130.257  0.00  0.00    +0.000 C 
ATOM     19  O   UNL     1      -8.854   0.749 131.245  0.00  0.00    +0.000 OA
ATOM     20  N   UNL     1      -8.720   2.661 129.955  0.00  0.00    +0.000 N 
ATOM     21  C   UNL     1      -9.736   3.302 130.772  0.00  0.00    +0.000 C 
ATOM     22  O   UNL     1     -10.255   2.840 131.758  0.00  0.00    +0.000 OA
ATOM     23  N   UNL     1     -10.121   4.597 130.367  0.00  0.00    +0.000 N 
ATOM     24  H   UNL     1      -9.763   5.042 129.545  0.00  0.00    +0.000 HD
BRANCH  23  25
ATOM     25  C   UNL     1     -11.128   5.349 131.133  0.00  0.00    +0.000 C 
ATOM     26  C   UNL     1     -11.263   6.802 130.688  0.00  0.00    +0.000 C 
ENDBRANCH  23  25
BRANCH  20  27
ATOM     27  C   UNL     1      -8.156   3.455 128.836  0.00  0.00    +0.000 C 
BRANCH  27  28
ATOM     28  C   UNL     1      -6.871   4.153 129.150  0.00  0.00    +0.000 C 
BRANCH  28  29
ATOM     29  C   UNL     1      -5.583   3.923 128.392  0.00  0.00    +0.000 C 
BRANCH  29  30
ATOM     30  N   UNL     1      -5.171   5.046 127.508  0.00  0.00    +0.000 NA
ATOM     31  C   UNL     1      -3.778   5.449 127.584  0.00  0.00    +0.000 C 
ATOM     32  C   UNL     1      -5.316   4.689 126.117  0.00  0.00    +0.000 C 
ENDBRANCH  29  30
ENDBRANCH  28  29
ENDBRANCH  27  28
ENDBRANCH  20  27
ENDBRANCH  14  18
BRANCH  16  33
ATOM     33  C   UNL     1      -5.827  -3.041 130.085  0.00  0.00    +0.000 C 
BRANCH  33  34
ATOM     34  C   UNL     1      -4.540  -3.572 129.608  0.00  0.00    +0.000 C 
ATOM     35  C   UNL     1      -3.476  -2.772 129.686  0.00  0.00    +0.000 C 
ENDBRANCH  33  34
ENDBRANCH  16  33
TORSDOF 8
ENDMDL
MODEL 5
REMARK VINA RESULT:      -7.2      5.930      8.405
REMARK  Name = Cabergoline
REMARK  11 active torsions:
REMARK  status: ('A' for Active; 'I' for Inactive)
REMARK    1  A    between atoms: C_16  and  C_22
REMARK    2  A    between atoms: N_18  and  C_19
REMARK    3  A    between atoms: C_19  and  C_20
REMARK    4  A    between atoms: N_24  and  C_25
REMARK    5  A    between atoms: C_25  and  C_26
REMARK    6  A    between atoms: C_26  and  C_27
REMARK    7  A    between atoms: C_27  and  N_28
REMARK    8  A    between atoms: N_28  and  C_29
REMARK    9  A    between atoms: N_28  and  C_30
REMARK   10  A    between atoms: N_33  and  C_34
REMARK   11  A    between atoms: C_34  and  C_35
REMARK                            x       y       z     vdW  Elec       q    Type
REMARK                         _______ _______ _______ _____ _____    ______ ____
ROOT
ATOM      1  C   UNL     1      -9.611   6.261 131.379  0.00  0.00    +0.000 C 
ATOM      2  C   UNL     1      -8.885   6.822 130.129  0.00  0.00    +0.000 C 
ATOM      3  C   UNL     1      -9.944   7.594 129.340  0.00  0.00    +0.000 A 
ATOM      4  C   UNL     1     -10.037   7.936 128.024  0.00  0.00    +0.000 A 
ATOM      5  N   UNL     1     -11.182   8.689 127.885  0.00  0.00    +0.000 N 
ATOM      6  C   UNL     1     -11.915   8.698 129.055  0.00  0.00    +0.000 A 
ATOM      7  C   UNL     1     -13.094   9.328 129.456  0.00  0.00    +0.000 A 
ATOM      8  C   UNL     1     -13.502   9.063 130.778  0.00  0.00    +0.000 A 
ATOM      9  C   UNL     1     -12.877   8.045 131.564  0.00  0.00    +0.000 A 
ATOM     10  C   UNL     1     -11.816   7.245 131.028  0.00  0.00    +0.000 A 
ATOM     11  C   UNL     1     -11.251   7.814 129.875  0.00  0.00    +0.000 A 
ATOM     12  C   UNL     1     -11.057   5.920 131.549  0.00  0.00    +0.000 C 
ATOM     13  C   UNL     1     -10.717   4.363 130.453  0.00  0.00    +0.000 C 
ATOM     14  C   UNL     1      -9.727   3.225 130.984  0.00  0.00    +0.000 C 
ATOM     15  C   UNL     1      -8.515   4.016 131.529  0.00  0.00    +0.000 C 
ATOM     16  N   UNL     1      -9.023   5.196 132.216  0.00  0.00    +0.000 NA
ATOM     17  H   UNL     1     -11.460   9.139 127.030  0.00  0.00    +0.000 HD
ENDROOT
BRANCH  14  18
ATOM     18  C   UNL     1      -9.085   2.004 130.045  0.00  0.00    +0.000 C 
ATOM     19  O   UNL     1      -8.977   2.281 128.845  0.00  0.00    +0.000 OA
ATOM     20  N   UNL     1      -8.560   0.754 130.528  0.00  0.00    +0.000 N 
ATOM     21  C   UNL     1      -8.004  -0.180 129.565  0.00  0.00    +0.000 C 
ATOM     22  O   UNL     1      -7.847   0.020 128.385  0.00  0.00    +0.000 OA
ATOM     23  N   UNL     1      -7.596  -1.427 130.084  0.00  0.00    +0.000 N 
ATOM     24  H   UNL     1      -7.717  -1.684 131.043  0.00  0.00    +0.000 HD
BRANCH  23  25
ATOM     25  C   UNL     1      -7.000  -2.442 129.202  0.00  0.00    +0.000 C 
ATOM     26  C   UNL     1      -7.991  -3.515 128.761  0.00  0.00    +0.000 C 
ENDBRANCH  23  25
BRANCH  20  27
ATOM     27  C   UNL     1      -8.575   0.327 131.949  0.00  0.00    +0.000 C 
BRANCH  27  28
ATOM     28  C   UNL     1      -7.451   0.866 132.776  0.00  0.00    +0.000 C 
BRANCH  28  29
ATOM     29  C   UNL     1      -6.299   0.023 133.277  0.00  0.00    +0.000 C 
BRANCH  29  30
ATOM     30  N   UNL     1      -5.624  -0.792 132.233  0.00  0.00    +0.000 NA
ATOM     31  C   UNL     1      -4.501  -0.170 131.553  0.00  0.00    +0.000 C 
ATOM     32  C   UNL     1      -5.023  -1.972 132.807  0.00  0.00    +0.000 C 
ENDBRANCH  29  30
ENDBRANCH  28  29
ENDBRANCH  27  28
ENDBRANCH  20  27
ENDBRANCH  14  18
BRANCH  16  33
ATOM     33  C   UNL     1      -8.128   5.921 133.050  0.00  0.00    +0.000 C 
BRANCH  33  34
ATOM     34  C   UNL     1      -7.494   5.142 134.125  0.00  0.00    +0.000 C 
ATOM     35  C   UNL     1      -7.748   5.505 135.383  0.00  0.00    +0.000 C 
ENDBRANCH  33  34
ENDBRANCH  16  33
TORSDOF 8
ENDMDL
MODEL 6
REMARK VINA RESULT:      -7.2      2.593      8.382
REMARK  Name = Cabergoline
REMARK  11 active torsions:
REMARK  status: ('A' for Active; 'I' for Inactive)
REMARK    1  A    between atoms: C_16  and  C_22
REMARK    2  A    between atoms: N_18  and  C_19
REMARK    3  A    between atoms: C_19  and  C_20
REMARK    4  A    between atoms: N_24  and  C_25
REMARK    5  A    between atoms: C_25  and  C_26
REMARK    6  A    between atoms: C_26  and  C_27
REMARK    7  A    between atoms: C_27  and  N_28
REMARK    8  A    between atoms: N_28  and  C_29
REMARK    9  A    between atoms: N_28  and  C_30
REMARK   10  A    between atoms: N_33  and  C_34
REMARK   11  A    between atoms: C_34  and  C_35
REMARK                            x       y       z     vdW  Elec       q    Type
REMARK                         _______ _______ _______ _____ _____    ______ ____
ROOT
ATOM      1  C   UNL     1      -6.000   3.133 129.181  0.00  0.00    +0.000 C 
ATOM      2  C   UNL     1      -6.564   4.571 129.316  0.00  0.00    +0.000 C 
ATOM      3  C   UNL     1      -8.010   4.413 129.791  0.00  0.00    +0.000 A 
ATOM      4  C   UNL     1      -9.099   5.225 129.695  0.00  0.00    +0.000 A 
ATOM      5  N   UNL     1     -10.129   4.595 130.358  0.00  0.00    +0.000 N 
ATOM      6  C   UNL     1      -9.768   3.318 130.738  0.00  0.00    +0.000 A 
ATOM      7  C   UNL     1     -10.402   2.304 131.458  0.00  0.00    +0.000 A 
ATOM      8  C   UNL     1      -9.652   1.124 131.627  0.00  0.00    +0.000 A 
ATOM      9  C   UNL     1      -8.431   0.905 130.916  0.00  0.00    +0.000 A 
ATOM     10  C   UNL     1      -7.929   1.877 129.991  0.00  0.00    +0.000 A 
ATOM     11  C   UNL     1      -8.530   3.135 130.165  0.00  0.00    +0.000 A 
ATOM     12  C   UNL     1      -6.736   1.860 128.906  0.00  0.00    +0.000 C 
ATOM     13  C   UNL     1      -6.920   2.476 127.082  0.00  0.00    +0.000 C 
ATOM     14  C   UNL     1      -5.615   2.667 126.178  0.00  0.00    +0.000 C 
ATOM     15  C   UNL     1      -4.628   3.413 127.107  0.00  0.00    +0.000 C 
ATOM     16  N   UNL     1      -4.755   2.845 128.442  0.00  0.00    +0.000 NA
ATOM     17  H   UNL     1     -11.035   5.005 130.511  0.00  0.00    +0.000 HD
ENDROOT
BRANCH  14  18
ATOM     18  C   UNL     1      -5.573   3.484 124.724  0.00  0.00    +0.000 C 
ATOM     19  O   UNL     1      -4.832   4.475 124.712  0.00  0.00    +0.000 OA
ATOM     20  N   UNL     1      -6.211   3.069 123.503  0.00  0.00    +0.000 N 
ATOM     21  C   UNL     1      -6.035   3.890 122.317  0.00  0.00    +0.000 C 
ATOM     22  O   UNL     1      -5.319   4.857 122.218  0.00  0.00    +0.000 OA
ATOM     23  N   UNL     1      -6.764   3.488 121.178  0.00  0.00    +0.000 N 
ATOM     24  H   UNL     1      -7.402   2.717 121.183  0.00  0.00    +0.000 HD
BRANCH  23  25
ATOM     25  C   UNL     1      -6.646   4.234 119.916  0.00  0.00    +0.000 C 
ATOM     26  C   UNL     1      -7.960   4.329 119.146  0.00  0.00    +0.000 C 
ENDBRANCH  23  25
BRANCH  20  27
ATOM     27  C   UNL     1      -7.076   1.871 123.369  0.00  0.00    +0.000 C 
BRANCH  27  28
ATOM     28  C   UNL     1      -8.491   2.070 123.813  0.00  0.00    +0.000 C 
BRANCH  28  29
ATOM     29  C   UNL     1      -9.637   1.180 123.388  0.00  0.00    +0.000 C 
BRANCH  29  30
ATOM     30  N   UNL     1      -9.799  -0.056 124.198  0.00  0.00    +0.000 NA
ATOM     31  C   UNL     1      -8.974  -1.190 123.818  0.00  0.00    +0.000 C 
ATOM     32  C   UNL     1      -9.405   0.169 125.568  0.00  0.00    +0.000 C 
ENDBRANCH  29  30
ENDBRANCH  28  29
ENDBRANCH  27  28
ENDBRANCH  20  27
ENDBRANCH  14  18
BRANCH  16  33
ATOM     33  C   UNL     1      -3.751   3.158 129.400  0.00  0.00    +0.000 C 
BRANCH  33  34
ATOM     34  C   UNL     1      -2.971   4.375 129.123  0.00  0.00    +0.000 C 
ATOM     35  C   UNL     1      -2.779   5.227 130.129  0.00  0.00    +0.000 C 
ENDBRANCH  33  34
ENDBRANCH  16  33
TORSDOF 8
ENDMDL
MODEL 7
REMARK VINA RESULT:      -7.1      1.392      2.067
REMARK  Name = Cabergoline
REMARK  11 active torsions:
REMARK  status: ('A' for Active; 'I' for Inactive)
REMARK    1  A    between atoms: C_16  and  C_22
REMARK    2  A    between atoms: N_18  and  C_19
REMARK    3  A    between atoms: C_19  and  C_20
REMARK    4  A    between atoms: N_24  and  C_25
REMARK    5  A    between atoms: C_25  and  C_26
REMARK    6  A    between atoms: C_26  and  C_27
REMARK    7  A    between atoms: C_27  and  N_28
REMARK    8  A    between atoms: N_28  and  C_29
REMARK    9  A    between atoms: N_28  and  C_30
REMARK   10  A    between atoms: N_33  and  C_34
REMARK   11  A    between atoms: C_34  and  C_35
REMARK                            x       y       z     vdW  Elec       q    Type
REMARK                         _______ _______ _______ _____ _____    ______ ____
ROOT
ATOM      1  C   UNL     1      -5.977   2.436 124.723  0.00  0.00    +0.000 C 
ATOM      2  C   UNL     1      -7.329   1.758 124.381  0.00  0.00    +0.000 C 
ATOM      3  C   UNL     1      -7.819   2.422 123.094  0.00  0.00    +0.000 A 
ATOM      4  C   UNL     1      -9.060   2.562 122.551  0.00  0.00    +0.000 A 
ATOM      5  N   UNL     1      -8.899   3.198 121.339  0.00  0.00    +0.000 N 
ATOM      6  C   UNL     1      -7.595   3.618 121.168  0.00  0.00    +0.000 A 
ATOM      7  C   UNL     1      -6.907   4.249 120.131  0.00  0.00    +0.000 A 
ATOM      8  C   UNL     1      -5.543   4.498 120.374  0.00  0.00    +0.000 A 
ATOM      9  C   UNL     1      -4.970   4.325 121.673  0.00  0.00    +0.000 A 
ATOM     10  C   UNL     1      -5.771   3.902 122.784  0.00  0.00    +0.000 A 
ATOM     11  C   UNL     1      -6.992   3.340 122.374  0.00  0.00    +0.000 A 
ATOM     12  C   UNL     1      -5.502   3.810 124.371  0.00  0.00    +0.000 C 
ATOM     13  C   UNL     1      -6.724   4.470 125.718  0.00  0.00    +0.000 C 
ATOM     14  C   UNL     1      -6.488   4.087 127.253  0.00  0.00    +0.000 C 
ATOM     15  C   UNL     1      -6.192   2.570 127.213  0.00  0.00    +0.000 C 
ATOM     16  N   UNL     1      -5.349   2.309 126.054  0.00  0.00    +0.000 NA
ATOM     17  H   UNL     1      -9.646   3.363 120.686  0.00  0.00    +0.000 HD
ENDROOT
BRANCH  14  18
ATOM     18  C   UNL     1      -7.608   4.298 128.471  0.00  0.00    +0.000 C 
ATOM     19  O   UNL     1      -8.778   4.069 128.141  0.00  0.00    +0.000 OA
ATOM     20  N   UNL     1      -7.312   4.594 129.849  0.00  0.00    +0.000 N 
ATOM     21  C   UNL     1      -8.418   4.707 130.784  0.00  0.00    +0.000 C 
ATOM     22  O   UNL     1      -9.580   4.484 130.546  0.00  0.00    +0.000 OA
ATOM     23  N   UNL     1      -8.075   5.096 132.096  0.00  0.00    +0.000 N 
ATOM     24  H   UNL     1      -7.141   5.329 132.369  0.00  0.00    +0.000 HD
BRANCH  23  25
ATOM     25  C   UNL     1      -9.112   5.223 133.131  0.00  0.00    +0.000 C 
ATOM     26  C   UNL     1      -9.234   3.987 134.017  0.00  0.00    +0.000 C 
ENDBRANCH  23  25
BRANCH  20  27
ATOM     27  C   UNL     1      -5.950   4.832 130.385  0.00  0.00    +0.000 C 
BRANCH  27  28
ATOM     28  C   UNL     1      -5.159   3.591 130.654  0.00  0.00    +0.000 C 
BRANCH  28  29
ATOM     29  C   UNL     1      -4.398   3.342 131.937  0.00  0.00    +0.000 C 
BRANCH  29  30
ATOM     30  N   UNL     1      -4.778   2.097 132.656  0.00  0.00    +0.000 NA
ATOM     31  C   UNL     1      -6.142   2.029 133.152  0.00  0.00    +0.000 C 
ATOM     32  C   UNL     1      -4.710   0.953 131.778  0.00  0.00    +0.000 C 
ENDBRANCH  29  30
ENDBRANCH  28  29
ENDBRANCH  27  28
ENDBRANCH  20  27
ENDBRANCH  14  18
BRANCH  16  33
ATOM     33  C   UNL     1      -4.703   1.045 125.968  0.00  0.00    +0.000 C 
BRANCH  33  34
ATOM     34  C   UNL     1      -5.352  -0.048 126.710  0.00  0.00    +0.000 C 
ATOM     35  C   UNL     1      -5.578  -1.189 126.059  0.00  0.00    +0.000 C 
ENDBRANCH  33  34
ENDBRANCH  16  33
TORSDOF 8
ENDMDL
MODEL 8
REMARK VINA RESULT:      -7.1      2.891      5.101
REMARK  Name = Cabergoline
REMARK  11 active torsions:
REMARK  status: ('A' for Active; 'I' for Inactive)
REMARK    1  A    between atoms: C_16  and  C_22
REMARK    2  A    between atoms: N_18  and  C_19
REMARK    3  A    between atoms: C_19  and  C_20
REMARK    4  A    between atoms: N_24  and  C_25
REMARK    5  A    between atoms: C_25  and  C_26
REMARK    6  A    between atoms: C_26  and  C_27
REMARK    7  A    between atoms: C_27  and  N_28
REMARK    8  A    between atoms: N_28  and  C_29
REMARK    9  A    between atoms: N_28  and  C_30
REMARK   10  A    between atoms: N_33  and  C_34
REMARK   11  A    between atoms: C_34  and  C_35
REMARK                            x       y       z     vdW  Elec       q    Type
REMARK                         _______ _______ _______ _____ _____    ______ ____
ROOT
ATOM      1  C   UNL     1      -7.072  -1.487 127.312  0.00  0.00    +0.000 C 
ATOM      2  C   UNL     1      -8.250  -0.782 126.591  0.00  0.00    +0.000 C 
ATOM      3  C   UNL     1      -7.904  -0.801 125.102  0.00  0.00    +0.000 A 
ATOM      4  C   UNL     1      -8.300  -0.019 124.059  0.00  0.00    +0.000 A 
ATOM      5  N   UNL     1      -7.715  -0.536 122.924  0.00  0.00    +0.000 N 
ATOM      6  C   UNL     1      -6.818  -1.537 123.240  0.00  0.00    +0.000 A 
ATOM      7  C   UNL     1      -6.019  -2.397 122.485  0.00  0.00    +0.000 A 
ATOM      8  C   UNL     1      -5.233  -3.299 123.227  0.00  0.00    +0.000 A 
ATOM      9  C   UNL     1      -5.097  -3.182 124.646  0.00  0.00    +0.000 A 
ATOM     10  C   UNL     1      -5.748  -2.127 125.366  0.00  0.00    +0.000 A 
ATOM     11  C   UNL     1      -6.770  -1.524 124.616  0.00  0.00    +0.000 A 
ATOM     12  C   UNL     1      -5.642  -1.596 126.885  0.00  0.00    +0.000 C 
ATOM     13  C   UNL     1      -5.458   0.266 127.372  0.00  0.00    +0.000 C 
ATOM     14  C   UNL     1      -5.636   0.704 128.900  0.00  0.00    +0.000 C 
ATOM     15  C   UNL     1      -6.908  -0.049 129.354  0.00  0.00    +0.000 C 
ATOM     16  N   UNL     1      -6.870  -1.384 128.771  0.00  0.00    +0.000 NA
ATOM     17  H   UNL     1      -7.896  -0.198 121.994  0.00  0.00    +0.000 HD
ENDROOT
BRANCH  14  18
ATOM     18  C   UNL     1      -5.828   2.275 129.427  0.00  0.00    +0.000 C 
ATOM     19  O   UNL     1      -6.852   2.473 130.093  0.00  0.00    +0.000 OA
ATOM     20  N   UNL     1      -4.872   3.341 129.273  0.00  0.00    +0.000 N 
ATOM     21  C   UNL     1      -5.194   4.643 129.830  0.00  0.00    +0.000 C 
ATOM     22  O   UNL     1      -6.159   4.913 130.504  0.00  0.00    +0.000 OA
ATOM     23  N   UNL     1      -4.267   5.672 129.562  0.00  0.00    +0.000 N 
ATOM     24  H   UNL     1      -3.458   5.540 128.989  0.00  0.00    +0.000 HD
BRANCH  23  25
ATOM     25  C   UNL     1      -4.481   7.026 130.094  0.00  0.00    +0.000 C 
ATOM     26  C   UNL     1      -3.617   7.341 131.311  0.00  0.00    +0.000 C 
ENDBRANCH  23  25
BRANCH  20  27
ATOM     27  C   UNL     1      -3.584   3.218 128.549  0.00  0.00    +0.000 C 
BRANCH  27  28
ATOM     28  C   UNL     1      -3.709   3.140 127.060  0.00  0.00    +0.000 C 
BRANCH  28  29
ATOM     29  C   UNL     1      -4.473   4.146 126.228  0.00  0.00    +0.000 C 
BRANCH  29  30
ATOM     30  N   UNL     1      -5.393   3.552 125.222  0.00  0.00    +0.000 NA
ATOM     31  C   UNL     1      -6.717   3.187 125.695  0.00  0.00    +0.000 C 
ATOM     32  C   UNL     1      -5.688   4.495 124.170  0.00  0.00    +0.000 C 
ENDBRANCH  29  30
ENDBRANCH  28  29
ENDBRANCH  27  28
ENDBRANCH  20  27
ENDBRANCH  14  18
BRANCH  16  33
ATOM     33  C   UNL     1      -7.773  -2.359 129.275  0.00  0.00    +0.000 C 
BRANCH  33  34
ATOM     34  C   UNL     1      -7.171  -3.653 129.633  0.00  0.00    +0.000 C 
ATOM     35  C   UNL     1      -5.898  -3.653 130.031  0.00  0.00    +0.000 C 
ENDBRANCH  33  34
ENDBRANCH  16  33
TORSDOF 8
ENDMDL
MODEL 9
REMARK VINA RESULT:      -7.1      2.557      4.430
REMARK  Name = Cabergoline
REMARK  11 active torsions:
REMARK  status: ('A' for Active; 'I' for Inactive)
REMARK    1  A    between atoms: C_16  and  C_22
REMARK    2  A    between atoms: N_18  and  C_19
REMARK    3  A    between atoms: C_19  and  C_20
REMARK    4  A    between atoms: N_24  and  C_25
REMARK    5  A    between atoms: C_25  and  C_26
REMARK    6  A    between atoms: C_26  and  C_27
REMARK    7  A    between atoms: C_27  and  N_28
REMARK    8  A    between atoms: N_28  and  C_29
REMARK    9  A    between atoms: N_28  and  C_30
REMARK   10  A    between atoms: N_33  and  C_34
REMARK   11  A    between atoms: C_34  and  C_35
REMARK                            x       y       z     vdW  Elec       q    Type
REMARK                         _______ _______ _______ _____ _____    ______ ____
ROOT
ATOM      1  C   UNL     1      -6.025   2.772 126.197  0.00  0.00    +0.000 C 
ATOM      2  C   UNL     1      -5.984   1.271 126.586  0.00  0.00    +0.000 C 
ATOM      3  C   UNL     1      -7.173   0.620 125.877  0.00  0.00    +0.000 A 
ATOM      4  C   UNL     1      -7.886  -0.511 126.135  0.00  0.00    +0.000 A 
ATOM      5  N   UNL     1      -8.812  -0.642 125.125  0.00  0.00    +0.000 N 
ATOM      6  C   UNL     1      -8.819   0.473 124.309  0.00  0.00    +0.000 A 
ATOM      7  C   UNL     1      -9.510   0.821 123.149  0.00  0.00    +0.000 A 
ATOM      8  C   UNL     1      -9.204   2.091 122.621  0.00  0.00    +0.000 A 
ATOM      9  C   UNL     1      -8.417   3.035 123.351  0.00  0.00    +0.000 A 
ATOM     10  C   UNL     1      -7.920   2.727 124.660  0.00  0.00    +0.000 A 
ATOM     11  C   UNL     1      -7.962   1.351 124.934  0.00  0.00    +0.000 A 
ATOM     12  C   UNL     1      -7.203   3.607 125.807  0.00  0.00    +0.000 C 
ATOM     13  C   UNL     1      -7.715   3.581 127.672  0.00  0.00    +0.000 C 
ATOM     14  C   UNL     1      -6.771   4.277 128.759  0.00  0.00    +0.000 C 
ATOM     15  C   UNL     1      -5.352   3.791 128.381  0.00  0.00    +0.000 C 
ATOM     16  N   UNL     1      -5.250   3.794 126.928  0.00  0.00    +0.000 NA
ATOM     17  H   UNL     1      -9.426  -1.433 125.021  0.00  0.00    +0.000 HD
ENDROOT
BRANCH  14  18
ATOM     18  C   UNL     1      -6.898   4.065 130.408  0.00  0.00    +0.000 C 
ATOM     19  O   UNL     1      -6.590   2.936 130.807  0.00  0.00    +0.000 OA
ATOM     20  N   UNL     1      -7.208   5.090 131.371  0.00  0.00    +0.000 N 
ATOM     21  C   UNL     1      -7.240   4.730 132.778  0.00  0.00    +0.000 C 
ATOM     22  O   UNL     1      -6.937   3.660 133.248  0.00  0.00    +0.000 OA
ATOM     23  N   UNL     1      -7.646   5.750 133.663  0.00  0.00    +0.000 N 
ATOM     24  H   UNL     1      -7.942   6.655 133.354  0.00  0.00    +0.000 HD
BRANCH  23  25
ATOM     25  C   UNL     1      -7.696   5.503 135.112  0.00  0.00    +0.000 C 
ATOM     26  C   UNL     1      -6.397   5.857 135.830  0.00  0.00    +0.000 C 
ENDBRANCH  23  25
BRANCH  20  27
ATOM     27  C   UNL     1      -7.538   6.495 131.028  0.00  0.00    +0.000 C 
BRANCH  27  28
ATOM     28  C   UNL     1      -8.983   6.743 130.731  0.00  0.00    +0.000 C 
BRANCH  28  29
ATOM     29  C   UNL     1      -9.711   6.146 129.547  0.00  0.00    +0.000 C 
BRANCH  29  30
ATOM     30  N   UNL     1     -10.901   5.326 129.897  0.00  0.00    +0.000 NA
ATOM     31  C   UNL     1     -10.638   4.015 130.465  0.00  0.00    +0.000 C 
ATOM     32  C   UNL     1     -11.680   5.962 130.933  0.00  0.00    +0.000 C 
ENDBRANCH  29  30
ENDBRANCH  28  29
ENDBRANCH  27  28
ENDBRANCH  20  27
ENDBRANCH  14  18
BRANCH  16  33
ATOM     33  C   UNL     1      -3.957   3.670 126.349  0.00  0.00    +0.000 C 
BRANCH  33  34
ATOM     34  C   UNL     1      -2.897   3.212 127.261  0.00  0.00    +0.000 C 
ATOM     35  C   UNL     1      -1.699   2.956 126.736  0.00  0.00    +0.000 C 
ENDBRANCH  33  34
ENDBRANCH  16  33
TORSDOF 8
ENDMDL
