MODEL 1
REMARK VINA RESULT:      -8.9      0.000      0.000
REMARK  Name = Cabozantinib
REMARK  10 active torsions:
REMARK  status: ('A' for Active; 'I' for Inactive)
REMARK    1  A    between atoms: C_1  and  O_2
REMARK    2  A    between atoms: O_2  and  C_3
REMARK    3  A    between atoms: C_8  and  O_9
REMARK    4  A    between atoms: O_9  and  C_10
REMARK    5  A    between atoms: C_11  and  O_12
REMARK    6  A    between atoms: O_12  and  C_13
REMARK    7  A    between atoms: C_16  and  N_17
REMARK    8  A    between atoms: C_18  and  C_20
REMARK    9  A    between atoms: C_20  and  C_23
REMARK   10  A    between atoms: N_25  and  C_26
REMARK                            x       y       z     vdW  Elec       q    Type
REMARK                         _______ _______ _______ _____ _____    ______ ____
ROOT
ATOM      1  C   UNL     1      -7.947   4.151 130.015  0.00  0.00    +0.000 A 
ATOM      2  C   UNL     1      -7.250   3.416 130.984  0.00  0.00    +0.000 A 
ATOM      3  C   UNL     1      -7.157   2.013 130.869  0.00  0.00    +0.000 A 
ATOM      4  C   UNL     1      -7.829   1.344 129.826  0.00  0.00    +0.000 A 
ATOM      5  C   UNL     1      -8.559   2.094 128.917  0.00  0.00    +0.000 A 
ATOM      6  C   UNL     1      -8.551   3.484 128.949  0.00  0.00    +0.000 A 
ENDROOT
BRANCH   4   7
ATOM      7  N   UNL     1      -7.808  -0.066 129.733  0.00  0.00    +0.000 N 
ATOM      8  C   UNL     1      -6.666  -0.856 129.551  0.00  0.00    +0.000 C 
ATOM      9  O   UNL     1      -5.479  -0.527 129.698  0.00  0.00    +0.000 OA
ATOM     10  H   UNL     1      -8.663  -0.450 129.336  0.00  0.00    +0.000 HD
BRANCH   8  11
ATOM     11  C   UNL     1      -6.937  -2.246 128.978  0.00  0.00    +0.000 C 
ATOM     12  C   UNL     1      -6.329  -3.445 129.742  0.00  0.00    +0.000 C 
ATOM     13  C   UNL     1      -7.795  -3.168 129.839  0.00  0.00    +0.000 C 
BRANCH  11  14
ATOM     14  C   UNL     1      -6.839  -2.155 127.477  0.00  0.00    +0.000 C 
ATOM     15  O   UNL     1      -7.709  -2.774 126.875  0.00  0.00    +0.000 OA
ATOM     16  N   UNL     1      -5.804  -1.605 126.754  0.00  0.00    +0.000 N 
ATOM     17  H   UNL     1      -5.004  -1.185 127.208  0.00  0.00    +0.000 HD
BRANCH  16  18
ATOM     18  C   UNL     1      -5.793  -1.774 125.328  0.00  0.00    +0.000 A 
ATOM     19  C   UNL     1      -6.444  -0.840 124.530  0.00  0.00    +0.000 A 
ATOM     20  C   UNL     1      -6.569  -1.069 123.152  0.00  0.00    +0.000 A 
ATOM     21  C   UNL     1      -5.963  -2.174 122.558  0.00  0.00    +0.000 A 
ATOM     22  F   UNL     1      -6.082  -2.373 121.241  0.00  0.00    +0.000 F 
ATOM     23  C   UNL     1      -5.233  -3.068 123.313  0.00  0.00    +0.000 A 
ATOM     24  C   UNL     1      -5.157  -2.866 124.688  0.00  0.00    +0.000 A 
ENDBRANCH  16  18
ENDBRANCH  11  14
ENDBRANCH   8  11
ENDBRANCH   4   7
BRANCH   1  25
ATOM     25  O   UNL     1      -8.104   5.506 130.196  0.00  0.00    +0.000 OA
BRANCH  25  32
ATOM     26  C   UNL     1     -12.291   8.437 128.899  0.00  0.00    +0.000 A 
ATOM     27  C   UNL     1     -12.370   7.996 130.249  0.00  0.00    +0.000 A 
ATOM     28  C   UNL     1     -11.391   7.210 130.893  0.00  0.00    +0.000 A 
ATOM     29  C   UNL     1     -10.293   6.782 130.137  0.00  0.00    +0.000 A 
ATOM     30  C   UNL     1     -10.310   7.140 128.783  0.00  0.00    +0.000 A 
ATOM     31  C   UNL     1     -11.182   8.035 128.177  0.00  0.00    +0.000 A 
ATOM     32  C   UNL     1      -9.261   6.031 130.774  0.00  0.00    +0.000 A 
ATOM     33  C   UNL     1      -9.404   5.703 132.120  0.00  0.00    +0.000 A 
ATOM     34  C   UNL     1     -10.547   6.124 132.772  0.00  0.00    +0.000 A 
ATOM     35  N   UNL     1     -11.522   6.867 132.193  0.00  0.00    +0.000 NA
BRANCH  26  37
ATOM     36  C   UNL     1     -13.470  10.512 129.296  0.00  0.00    +0.000 C 
ATOM     37  O   UNL     1     -13.277   9.320 128.537  0.00  0.00    +0.000 OA
ENDBRANCH  26  37
BRANCH  31  38
ATOM     38  O   UNL     1     -10.639   8.368 126.968  0.00  0.00    +0.000 OA
ATOM     39  C   UNL     1     -11.118   7.690 125.853  0.00  0.00    +0.000 C 
ENDBRANCH  31  38
ENDBRANCH  25  32
ENDBRANCH   1  25
TORSDOF 8
ENDMDL
MODEL 2
REMARK VINA RESULT:      -8.9      3.552      9.727
REMARK  Name = Cabozantinib
REMARK  10 active torsions:
REMARK  status: ('A' for Active; 'I' for Inactive)
REMARK    1  A    between atoms: C_1  and  O_2
REMARK    2  A    between atoms: O_2  and  C_3
REMARK    3  A    between atoms: C_8  and  O_9
REMARK    4  A    between atoms: O_9  and  C_10
REMARK    5  A    between atoms: C_11  and  O_12
REMARK    6  A    between atoms: O_12  and  C_13
REMARK    7  A    between atoms: C_16  and  N_17
REMARK    8  A    between atoms: C_18  and  C_20
REMARK    9  A    between atoms: C_20  and  C_23
REMARK   10  A    between atoms: N_25  and  C_26
REMARK                            x       y       z     vdW  Elec       q    Type
REMARK                         _______ _______ _______ _____ _____    ______ ____
ROOT
ATOM      1  C   UNL     1      -6.539  -0.382 129.507  0.00  0.00    +0.000 A 
ATOM      2  C   UNL     1      -5.828  -0.376 130.716  0.00  0.00    +0.000 A 
ATOM      3  C   UNL     1      -6.018   0.674 131.638  0.00  0.00    +0.000 A 
ATOM      4  C   UNL     1      -6.861   1.756 131.312  0.00  0.00    +0.000 A 
ATOM      5  C   UNL     1      -7.503   1.751 130.083  0.00  0.00    +0.000 A 
ATOM      6  C   UNL     1      -7.421   0.660 129.225  0.00  0.00    +0.000 A 
ENDROOT
BRANCH   4   7
ATOM      7  N   UNL     1      -7.010   2.853 132.190  0.00  0.00    +0.000 N 
ATOM      8  C   UNL     1      -8.154   3.147 132.942  0.00  0.00    +0.000 C 
ATOM      9  O   UNL     1      -9.116   2.405 133.191  0.00  0.00    +0.000 OA
ATOM     10  H   UNL     1      -6.460   3.663 131.910  0.00  0.00    +0.000 HD
BRANCH   8  11
ATOM     11  C   UNL     1      -8.266   4.604 133.390  0.00  0.00    +0.000 C 
ATOM     12  C   UNL     1      -8.344   4.860 134.913  0.00  0.00    +0.000 C 
ATOM     13  C   UNL     1      -7.078   5.155 134.174  0.00  0.00    +0.000 C 
BRANCH  11  14
ATOM     14  C   UNL     1      -9.195   5.311 132.438  0.00  0.00    +0.000 C 
ATOM     15  O   UNL     1      -8.833   6.438 132.120  0.00  0.00    +0.000 OA
ATOM     16  N   UNL     1     -10.446   4.889 132.046  0.00  0.00    +0.000 N 
ATOM     17  H   UNL     1     -10.839   4.017 132.376  0.00  0.00    +0.000 HD
BRANCH  16  18
ATOM     18  C   UNL     1     -11.267   5.782 131.278  0.00  0.00    +0.000 A 
ATOM     19  C   UNL     1     -11.261   5.684 129.891  0.00  0.00    +0.000 A 
ATOM     20  C   UNL     1     -11.939   6.642 129.124  0.00  0.00    +0.000 A 
ATOM     21  C   UNL     1     -12.700   7.634 129.737  0.00  0.00    +0.000 A 
ATOM     22  F   UNL     1     -13.351   8.535 128.992  0.00  0.00    +0.000 F 
ATOM     23  C   UNL     1     -12.798   7.699 131.112  0.00  0.00    +0.000 A 
ATOM     24  C   UNL     1     -12.080   6.779 131.870  0.00  0.00    +0.000 A 
ENDBRANCH  16  18
ENDBRANCH  11  14
ENDBRANCH   8  11
ENDBRANCH   4   7
BRANCH   1  25
ATOM     25  O   UNL     1      -6.269  -1.366 128.584  0.00  0.00    +0.000 OA
BRANCH  25  32
ATOM     26  C   UNL     1      -8.898  -1.313 124.013  0.00  0.00    +0.000 A 
ATOM     27  C   UNL     1      -9.329  -2.385 124.841  0.00  0.00    +0.000 A 
ATOM     28  C   UNL     1      -8.827  -2.650 126.133  0.00  0.00    +0.000 A 
ATOM     29  C   UNL     1      -7.790  -1.841 126.612  0.00  0.00    +0.000 A 
ATOM     30  C   UNL     1      -7.314  -0.870 125.720  0.00  0.00    +0.000 A 
ATOM     31  C   UNL     1      -7.897  -0.501 124.516  0.00  0.00    +0.000 A 
ATOM     32  C   UNL     1      -7.297  -2.051 127.934  0.00  0.00    +0.000 A 
ATOM     33  C   UNL     1      -7.832  -3.091 128.692  0.00  0.00    +0.000 A 
ATOM     34  C   UNL     1      -8.817  -3.871 128.116  0.00  0.00    +0.000 A 
ATOM     35  N   UNL     1      -9.320  -3.666 126.875  0.00  0.00    +0.000 NA
BRANCH  26  37
ATOM     36  C   UNL     1     -10.051   0.152 122.470  0.00  0.00    +0.000 C 
ATOM     37  O   UNL     1      -9.637  -1.154 122.868  0.00  0.00    +0.000 OA
ENDBRANCH  26  37
BRANCH  31  38
ATOM     38  O   UNL     1      -7.343   0.694 124.151  0.00  0.00    +0.000 OA
ATOM     39  C   UNL     1      -6.736   1.441 125.154  0.00  0.00    +0.000 C 
ENDBRANCH  31  38
ENDBRANCH  25  32
ENDBRANCH   1  25
TORSDOF 8
ENDMDL
MODEL 3
REMARK VINA RESULT:      -8.7      3.052      3.849
REMARK  Name = Cabozantinib
REMARK  10 active torsions:
REMARK  status: ('A' for Active; 'I' for Inactive)
REMARK    1  A    between atoms: C_1  and  O_2
REMARK    2  A    between atoms: O_2  and  C_3
REMARK    3  A    between atoms: C_8  and  O_9
REMARK    4  A    between atoms: O_9  and  C_10
REMARK    5  A    between atoms: C_11  and  O_12
REMARK    6  A    between atoms: O_12  and  C_13
REMARK    7  A    between atoms: C_16  and  N_17
REMARK    8  A    between atoms: C_18  and  C_20
REMARK    9  A    between atoms: C_20  and  C_23
REMARK   10  A    between atoms: N_25  and  C_26
REMARK                            x       y       z     vdW  Elec       q    Type
REMARK                         _______ _______ _______ _____ _____    ______ ____
ROOT
ATOM      1  C   UNL     1      -7.412   4.152 129.429  0.00  0.00    +0.000 A 
ATOM      2  C   UNL     1      -8.043   2.975 129.856  0.00  0.00    +0.000 A 
ATOM      3  C   UNL     1      -8.227   1.909 128.950  0.00  0.00    +0.000 A 
ATOM      4  C   UNL     1      -7.849   2.057 127.600  0.00  0.00    +0.000 A 
ATOM      5  C   UNL     1      -7.283   3.255 127.196  0.00  0.00    +0.000 A 
ATOM      6  C   UNL     1      -6.982   4.261 128.108  0.00  0.00    +0.000 A 
ENDROOT
BRANCH   4   7
ATOM      7  N   UNL     1      -8.090   1.029 126.660  0.00  0.00    +0.000 N 
ATOM      8  C   UNL     1      -7.112   0.360 125.913  0.00  0.00    +0.000 C 
ATOM      9  O   UNL     1      -5.887   0.339 126.105  0.00  0.00    +0.000 OA
ATOM     10  H   UNL     1      -8.996   1.112 126.204  0.00  0.00    +0.000 HD
BRANCH   8  11
ATOM     11  C   UNL     1      -7.629  -0.309 124.640  0.00  0.00    +0.000 C 
ATOM     12  C   UNL     1      -7.028  -1.688 124.285  0.00  0.00    +0.000 C 
ATOM     13  C   UNL     1      -8.415  -1.602 124.837  0.00  0.00    +0.000 C 
BRANCH  11  14
ATOM     14  C   UNL     1      -7.790   0.759 123.589  0.00  0.00    +0.000 C 
ATOM     15  O   UNL     1      -8.571   0.469 122.689  0.00  0.00    +0.000 OA
ATOM     16  N   UNL     1      -7.040   1.907 123.464  0.00  0.00    +0.000 N 
ATOM     17  H   UNL     1      -6.303   2.133 124.118  0.00  0.00    +0.000 HD
BRANCH  16  18
ATOM     18  C   UNL     1      -7.211   2.719 122.292  0.00  0.00    +0.000 A 
ATOM     19  C   UNL     1      -8.491   3.123 121.927  0.00  0.00    +0.000 A 
ATOM     20  C   UNL     1      -8.689   3.787 120.709  0.00  0.00    +0.000 A 
ATOM     21  C   UNL     1      -7.607   4.134 119.904  0.00  0.00    +0.000 A 
ATOM     22  F   UNL     1      -7.811   4.777 118.749  0.00  0.00    +0.000 F 
ATOM     23  C   UNL     1      -6.317   3.826 120.286  0.00  0.00    +0.000 A 
ATOM     24  C   UNL     1      -6.129   3.119 121.470  0.00  0.00    +0.000 A 
ENDBRANCH  16  18
ENDBRANCH  11  14
ENDBRANCH   8  11
ENDBRANCH   4   7
BRANCH   1  25
ATOM     25  O   UNL     1      -7.327   5.212 130.303  0.00  0.00    +0.000 OA
BRANCH  25  32
ATOM     26  C   UNL     1     -12.004   7.511 129.499  0.00  0.00    +0.000 A 
ATOM     27  C   UNL     1     -11.819   7.188 130.871  0.00  0.00    +0.000 A 
ATOM     28  C   UNL     1     -10.660   6.582 131.402  0.00  0.00    +0.000 A 
ATOM     29  C   UNL     1      -9.645   6.217 130.510  0.00  0.00    +0.000 A 
ATOM     30  C   UNL     1      -9.914   6.445 129.154  0.00  0.00    +0.000 A 
ATOM     31  C   UNL     1     -10.976   7.175 128.636  0.00  0.00    +0.000 A 
ATOM     32  C   UNL     1      -8.440   5.650 131.022  0.00  0.00    +0.000 A 
ATOM     33  C   UNL     1      -8.332   5.433 132.394  0.00  0.00    +0.000 A 
ATOM     34  C   UNL     1      -9.407   5.777 133.191  0.00  0.00    +0.000 A 
ATOM     35  N   UNL     1     -10.545   6.346 132.727  0.00  0.00    +0.000 NA
BRANCH  26  37
ATOM     36  C   UNL     1     -13.065   9.661 129.173  0.00  0.00    +0.000 C 
ATOM     37  O   UNL     1     -13.138   8.238 129.239  0.00  0.00    +0.000 OA
ENDBRANCH  26  37
BRANCH  31  38
ATOM     38  O   UNL     1     -10.672   7.456 127.334  0.00  0.00    +0.000 OA
ATOM     39  C   UNL     1     -11.662   7.219 126.388  0.00  0.00    +0.000 C 
ENDBRANCH  31  38
ENDBRANCH  25  32
ENDBRANCH   1  25
TORSDOF 8
ENDMDL
MODEL 4
REMARK VINA RESULT:      -8.7      3.653      9.538
REMARK  Name = Cabozantinib
REMARK  10 active torsions:
REMARK  status: ('A' for Active; 'I' for Inactive)
REMARK    1  A    between atoms: C_1  and  O_2
REMARK    2  A    between atoms: O_2  and  C_3
REMARK    3  A    between atoms: C_8  and  O_9
REMARK    4  A    between atoms: O_9  and  C_10
REMARK    5  A    between atoms: C_11  and  O_12
REMARK    6  A    between atoms: O_12  and  C_13
REMARK    7  A    between atoms: C_16  and  N_17
REMARK    8  A    between atoms: C_18  and  C_20
REMARK    9  A    between atoms: C_20  and  C_23
REMARK   10  A    between atoms: N_25  and  C_26
REMARK                            x       y       z     vdW  Elec       q    Type
REMARK                         _______ _______ _______ _____ _____    ______ ____
ROOT
ATOM      1  C   UNL     1      -5.905  -0.510 128.419  0.00  0.00    +0.000 A 
ATOM      2  C   UNL     1      -5.203   0.537 129.033  0.00  0.00    +0.000 A 
ATOM      3  C   UNL     1      -5.820   1.295 130.050  0.00  0.00    +0.000 A 
ATOM      4  C   UNL     1      -7.164   1.051 130.395  0.00  0.00    +0.000 A 
ATOM      5  C   UNL     1      -7.851   0.048 129.728  0.00  0.00    +0.000 A 
ATOM      6  C   UNL     1      -7.213  -0.785 128.816  0.00  0.00    +0.000 A 
ENDROOT
BRANCH   4   7
ATOM      7  N   UNL     1      -7.823   1.845 131.361  0.00  0.00    +0.000 N 
ATOM      8  C   UNL     1      -8.892   2.715 131.111  0.00  0.00    +0.000 C 
ATOM      9  O   UNL     1      -9.618   2.765 130.106  0.00  0.00    +0.000 OA
ATOM     10  H   UNL     1      -7.216   2.122 132.129  0.00  0.00    +0.000 HD
BRANCH   8  11
ATOM     11  C   UNL     1      -9.083   3.809 132.161  0.00  0.00    +0.000 C 
ATOM     12  C   UNL     1      -9.461   3.346 133.587  0.00  0.00    +0.000 C 
ATOM     13  C   UNL     1      -8.072   3.821 133.304  0.00  0.00    +0.000 C 
BRANCH  11  14
ATOM     14  C   UNL     1      -9.801   4.960 131.506  0.00  0.00    +0.000 C 
ATOM     15  O   UNL     1      -9.202   6.028 131.562  0.00  0.00    +0.000 OA
ATOM     16  N   UNL     1     -11.091   4.955 131.023  0.00  0.00    +0.000 N 
ATOM     17  H   UNL     1     -11.668   4.126 131.060  0.00  0.00    +0.000 HD
BRANCH  16  18
ATOM     18  C   UNL     1     -11.674   6.197 130.600  0.00  0.00    +0.000 A 
ATOM     19  C   UNL     1     -11.505   6.612 129.283  0.00  0.00    +0.000 A 
ATOM     20  C   UNL     1     -11.939   7.887 128.895  0.00  0.00    +0.000 A 
ATOM     21  C   UNL     1     -12.626   8.706 129.788  0.00  0.00    +0.000 A 
ATOM     22  F   UNL     1     -13.043   9.916 129.400  0.00  0.00    +0.000 F 
ATOM     23  C   UNL     1     -12.887   8.283 131.075  0.00  0.00    +0.000 A 
ATOM     24  C   UNL     1     -12.408   7.038 131.472  0.00  0.00    +0.000 A 
ENDBRANCH  16  18
ENDBRANCH  11  14
ENDBRANCH   8  11
ENDBRANCH   4   7
BRANCH   1  25
ATOM     25  O   UNL     1      -5.318  -1.175 127.366  0.00  0.00    +0.000 OA
BRANCH  25  32
ATOM     26  C   UNL     1      -7.018   2.195 123.684  0.00  0.00    +0.000 A 
ATOM     27  C   UNL     1      -7.147   0.848 123.247  0.00  0.00    +0.000 A 
ATOM     28  C   UNL     1      -6.795  -0.280 124.018  0.00  0.00    +0.000 A 
ATOM     29  C   UNL     1      -6.221  -0.062 125.275  0.00  0.00    +0.000 A 
ATOM     30  C   UNL     1      -6.003   1.278 125.620  0.00  0.00    +0.000 A 
ATOM     31  C   UNL     1      -6.482   2.392 124.944  0.00  0.00    +0.000 A 
ATOM     32  C   UNL     1      -5.902  -1.182 126.099  0.00  0.00    +0.000 A 
ATOM     33  C   UNL     1      -6.127  -2.465 125.602  0.00  0.00    +0.000 A 
ATOM     34  C   UNL     1      -6.648  -2.584 124.328  0.00  0.00    +0.000 A 
ATOM     35  N   UNL     1      -6.988  -1.531 123.545  0.00  0.00    +0.000 NA
BRANCH  26  37
ATOM     36  C   UNL     1      -6.868   3.499 121.652  0.00  0.00    +0.000 C 
ATOM     37  O   UNL     1      -7.571   3.118 122.833  0.00  0.00    +0.000 OA
ENDBRANCH  26  37
BRANCH  31  38
ATOM     38  O   UNL     1      -6.360   3.459 125.790  0.00  0.00    +0.000 OA
ATOM     39  C   UNL     1      -6.907   3.325 127.060  0.00  0.00    +0.000 C 
ENDBRANCH  31  38
ENDBRANCH  25  32
ENDBRANCH   1  25
TORSDOF 8
ENDMDL
MODEL 5
REMARK VINA RESULT:      -8.6      3.153      4.815
REMARK  Name = Cabozantinib
REMARK  10 active torsions:
REMARK  status: ('A' for Active; 'I' for Inactive)
REMARK    1  A    between atoms: C_1  and  O_2
REMARK    2  A    between atoms: O_2  and  C_3
REMARK    3  A    between atoms: C_8  and  O_9
REMARK    4  A    between atoms: O_9  and  C_10
REMARK    5  A    between atoms: C_11  and  O_12
REMARK    6  A    between atoms: O_12  and  C_13
REMARK    7  A    between atoms: C_16  and  N_17
REMARK    8  A    between atoms: C_18  and  C_20
REMARK    9  A    between atoms: C_20  and  C_23
REMARK   10  A    between atoms: N_25  and  C_26
REMARK                            x       y       z     vdW  Elec       q    Type
REMARK                         _______ _______ _______ _____ _____    ______ ____
ROOT
ATOM      1  C   UNL     1      -8.904   2.823 132.952  0.00  0.00    +0.000 A 
ATOM      2  C   UNL     1      -9.665   2.016 132.093  0.00  0.00    +0.000 A 
ATOM      3  C   UNL     1      -9.206   0.726 131.752  0.00  0.00    +0.000 A 
ATOM      4  C   UNL     1      -7.951   0.280 132.209  0.00  0.00    +0.000 A 
ATOM      5  C   UNL     1      -7.195   1.124 133.008  0.00  0.00    +0.000 A 
ATOM      6  C   UNL     1      -7.694   2.343 133.452  0.00  0.00    +0.000 A 
ENDROOT
BRANCH   4   7
ATOM      7  N   UNL     1      -7.441  -0.980 131.821  0.00  0.00    +0.000 N 
ATOM      8  C   UNL     1      -6.698  -1.239 130.662  0.00  0.00    +0.000 C 
ATOM      9  O   UNL     1      -6.133  -0.422 129.919  0.00  0.00    +0.000 OA
ATOM     10  H   UNL     1      -8.012  -1.757 132.147  0.00  0.00    +0.000 HD
BRANCH   8  11
ATOM     11  C   UNL     1      -6.709  -2.698 130.210  0.00  0.00    +0.000 C 
ATOM     12  C   UNL     1      -5.437  -3.527 130.500  0.00  0.00    +0.000 C 
ATOM     13  C   UNL     1      -6.669  -3.743 131.322  0.00  0.00    +0.000 C 
BRANCH  11  14
ATOM     14  C   UNL     1      -7.382  -2.760 128.863  0.00  0.00    +0.000 C 
ATOM     15  O   UNL     1      -8.246  -3.624 128.768  0.00  0.00    +0.000 OA
ATOM     16  N   UNL     1      -7.009  -2.077 127.727  0.00  0.00    +0.000 N 
ATOM     17  H   UNL     1      -6.226  -1.437 127.726  0.00  0.00    +0.000 HD
BRANCH  16  18
ATOM     18  C   UNL     1      -7.652  -2.400 126.484  0.00  0.00    +0.000 A 
ATOM     19  C   UNL     1      -8.934  -1.919 126.239  0.00  0.00    +0.000 A 
ATOM     20  C   UNL     1      -9.630  -2.347 125.100  0.00  0.00    +0.000 A 
ATOM     21  C   UNL     1      -9.017  -3.173 124.161  0.00  0.00    +0.000 A 
ATOM     22  F   UNL     1      -9.691  -3.564 123.073  0.00  0.00    +0.000 F 
ATOM     23  C   UNL     1      -7.714  -3.592 124.334  0.00  0.00    +0.000 A 
ATOM     24  C   UNL     1      -7.044  -3.208 125.492  0.00  0.00    +0.000 A 
ENDBRANCH  16  18
ENDBRANCH  11  14
ENDBRANCH   8  11
ENDBRANCH   4   7
BRANCH   1  25
ATOM     25  O   UNL     1      -9.323   4.111 133.196  0.00  0.00    +0.000 OA
BRANCH  25  32
ATOM     26  C   UNL     1      -5.107   6.823 131.562  0.00  0.00    +0.000 A 
ATOM     27  C   UNL     1      -6.285   7.248 130.888  0.00  0.00    +0.000 A 
ATOM     28  C   UNL     1      -7.574   6.724 131.122  0.00  0.00    +0.000 A 
ATOM     29  C   UNL     1      -7.697   5.672 132.036  0.00  0.00    +0.000 A 
ATOM     30  C   UNL     1      -6.499   5.204 132.591  0.00  0.00    +0.000 A 
ATOM     31  C   UNL     1      -5.253   5.806 132.488  0.00  0.00    +0.000 A 
ATOM     32  C   UNL     1      -8.994   5.156 132.332  0.00  0.00    +0.000 A 
ATOM     33  C   UNL     1     -10.096   5.686 131.663  0.00  0.00    +0.000 A 
ATOM     34  C   UNL     1      -9.871   6.688 130.738  0.00  0.00    +0.000 A 
ATOM     35  N   UNL     1      -8.651   7.213 130.468  0.00  0.00    +0.000 NA
BRANCH  26  37
ATOM     36  C   UNL     1      -2.772   6.939 130.939  0.00  0.00    +0.000 C 
ATOM     37  O   UNL     1      -3.997   7.582 131.287  0.00  0.00    +0.000 OA
ENDBRANCH  26  37
BRANCH  31  38
ATOM     38  O   UNL     1      -4.457   5.248 133.449  0.00  0.00    +0.000 OA
ATOM     39  C   UNL     1      -3.984   3.964 133.210  0.00  0.00    +0.000 C 
ENDBRANCH  31  38
ENDBRANCH  25  32
ENDBRANCH   1  25
TORSDOF 8
ENDMDL
MODEL 6
REMARK VINA RESULT:      -8.5      7.981     10.950
REMARK  Name = Cabozantinib
REMARK  10 active torsions:
REMARK  status: ('A' for Active; 'I' for Inactive)
REMARK    1  A    between atoms: C_1  and  O_2
REMARK    2  A    between atoms: O_2  and  C_3
REMARK    3  A    between atoms: C_8  and  O_9
REMARK    4  A    between atoms: O_9  and  C_10
REMARK    5  A    between atoms: C_11  and  O_12
REMARK    6  A    between atoms: O_12  and  C_13
REMARK    7  A    between atoms: C_16  and  N_17
REMARK    8  A    between atoms: C_18  and  C_20
REMARK    9  A    between atoms: C_20  and  C_23
REMARK   10  A    between atoms: N_25  and  C_26
REMARK                            x       y       z     vdW  Elec       q    Type
REMARK                         _______ _______ _______ _____ _____    ______ ____
ROOT
ATOM      1  C   UNL     1      -1.870   6.898 132.300  0.00  0.00    +0.000 A 
ATOM      2  C   UNL     1      -3.007   7.516 132.839  0.00  0.00    +0.000 A 
ATOM      3  C   UNL     1      -4.252   6.853 132.801  0.00  0.00    +0.000 A 
ATOM      4  C   UNL     1      -4.367   5.607 132.153  0.00  0.00    +0.000 A 
ATOM      5  C   UNL     1      -3.236   5.049 131.578  0.00  0.00    +0.000 A 
ATOM      6  C   UNL     1      -1.984   5.635 131.722  0.00  0.00    +0.000 A 
ENDROOT
BRANCH   4   7
ATOM      7  N   UNL     1      -5.618   4.958 132.041  0.00  0.00    +0.000 N 
ATOM      8  C   UNL     1      -6.604   5.245 131.088  0.00  0.00    +0.000 C 
ATOM      9  O   UNL     1      -6.486   5.896 130.040  0.00  0.00    +0.000 OA
ATOM     10  H   UNL     1      -5.970   4.617 132.934  0.00  0.00    +0.000 HD
BRANCH   8  11
ATOM     11  C   UNL     1      -8.013   4.799 131.475  0.00  0.00    +0.000 C 
ATOM     12  C   UNL     1      -8.292   3.279 131.462  0.00  0.00    +0.000 C 
ATOM     13  C   UNL     1      -8.129   3.993 132.766  0.00  0.00    +0.000 C 
BRANCH  11  14
ATOM     14  C   UNL     1      -8.989   5.770 130.863  0.00  0.00    +0.000 C 
ATOM     15  O   UNL     1      -9.329   6.684 131.606  0.00  0.00    +0.000 OA
ATOM     16  N   UNL     1      -9.638   5.631 129.655  0.00  0.00    +0.000 N 
ATOM     17  H   UNL     1      -9.478   4.832 129.057  0.00  0.00    +0.000 HD
BRANCH  16  18
ATOM     18  C   UNL     1     -10.675   6.564 129.317  0.00  0.00    +0.000 A 
ATOM     19  C   UNL     1     -10.354   7.697 128.577  0.00  0.00    +0.000 A 
ATOM     20  C   UNL     1     -11.322   8.688 128.367  0.00  0.00    +0.000 A 
ATOM     21  C   UNL     1     -12.631   8.507 128.808  0.00  0.00    +0.000 A 
ATOM     22  F   UNL     1     -13.547   9.458 128.591  0.00  0.00    +0.000 F 
ATOM     23  C   UNL     1     -13.000   7.352 129.466  0.00  0.00    +0.000 A 
ATOM     24  C   UNL     1     -12.023   6.394 129.719  0.00  0.00    +0.000 A 
ENDBRANCH  16  18
ENDBRANCH  11  14
ENDBRANCH   8  11
ENDBRANCH   4   7
BRANCH   1  25
ATOM     25  O   UNL     1      -0.687   7.601 132.265  0.00  0.00    +0.000 OA
BRANCH  25  32
ATOM     26  C   UNL     1       0.419  12.281 134.429  0.00  0.00    +0.000 A 
ATOM     27  C   UNL     1       0.749  11.215 135.311  0.00  0.00    +0.000 A 
ATOM     28  C   UNL     1       0.586   9.846 135.009  0.00  0.00    +0.000 A 
ATOM     29  C   UNL     1       0.003   9.511 133.782  0.00  0.00    +0.000 A 
ATOM     30  C   UNL     1      -0.414  10.590 132.991  0.00  0.00    +0.000 A 
ATOM     31  C   UNL     1      -0.123  11.930 133.206  0.00  0.00    +0.000 A 
ATOM     32  C   UNL     1      -0.127   8.136 133.426  0.00  0.00    +0.000 A 
ATOM     33  C   UNL     1       0.287   7.166 134.336  0.00  0.00    +0.000 A 
ATOM     34  C   UNL     1       0.802   7.591 135.546  0.00  0.00    +0.000 A 
ATOM     35  N   UNL     1       0.964   8.892 135.888  0.00  0.00    +0.000 NA
BRANCH  26  37
ATOM     36  C   UNL     1       2.099  14.020 134.518  0.00  0.00    +0.000 C 
ATOM     37  O   UNL     1       0.811  13.519 134.871  0.00  0.00    +0.000 OA
ENDBRANCH  26  37
BRANCH  31  38
ATOM     38  O   UNL     1      -0.397  12.592 132.042  0.00  0.00    +0.000 OA
ATOM     39  C   UNL     1       0.664  12.803 131.170  0.00  0.00    +0.000 C 
ENDBRANCH  31  38
ENDBRANCH  25  32
ENDBRANCH   1  25
TORSDOF 8
ENDMDL
MODEL 7
REMARK VINA RESULT:      -8.4      2.435      3.300
REMARK  Name = Cabozantinib
REMARK  10 active torsions:
REMARK  status: ('A' for Active; 'I' for Inactive)
REMARK    1  A    between atoms: C_1  and  O_2
REMARK    2  A    between atoms: O_2  and  C_3
REMARK    3  A    between atoms: C_8  and  O_9
REMARK    4  A    between atoms: O_9  and  C_10
REMARK    5  A    between atoms: C_11  and  O_12
REMARK    6  A    between atoms: O_12  and  C_13
REMARK    7  A    between atoms: C_16  and  N_17
REMARK    8  A    between atoms: C_18  and  C_20
REMARK    9  A    between atoms: C_20  and  C_23
REMARK   10  A    between atoms: N_25  and  C_26
REMARK                            x       y       z     vdW  Elec       q    Type
REMARK                         _______ _______ _______ _____ _____    ______ ____
ROOT
ATOM      1  C   UNL     1      -7.517   2.588 132.562  0.00  0.00    +0.000 A 
ATOM      2  C   UNL     1      -8.711   1.889 132.335  0.00  0.00    +0.000 A 
ATOM      3  C   UNL     1      -8.679   0.635 131.689  0.00  0.00    +0.000 A 
ATOM      4  C   UNL     1      -7.460   0.122 131.204  0.00  0.00    +0.000 A 
ATOM      5  C   UNL     1      -6.304   0.865 131.391  0.00  0.00    +0.000 A 
ATOM      6  C   UNL     1      -6.308   2.039 132.137  0.00  0.00    +0.000 A 
ENDROOT
BRANCH   4   7
ATOM      7  N   UNL     1      -7.415  -1.098 130.492  0.00  0.00    +0.000 N 
ATOM      8  C   UNL     1      -6.902  -2.308 130.976  0.00  0.00    +0.000 C 
ATOM      9  O   UNL     1      -6.647  -2.613 132.150  0.00  0.00    +0.000 OA
ATOM     10  H   UNL     1      -7.329  -0.967 129.486  0.00  0.00    +0.000 HD
BRANCH   8  11
ATOM     11  C   UNL     1      -6.497  -3.307 129.893  0.00  0.00    +0.000 C 
ATOM     12  C   UNL     1      -5.002  -3.696 129.829  0.00  0.00    +0.000 C 
ATOM     13  C   UNL     1      -5.999  -4.662 130.388  0.00  0.00    +0.000 C 
BRANCH  11  14
ATOM     14  C   UNL     1      -7.263  -2.968 128.641  0.00  0.00    +0.000 C 
ATOM     15  O   UNL     1      -8.451  -3.271 128.676  0.00  0.00    +0.000 OA
ATOM     16  N   UNL     1      -6.733  -2.526 127.449  0.00  0.00    +0.000 N 
ATOM     17  H   UNL     1      -5.741  -2.372 127.335  0.00  0.00    +0.000 HD
BRANCH  16  18
ATOM     18  C   UNL     1      -7.594  -2.432 126.304  0.00  0.00    +0.000 A 
ATOM     19  C   UNL     1      -7.821  -3.565 125.530  0.00  0.00    +0.000 A 
ATOM     20  C   UNL     1      -8.537  -3.456 124.330  0.00  0.00    +0.000 A 
ATOM     21  C   UNL     1      -9.107  -2.243 123.951  0.00  0.00    +0.000 A 
ATOM     22  F   UNL     1      -9.796  -2.156 122.807  0.00  0.00    +0.000 F 
ATOM     23  C   UNL     1      -8.975  -1.123 124.745  0.00  0.00    +0.000 A 
ATOM     24  C   UNL     1      -8.219  -1.223 125.910  0.00  0.00    +0.000 A 
ENDBRANCH  16  18
ENDBRANCH  11  14
ENDBRANCH   8  11
ENDBRANCH   4   7
BRANCH   1  25
ATOM     25  O   UNL     1      -7.581   3.850 133.109  0.00  0.00    +0.000 OA
BRANCH  25  32
ATOM     26  C   UNL     1     -10.302   7.010 129.883  0.00  0.00    +0.000 A 
ATOM     27  C   UNL     1      -8.969   7.475 130.054  0.00  0.00    +0.000 A 
ATOM     28  C   UNL     1      -7.992   6.832 130.844  0.00  0.00    +0.000 A 
ATOM     29  C   UNL     1      -8.375   5.691 131.558  0.00  0.00    +0.000 A 
ATOM     30  C   UNL     1      -9.726   5.333 131.455  0.00  0.00    +0.000 A 
ATOM     31  C   UNL     1     -10.653   5.861 130.568  0.00  0.00    +0.000 A 
ATOM     32  C   UNL     1      -7.397   4.989 132.325  0.00  0.00    +0.000 A 
ATOM     33  C   UNL     1      -6.099   5.492 132.376  0.00  0.00    +0.000 A 
ATOM     34  C   UNL     1      -5.826   6.655 131.680  0.00  0.00    +0.000 A 
ATOM     35  N   UNL     1      -6.733   7.316 130.921  0.00  0.00    +0.000 NA
BRANCH  26  37
ATOM     36  C   UNL     1     -10.569   7.751 127.595  0.00  0.00    +0.000 C 
ATOM     37  O   UNL     1     -11.024   7.706 128.946  0.00  0.00    +0.000 OA
ENDBRANCH  26  37
BRANCH  31  38
ATOM     38  O   UNL     1     -11.719   5.006 130.545  0.00  0.00    +0.000 OA
ATOM     39  C   UNL     1     -11.442   3.655 130.370  0.00  0.00    +0.000 C 
ENDBRANCH  31  38
ENDBRANCH  25  32
ENDBRANCH   1  25
TORSDOF 8
ENDMDL
MODEL 8
REMARK VINA RESULT:      -8.3      3.677      9.866
REMARK  Name = Cabozantinib
REMARK  10 active torsions:
REMARK  status: ('A' for Active; 'I' for Inactive)
REMARK    1  A    between atoms: C_1  and  O_2
REMARK    2  A    between atoms: O_2  and  C_3
REMARK    3  A    between atoms: C_8  and  O_9
REMARK    4  A    between atoms: O_9  and  C_10
REMARK    5  A    between atoms: C_11  and  O_12
REMARK    6  A    between atoms: O_12  and  C_13
REMARK    7  A    between atoms: C_16  and  N_17
REMARK    8  A    between atoms: C_18  and  C_20
REMARK    9  A    between atoms: C_20  and  C_23
REMARK   10  A    between atoms: N_25  and  C_26
REMARK                            x       y       z     vdW  Elec       q    Type
REMARK                         _______ _______ _______ _____ _____    ______ ____
ROOT
ATOM      1  C   UNL     1      -7.236  -0.639 130.487  0.00  0.00    +0.000 A 
ATOM      2  C   UNL     1      -6.326   0.398 130.236  0.00  0.00    +0.000 A 
ATOM      3  C   UNL     1      -6.666   1.726 130.567  0.00  0.00    +0.000 A 
ATOM      4  C   UNL     1      -7.946   2.022 131.076  0.00  0.00    +0.000 A 
ATOM      5  C   UNL     1      -8.845   0.983 131.258  0.00  0.00    +0.000 A 
ATOM      6  C   UNL     1      -8.475  -0.342 131.055  0.00  0.00    +0.000 A 
ENDROOT
BRANCH   4   7
ATOM      7  N   UNL     1      -8.332   3.354 131.348  0.00  0.00    +0.000 N 
ATOM      8  C   UNL     1      -9.161   4.144 130.542  0.00  0.00    +0.000 C 
ATOM      9  O   UNL     1      -9.906   3.776 129.620  0.00  0.00    +0.000 OA
ATOM     10  H   UNL     1      -7.633   3.869 131.879  0.00  0.00    +0.000 HD
BRANCH   8  11
ATOM     11  C   UNL     1      -9.015   5.649 130.759  0.00  0.00    +0.000 C 
ATOM     12  C   UNL     1     -10.072   6.556 130.085  0.00  0.00    +0.000 C 
ATOM     13  C   UNL     1     -10.127   6.320 131.561  0.00  0.00    +0.000 C 
BRANCH  11  14
ATOM     14  C   UNL     1      -7.549   5.987 130.689  0.00  0.00    +0.000 C 
ATOM     15  O   UNL     1      -6.933   5.389 129.814  0.00  0.00    +0.000 OA
ATOM     16  N   UNL     1      -6.836   6.743 131.594  0.00  0.00    +0.000 N 
ATOM     17  H   UNL     1      -7.279   7.162 132.399  0.00  0.00    +0.000 HD
BRANCH  16  18
ATOM     18  C   UNL     1      -5.407   6.805 131.467  0.00  0.00    +0.000 A 
ATOM     19  C   UNL     1      -4.618   6.017 132.299  0.00  0.00    +0.000 A 
ATOM     20  C   UNL     1      -3.225   6.176 132.290  0.00  0.00    +0.000 A 
ATOM     21  C   UNL     1      -2.615   7.045 131.388  0.00  0.00    +0.000 A 
ATOM     22  F   UNL     1      -1.284   7.178 131.384  0.00  0.00    +0.000 F 
ATOM     23  C   UNL     1      -3.368   7.771 130.488  0.00  0.00    +0.000 A 
ATOM     24  C   UNL     1      -4.754   7.650 130.537  0.00  0.00    +0.000 A 
ENDBRANCH  16  18
ENDBRANCH  11  14
ENDBRANCH   8  11
ENDBRANCH   4   7
BRANCH   1  25
ATOM     25  O   UNL     1      -6.922  -1.913 130.072  0.00  0.00    +0.000 OA
BRANCH  25  32
ATOM     26  C   UNL     1      -6.320  -1.554 124.845  0.00  0.00    +0.000 A 
ATOM     27  C   UNL     1      -7.302  -2.525 125.184  0.00  0.00    +0.000 A 
ATOM     28  C   UNL     1      -7.699  -2.836 126.502  0.00  0.00    +0.000 A 
ATOM     29  C   UNL     1      -7.041  -2.189 127.554  0.00  0.00    +0.000 A 
ATOM     30  C   UNL     1      -6.001  -1.327 127.183  0.00  0.00    +0.000 A 
ATOM     31  C   UNL     1      -5.705  -0.899 125.896  0.00  0.00    +0.000 A 
ATOM     32  C   UNL     1      -7.455  -2.443 128.896  0.00  0.00    +0.000 A 
ATOM     33  C   UNL     1      -8.474  -3.367 129.119  0.00  0.00    +0.000 A 
ATOM     34  C   UNL     1      -9.030  -3.996 128.021  0.00  0.00    +0.000 A 
ATOM     35  N   UNL     1      -8.672  -3.744 126.739  0.00  0.00    +0.000 NA
BRANCH  26  37
ATOM     36  C   UNL     1      -7.326  -1.563 122.645  0.00  0.00    +0.000 C 
ATOM     37  O   UNL     1      -6.213  -1.309 123.500  0.00  0.00    +0.000 OA
ENDBRANCH  26  37
BRANCH  31  38
ATOM     38  O   UNL     1      -4.880   0.185 126.013  0.00  0.00    +0.000 OA
ATOM     39  C   UNL     1      -5.476   1.440 125.971  0.00  0.00    +0.000 C 
ENDBRANCH  31  38
ENDBRANCH  25  32
ENDBRANCH   1  25
TORSDOF 8
ENDMDL
MODEL 9
REMARK VINA RESULT:      -8.2      4.909     11.809
REMARK  Name = Cabozantinib
REMARK  10 active torsions:
REMARK  status: ('A' for Active; 'I' for Inactive)
REMARK    1  A    between atoms: C_1  and  O_2
REMARK    2  A    between atoms: O_2  and  C_3
REMARK    3  A    between atoms: C_8  and  O_9
REMARK    4  A    between atoms: O_9  and  C_10
REMARK    5  A    between atoms: C_11  and  O_12
REMARK    6  A    between atoms: O_12  and  C_13
REMARK    7  A    between atoms: C_16  and  N_17
REMARK    8  A    between atoms: C_18  and  C_20
REMARK    9  A    between atoms: C_20  and  C_23
REMARK   10  A    between atoms: N_25  and  C_26
REMARK                            x       y       z     vdW  Elec       q    Type
REMARK                         _______ _______ _______ _____ _____    ______ ____
ROOT
ATOM      1  C   UNL     1      -7.582  -0.987 132.372  0.00  0.00    +0.000 A 
ATOM      2  C   UNL     1      -8.600  -0.142 131.908  0.00  0.00    +0.000 A 
ATOM      3  C   UNL     1      -8.545   1.240 132.185  0.00  0.00    +0.000 A 
ATOM      4  C   UNL     1      -7.513   1.758 132.993  0.00  0.00    +0.000 A 
ATOM      5  C   UNL     1      -6.555   0.887 133.487  0.00  0.00    +0.000 A 
ATOM      6  C   UNL     1      -6.530  -0.453 133.114  0.00  0.00    +0.000 A 
ENDROOT
BRANCH   4   7
ATOM      7  N   UNL     1      -7.479   3.127 133.343  0.00  0.00    +0.000 N 
ATOM      8  C   UNL     1      -8.580   3.895 133.743  0.00  0.00    +0.000 C 
ATOM      9  O   UNL     1      -9.694   3.497 134.116  0.00  0.00    +0.000 OA
ATOM     10  H   UNL     1      -6.751   3.644 132.854  0.00  0.00    +0.000 HD
BRANCH   8  11
ATOM     11  C   UNL     1      -8.404   5.403 133.567  0.00  0.00    +0.000 C 
ATOM     12  C   UNL     1      -8.173   6.232 134.851  0.00  0.00    +0.000 C 
ATOM     13  C   UNL     1      -7.030   5.961 133.925  0.00  0.00    +0.000 C 
BRANCH  11  14
ATOM     14  C   UNL     1      -9.379   5.862 132.514  0.00  0.00    +0.000 C 
ATOM     15  O   UNL     1      -8.932   6.704 131.743  0.00  0.00    +0.000 OA
ATOM     16  N   UNL     1     -10.721   5.561 132.451  0.00  0.00    +0.000 N 
ATOM     17  H   UNL     1     -11.163   4.962 133.135  0.00  0.00    +0.000 HD
BRANCH  16  18
ATOM     18  C   UNL     1     -11.536   6.239 131.482  0.00  0.00    +0.000 A 
ATOM     19  C   UNL     1     -11.547   5.784 130.168  0.00  0.00    +0.000 A 
ATOM     20  C   UNL     1     -12.218   6.522 129.183  0.00  0.00    +0.000 A 
ATOM     21  C   UNL     1     -12.956   7.654 129.522  0.00  0.00    +0.000 A 
ATOM     22  F   UNL     1     -13.599   8.341 128.572  0.00  0.00    +0.000 F 
ATOM     23  C   UNL     1     -13.037   8.076 130.832  0.00  0.00    +0.000 A 
ATOM     24  C   UNL     1     -12.326   7.371 131.800  0.00  0.00    +0.000 A 
ENDBRANCH  16  18
ENDBRANCH  11  14
ENDBRANCH   8  11
ENDBRANCH   4   7
BRANCH   1  25
ATOM     25  O   UNL     1      -7.703  -2.344 132.170  0.00  0.00    +0.000 OA
BRANCH  25  32
ATOM     26  C   UNL     1      -3.509  -5.189 133.627  0.00  0.00    +0.000 A 
ATOM     27  C   UNL     1      -4.589  -5.363 134.535  0.00  0.00    +0.000 A 
ATOM     28  C   UNL     1      -5.853  -4.748 134.404  0.00  0.00    +0.000 A 
ATOM     29  C   UNL     1      -6.040  -3.856 133.341  0.00  0.00    +0.000 A 
ATOM     30  C   UNL     1      -4.917  -3.623 132.538  0.00  0.00    +0.000 A 
ATOM     31  C   UNL     1      -3.724  -4.332 132.562  0.00  0.00    +0.000 A 
ATOM     32  C   UNL     1      -7.322  -3.259 133.152  0.00  0.00    +0.000 A 
ATOM     33  C   UNL     1      -8.336  -3.546 134.064  0.00  0.00    +0.000 A 
ATOM     34  C   UNL     1      -8.043  -4.397 135.112  0.00  0.00    +0.000 A 
ATOM     35  N   UNL     1      -6.842  -4.999 135.289  0.00  0.00    +0.000 NA
BRANCH  26  37
ATOM     36  C   UNL     1      -2.003  -6.231 135.207  0.00  0.00    +0.000 C 
ATOM     37  O   UNL     1      -2.435  -6.008 133.866  0.00  0.00    +0.000 OA
ENDBRANCH  26  37
BRANCH  31  38
ATOM     38  O   UNL     1      -3.055  -4.034 131.408  0.00  0.00    +0.000 OA
ATOM     39  C   UNL     1      -3.755  -3.327 130.437  0.00  0.00    +0.000 C 
ENDBRANCH  31  38
ENDBRANCH  25  32
ENDBRANCH   1  25
TORSDOF 8
ENDMDL
