MODEL 1
REMARK VINA RESULT:      -9.0      0.000      0.000
REMARK  Name = Cabotegravir
REMARK  5 active torsions:
REMARK  status: ('A' for Active; 'I' for Inactive)
REMARK    1  A    between atoms: C_6  and  C_7
REMARK    2  A    between atoms: N_9  and  C_10
REMARK    3  A    between atoms: C_10  and  C_11
REMARK    4  A    between atoms: C_21  and  O_22
REMARK    5  A    between atoms: C_27  and  C_28
REMARK                            x       y       z     vdW  Elec       q    Type
REMARK                         _______ _______ _______ _____ _____    ______ ____
ROOT
ATOM      1  C   UNL     1      -5.797  -0.255 125.906  0.00  0.00    +0.000 C 
ATOM      2  C   UNL     1      -6.440   0.400 127.123  0.00  0.00    +0.000 C 
ATOM      3  N   UNL     1      -6.924   1.768 126.816  0.00  0.00    +0.000 N 
ATOM      4  C   UNL     1      -7.192   2.655 127.853  0.00  0.00    +0.000 A 
ATOM      5  C   UNL     1      -7.723   3.884 127.728  0.00  0.00    +0.000 A 
ATOM      6  C   UNL     1      -8.080   4.289 126.332  0.00  0.00    +0.000 A 
ATOM      7  O   UNL     1      -8.597   5.366 126.032  0.00  0.00    +0.000 OA
ATOM      8  C   UNL     1      -7.817   3.340 125.207  0.00  0.00    +0.000 A 
ATOM      9  C   UNL     1      -7.252   2.149 125.492  0.00  0.00    +0.000 A 
ATOM     10  C   UNL     1      -7.051   1.169 124.351  0.00  0.00    +0.000 C 
ATOM     11  O   UNL     1      -7.354   1.398 123.180  0.00  0.00    +0.000 OA
ATOM     12  N   UNL     1      -6.597  -0.060 124.743  0.00  0.00    +0.000 N 
ATOM     13  C   UNL     1      -6.991  -1.293 124.135  0.00  0.00    +0.000 C 
ATOM     14  C   UNL     1      -6.447  -1.451 122.732  0.00  0.00    +0.000 C 
ATOM     15  C   UNL     1      -6.425  -2.345 125.072  0.00  0.00    +0.000 C 
ATOM     16  O   UNL     1      -5.665  -1.669 126.089  0.00  0.00    +0.000 OA
ENDROOT
BRANCH   5  17
ATOM     17  C   UNL     1      -7.955   4.811 128.881  0.00  0.00    +0.000 C 
ATOM     18  O   UNL     1      -7.023   5.305 129.510  0.00  0.00    +0.000 OA
ATOM     19  N   UNL     1      -9.257   5.098 129.229  0.00  0.00    +0.000 N 
ATOM     20  H   UNL     1     -10.048   4.679 128.768  0.00  0.00    +0.000 HD
BRANCH  19  21
ATOM     21  C   UNL     1      -9.526   5.957 130.368  0.00  0.00    +0.000 C 
BRANCH  21  22
ATOM     22  C   UNL     1     -10.539   7.009 130.018  0.00  0.00    +0.000 A 
ATOM     23  C   UNL     1     -11.744   7.100 130.723  0.00  0.00    +0.000 A 
ATOM     24  F   UNL     1     -11.990   6.255 131.734  0.00  0.00    +0.000 F 
ATOM     25  C   UNL     1     -12.712   8.035 130.383  0.00  0.00    +0.000 A 
ATOM     26  C   UNL     1     -12.539   8.778 129.225  0.00  0.00    +0.000 A 
ATOM     27  F   UNL     1     -13.490   9.639 128.843  0.00  0.00    +0.000 F 
ATOM     28  C   UNL     1     -11.387   8.651 128.458  0.00  0.00    +0.000 A 
ATOM     29  C   UNL     1     -10.339   7.856 128.920  0.00  0.00    +0.000 A 
ENDBRANCH  21  22
ENDBRANCH  19  21
ENDBRANCH   5  17
BRANCH   8  30
ATOM     30  O   UNL     1      -8.203   3.758 123.945  0.00  0.00    +0.000 OA
ATOM     31  H   UNL     1      -7.776   3.144 123.311  0.00  0.00    +0.000 HD
ENDBRANCH   8  30
TORSDOF 4
ENDMDL
MODEL 2
REMARK VINA RESULT:      -8.8      6.106      8.574
REMARK  Name = Cabotegravir
REMARK  5 active torsions:
REMARK  status: ('A' for Active; 'I' for Inactive)
REMARK    1  A    between atoms: C_6  and  C_7
REMARK    2  A    between atoms: N_9  and  C_10
REMARK    3  A    between atoms: C_10  and  C_11
REMARK    4  A    between atoms: C_21  and  O_22
REMARK    5  A    between atoms: C_27  and  C_28
REMARK                            x       y       z     vdW  Elec       q    Type
REMARK                         _______ _______ _______ _____ _____    ______ ____
ROOT
ATOM      1  C   UNL     1     -12.384   6.536 129.712  0.00  0.00    +0.000 C 
ATOM      2  C   UNL     1     -11.887   6.795 131.128  0.00  0.00    +0.000 C 
ATOM      3  N   UNL     1     -10.536   6.222 131.348  0.00  0.00    +0.000 N 
ATOM      4  C   UNL     1     -10.073   6.024 132.644  0.00  0.00    +0.000 A 
ATOM      5  C   UNL     1      -8.842   5.606 132.990  0.00  0.00    +0.000 A 
ATOM      6  C   UNL     1      -7.898   5.379 131.851  0.00  0.00    +0.000 A 
ATOM      7  O   UNL     1      -6.727   5.020 131.980  0.00  0.00    +0.000 OA
ATOM      8  C   UNL     1      -8.374   5.608 130.452  0.00  0.00    +0.000 A 
ATOM      9  C   UNL     1      -9.650   6.001 130.266  0.00  0.00    +0.000 A 
ATOM     10  C   UNL     1     -10.101   6.293 128.847  0.00  0.00    +0.000 C 
ATOM     11  O   UNL     1      -9.383   6.177 127.854  0.00  0.00    +0.000 OA
ATOM     12  N   UNL     1     -11.364   6.813 128.757  0.00  0.00    +0.000 N 
ATOM     13  C   UNL     1     -11.759   7.801 127.802  0.00  0.00    +0.000 C 
ATOM     14  C   UNL     1     -11.794   7.263 126.388  0.00  0.00    +0.000 C 
ATOM     15  C   UNL     1     -13.143   8.212 128.273  0.00  0.00    +0.000 C 
ATOM     16  O   UNL     1     -13.496   7.379 129.391  0.00  0.00    +0.000 OA
ENDROOT
BRANCH   5  17
ATOM     17  C   UNL     1      -8.410   5.374 134.405  0.00  0.00    +0.000 C 
ATOM     18  O   UNL     1      -8.214   4.242 134.841  0.00  0.00    +0.000 OA
ATOM     19  N   UNL     1      -8.240   6.472 135.219  0.00  0.00    +0.000 N 
ATOM     20  H   UNL     1      -8.433   7.411 134.913  0.00  0.00    +0.000 HD
BRANCH  19  21
ATOM     21  C   UNL     1      -7.865   6.287 136.609  0.00  0.00    +0.000 C 
BRANCH  21  22
ATOM     22  C   UNL     1      -8.202   7.504 137.422  0.00  0.00    +0.000 A 
ATOM     23  C   UNL     1      -7.485   7.804 138.586  0.00  0.00    +0.000 A 
ATOM     24  F   UNL     1      -6.473   7.013 138.967  0.00  0.00    +0.000 F 
ATOM     25  C   UNL     1      -7.814   8.898 139.376  0.00  0.00    +0.000 A 
ATOM     26  C   UNL     1      -8.972   9.602 139.085  0.00  0.00    +0.000 A 
ATOM     27  F   UNL     1      -9.343  10.620 139.872  0.00  0.00    +0.000 F 
ATOM     28  C   UNL     1      -9.751   9.275 137.981  0.00  0.00    +0.000 A 
ATOM     29  C   UNL     1      -9.301   8.306 137.086  0.00  0.00    +0.000 A 
ENDBRANCH  21  22
ENDBRANCH  19  21
ENDBRANCH   5  17
BRANCH   8  30
ATOM     30  O   UNL     1      -7.443   5.416 129.445  0.00  0.00    +0.000 OA
ATOM     31  H   UNL     1      -7.901   4.909 128.743  0.00  0.00    +0.000 HD
ENDBRANCH   8  30
TORSDOF 4
ENDMDL
MODEL 3
REMARK VINA RESULT:      -8.5      4.931      5.814
REMARK  Name = Cabotegravir
REMARK  5 active torsions:
REMARK  status: ('A' for Active; 'I' for Inactive)
REMARK    1  A    between atoms: C_6  and  C_7
REMARK    2  A    between atoms: N_9  and  C_10
REMARK    3  A    between atoms: C_10  and  C_11
REMARK    4  A    between atoms: C_21  and  O_22
REMARK    5  A    between atoms: C_27  and  C_28
REMARK                            x       y       z     vdW  Elec       q    Type
REMARK                         _______ _______ _______ _____ _____    ______ ____
ROOT
ATOM      1  C   UNL     1      -6.564  -1.325 123.996  0.00  0.00    +0.000 C 
ATOM      2  C   UNL     1      -5.898  -0.310 124.917  0.00  0.00    +0.000 C 
ATOM      3  N   UNL     1      -6.630   0.981 124.930  0.00  0.00    +0.000 N 
ATOM      4  C   UNL     1      -5.997   2.128 125.397  0.00  0.00    +0.000 A 
ATOM      5  C   UNL     1      -6.564   3.337 125.554  0.00  0.00    +0.000 A 
ATOM      6  C   UNL     1      -8.022   3.411 125.220  0.00  0.00    +0.000 A 
ATOM      7  O   UNL     1      -8.709   4.427 125.327  0.00  0.00    +0.000 OA
ATOM      8  C   UNL     1      -8.722   2.181 124.737  0.00  0.00    +0.000 A 
ATOM      9  C   UNL     1      -8.006   1.046 124.605  0.00  0.00    +0.000 A 
ATOM     10  C   UNL     1      -8.742  -0.210 124.176  0.00  0.00    +0.000 C 
ATOM     11  O   UNL     1      -9.946  -0.255 123.924  0.00  0.00    +0.000 OA
ATOM     12  N   UNL     1      -7.975  -1.342 124.195  0.00  0.00    +0.000 N 
ATOM     13  C   UNL     1      -8.460  -2.635 124.565  0.00  0.00    +0.000 C 
ATOM     14  C   UNL     1      -9.423  -3.209 123.548  0.00  0.00    +0.000 C 
ATOM     15  C   UNL     1      -7.197  -3.471 124.666  0.00  0.00    +0.000 C 
ATOM     16  O   UNL     1      -6.089  -2.650 124.256  0.00  0.00    +0.000 OA
ENDROOT
BRANCH   5  17
ATOM     17  C   UNL     1      -5.822   4.549 126.027  0.00  0.00    +0.000 C 
ATOM     18  O   UNL     1      -6.022   5.658 125.539  0.00  0.00    +0.000 OA
ATOM     19  N   UNL     1      -4.892   4.389 127.030  0.00  0.00    +0.000 N 
ATOM     20  H   UNL     1      -4.667   3.490 127.425  0.00  0.00    +0.000 HD
BRANCH  19  21
ATOM     21  C   UNL     1      -4.120   5.530 127.487  0.00  0.00    +0.000 C 
BRANCH  21  22
ATOM     22  C   UNL     1      -3.631   5.320 128.891  0.00  0.00    +0.000 A 
ATOM     23  C   UNL     1      -2.512   6.013 129.366  0.00  0.00    +0.000 A 
ATOM     24  F   UNL     1      -1.883   6.888 128.571  0.00  0.00    +0.000 F 
ATOM     25  C   UNL     1      -2.017   5.796 130.646  0.00  0.00    +0.000 A 
ATOM     26  C   UNL     1      -2.550   4.760 131.396  0.00  0.00    +0.000 A 
ATOM     27  F   UNL     1      -2.045   4.491 132.607  0.00  0.00    +0.000 F 
ATOM     28  C   UNL     1      -3.611   3.999 130.917  0.00  0.00    +0.000 A 
ATOM     29  C   UNL     1      -4.226   4.358 129.718  0.00  0.00    +0.000 A 
ENDBRANCH  21  22
ENDBRANCH  19  21
ENDBRANCH   5  17
BRANCH   8  30
ATOM     30  O   UNL     1     -10.076   2.304 124.480  0.00  0.00    +0.000 OA
ATOM     31  H   UNL     1     -10.196   3.178 124.053  0.00  0.00    +0.000 HD
ENDBRANCH   8  30
TORSDOF 4
ENDMDL
MODEL 4
REMARK VINA RESULT:      -8.3      4.443      9.370
REMARK  Name = Cabotegravir
REMARK  5 active torsions:
REMARK  status: ('A' for Active; 'I' for Inactive)
REMARK    1  A    between atoms: C_6  and  C_7
REMARK    2  A    between atoms: N_9  and  C_10
REMARK    3  A    between atoms: C_10  and  C_11
REMARK    4  A    between atoms: C_21  and  O_22
REMARK    5  A    between atoms: C_27  and  C_28
REMARK                            x       y       z     vdW  Elec       q    Type
REMARK                         _______ _______ _______ _____ _____    ______ ____
ROOT
ATOM      1  C   UNL     1     -10.465   7.800 128.892  0.00  0.00    +0.000 C 
ATOM      2  C   UNL     1      -9.878   6.501 128.355  0.00  0.00    +0.000 C 
ATOM      3  N   UNL     1      -9.407   5.619 129.451  0.00  0.00    +0.000 N 
ATOM      4  C   UNL     1      -8.521   4.583 129.171  0.00  0.00    +0.000 A 
ATOM      5  C   UNL     1      -8.088   3.654 130.041  0.00  0.00    +0.000 A 
ATOM      6  C   UNL     1      -8.661   3.751 131.421  0.00  0.00    +0.000 A 
ATOM      7  O   UNL     1      -8.398   2.973 132.339  0.00  0.00    +0.000 OA
ATOM      8  C   UNL     1      -9.631   4.846 131.733  0.00  0.00    +0.000 A 
ATOM      9  C   UNL     1      -9.946   5.720 130.756  0.00  0.00    +0.000 A 
ATOM     10  C   UNL     1     -10.980   6.787 131.066  0.00  0.00    +0.000 C 
ATOM     11  O   UNL     1     -11.536   6.916 132.157  0.00  0.00    +0.000 OA
ATOM     12  N   UNL     1     -11.340   7.547 129.988  0.00  0.00    +0.000 N 
ATOM     13  C   UNL     1     -12.663   8.040 129.759  0.00  0.00    +0.000 C 
ATOM     14  C   UNL     1     -13.065   9.112 130.749  0.00  0.00    +0.000 C 
ATOM     15  C   UNL     1     -12.595   8.589 128.345  0.00  0.00    +0.000 C 
ATOM     16  O   UNL     1     -11.235   8.473 127.891  0.00  0.00    +0.000 OA
ENDROOT
BRANCH   5  17
ATOM     17  C   UNL     1      -7.103   2.582 129.692  0.00  0.00    +0.000 C 
ATOM     18  O   UNL     1      -6.026   2.844 129.162  0.00  0.00    +0.000 OA
ATOM     19  N   UNL     1      -7.438   1.277 129.977  0.00  0.00    +0.000 N 
ATOM     20  H   UNL     1      -8.328   1.017 130.369  0.00  0.00    +0.000 HD
BRANCH  19  21
ATOM     21  C   UNL     1      -6.530   0.204 129.614  0.00  0.00    +0.000 C 
BRANCH  21  22
ATOM     22  C   UNL     1      -7.288  -1.010 129.160  0.00  0.00    +0.000 A 
ATOM     23  C   UNL     1      -7.570  -2.049 130.054  0.00  0.00    +0.000 A 
ATOM     24  F   UNL     1      -7.180  -1.953 131.332  0.00  0.00    +0.000 F 
ATOM     25  C   UNL     1      -8.228  -3.200 129.640  0.00  0.00    +0.000 A 
ATOM     26  C   UNL     1      -8.461  -3.381 128.285  0.00  0.00    +0.000 A 
ATOM     27  F   UNL     1      -9.035  -4.512 127.857  0.00  0.00    +0.000 F 
ATOM     28  C   UNL     1      -8.117  -2.399 127.363  0.00  0.00    +0.000 A 
ATOM     29  C   UNL     1      -7.643  -1.169 127.814  0.00  0.00    +0.000 A 
ENDBRANCH  21  22
ENDBRANCH  19  21
ENDBRANCH   5  17
BRANCH   8  30
ATOM     30  O   UNL     1     -10.153   4.860 133.015  0.00  0.00    +0.000 OA
ATOM     31  H   UNL     1     -10.060   3.947 133.358  0.00  0.00    +0.000 HD
ENDBRANCH   8  30
TORSDOF 4
ENDMDL
MODEL 5
REMARK VINA RESULT:      -8.2      2.133      2.554
REMARK  Name = Cabotegravir
REMARK  5 active torsions:
REMARK  status: ('A' for Active; 'I' for Inactive)
REMARK    1  A    between atoms: C_6  and  C_7
REMARK    2  A    between atoms: N_9  and  C_10
REMARK    3  A    between atoms: C_10  and  C_11
REMARK    4  A    between atoms: C_21  and  O_22
REMARK    5  A    between atoms: C_27  and  C_28
REMARK                            x       y       z     vdW  Elec       q    Type
REMARK                         _______ _______ _______ _____ _____    ______ ____
ROOT
ATOM      1  C   UNL     1      -8.644  -0.833 125.440  0.00  0.00    +0.000 C 
ATOM      2  C   UNL     1      -9.186   0.458 126.040  0.00  0.00    +0.000 C 
ATOM      3  N   UNL     1      -8.228   1.062 126.998  0.00  0.00    +0.000 N 
ATOM      4  C   UNL     1      -8.671   2.012 127.912  0.00  0.00    +0.000 A 
ATOM      5  C   UNL     1      -7.902   2.708 128.767  0.00  0.00    +0.000 A 
ATOM      6  C   UNL     1      -6.433   2.436 128.676  0.00  0.00    +0.000 A 
ATOM      7  O   UNL     1      -5.578   2.996 129.363  0.00  0.00    +0.000 OA
ATOM      8  C   UNL     1      -5.937   1.432 127.684  0.00  0.00    +0.000 A 
ATOM      9  C   UNL     1      -6.840   0.795 126.912  0.00  0.00    +0.000 A 
ATOM     10  C   UNL     1      -6.320  -0.173 125.865  0.00  0.00    +0.000 C 
ATOM     11  O   UNL     1      -5.128  -0.426 125.688  0.00  0.00    +0.000 OA
ATOM     12  N   UNL     1      -7.286  -0.675 125.038  0.00  0.00    +0.000 N 
ATOM     13  C   UNL     1      -7.090  -0.950 123.648  0.00  0.00    +0.000 C 
ATOM     14  C   UNL     1      -6.165  -2.124 123.411  0.00  0.00    +0.000 C 
ATOM     15  C   UNL     1      -8.493  -1.238 123.145  0.00  0.00    +0.000 C 
ATOM     16  O   UNL     1      -9.383  -1.213 124.275  0.00  0.00    +0.000 OA
ENDROOT
BRANCH   5  17
ATOM     17  C   UNL     1      -8.441   3.694 129.757  0.00  0.00    +0.000 C 
ATOM     18  O   UNL     1      -8.720   3.365 130.908  0.00  0.00    +0.000 OA
ATOM     19  N   UNL     1      -8.625   4.994 129.342  0.00  0.00    +0.000 N 
ATOM     20  H   UNL     1      -8.451   5.293 128.396  0.00  0.00    +0.000 HD
BRANCH  19  21
ATOM     21  C   UNL     1      -9.186   5.971 130.257  0.00  0.00    +0.000 C 
BRANCH  21  22
ATOM     22  C   UNL     1     -10.396   6.631 129.662  0.00  0.00    +0.000 A 
ATOM     23  C   UNL     1     -11.622   5.957 129.609  0.00  0.00    +0.000 A 
ATOM     24  F   UNL     1     -11.724   4.720 130.114  0.00  0.00    +0.000 F 
ATOM     25  C   UNL     1     -12.739   6.533 129.019  0.00  0.00    +0.000 A 
ATOM     26  C   UNL     1     -12.585   7.728 128.333  0.00  0.00    +0.000 A 
ATOM     27  F   UNL     1     -13.634   8.268 127.701  0.00  0.00    +0.000 F 
ATOM     28  C   UNL     1     -11.359   8.381 128.298  0.00  0.00    +0.000 A 
ATOM     29  C   UNL     1     -10.299   7.893 129.062  0.00  0.00    +0.000 A 
ENDBRANCH  21  22
ENDBRANCH  19  21
ENDBRANCH   5  17
BRANCH   8  30
ATOM     30  O   UNL     1      -4.566   1.252 127.622  0.00  0.00    +0.000 OA
ATOM     31  H   UNL     1      -4.208   1.579 128.474  0.00  0.00    +0.000 HD
ENDBRANCH   8  30
TORSDOF 4
ENDMDL
MODEL 6
REMARK VINA RESULT:      -8.1      3.829      4.716
REMARK  Name = Cabotegravir
REMARK  5 active torsions:
REMARK  status: ('A' for Active; 'I' for Inactive)
REMARK    1  A    between atoms: C_6  and  C_7
REMARK    2  A    between atoms: N_9  and  C_10
REMARK    3  A    between atoms: C_10  and  C_11
REMARK    4  A    between atoms: C_21  and  O_22
REMARK    5  A    between atoms: C_27  and  C_28
REMARK                            x       y       z     vdW  Elec       q    Type
REMARK                         _______ _______ _______ _____ _____    ______ ____
ROOT
ATOM      1  C   UNL     1      -6.147  -1.243 132.183  0.00  0.00    +0.000 C 
ATOM      2  C   UNL     1      -6.951  -0.101 132.791  0.00  0.00    +0.000 C 
ATOM      3  N   UNL     1      -7.437   0.840 131.752  0.00  0.00    +0.000 N 
ATOM      4  C   UNL     1      -7.856   2.115 132.118  0.00  0.00    +0.000 A 
ATOM      5  C   UNL     1      -8.406   3.032 131.303  0.00  0.00    +0.000 A 
ATOM      6  C   UNL     1      -8.605   2.594 129.885  0.00  0.00    +0.000 A 
ATOM      7  O   UNL     1      -9.115   3.291 129.007  0.00  0.00    +0.000 OA
ATOM      8  C   UNL     1      -8.179   1.219 129.480  0.00  0.00    +0.000 A 
ATOM      9  C   UNL     1      -7.615   0.423 130.411  0.00  0.00    +0.000 A 
ATOM     10  C   UNL     1      -7.248  -0.992 130.005  0.00  0.00    +0.000 C 
ATOM     11  O   UNL     1      -7.415  -1.454 128.875  0.00  0.00    +0.000 OA
ATOM     12  N   UNL     1      -6.806  -1.774 131.036  0.00  0.00    +0.000 N 
ATOM     13  C   UNL     1      -7.086  -3.171 131.162  0.00  0.00    +0.000 C 
ATOM     14  C   UNL     1      -6.372  -4.004 130.120  0.00  0.00    +0.000 C 
ATOM     15  C   UNL     1      -6.604  -3.502 132.563  0.00  0.00    +0.000 C 
ATOM     16  O   UNL     1      -5.994  -2.321 133.112  0.00  0.00    +0.000 OA
ENDROOT
BRANCH   5  17
ATOM     17  C   UNL     1      -8.804   4.407 131.745  0.00  0.00    +0.000 C 
ATOM     18  O   UNL     1      -7.978   5.215 132.160  0.00  0.00    +0.000 OA
ATOM     19  N   UNL     1     -10.138   4.746 131.681  0.00  0.00    +0.000 N 
ATOM     20  H   UNL     1     -10.851   4.098 131.390  0.00  0.00    +0.000 HD
BRANCH  19  21
ATOM     21  C   UNL     1     -10.572   6.052 132.142  0.00  0.00    +0.000 C 
BRANCH  21  22
ATOM     22  C   UNL     1     -11.195   6.836 131.023  0.00  0.00    +0.000 A 
ATOM     23  C   UNL     1     -10.397   7.423 130.034  0.00  0.00    +0.000 A 
ATOM     24  F   UNL     1      -9.067   7.267 130.072  0.00  0.00    +0.000 F 
ATOM     25  C   UNL     1     -10.952   8.191 129.019  0.00  0.00    +0.000 A 
ATOM     26  C   UNL     1     -12.300   8.507 129.087  0.00  0.00    +0.000 A 
ATOM     27  F   UNL     1     -12.842   9.300 128.155  0.00  0.00    +0.000 F 
ATOM     28  C   UNL     1     -13.103   8.005 130.105  0.00  0.00    +0.000 A 
ATOM     29  C   UNL     1     -12.576   7.075 131.000  0.00  0.00    +0.000 A 
ENDBRANCH  21  22
ENDBRANCH  19  21
ENDBRANCH   5  17
BRANCH   8  30
ATOM     30  O   UNL     1      -8.422   0.860 128.166  0.00  0.00    +0.000 OA
ATOM     31  H   UNL     1      -7.925   0.030 128.012  0.00  0.00    +0.000 HD
ENDBRANCH   8  30
TORSDOF 4
ENDMDL
MODEL 7
REMARK VINA RESULT:      -8.0      5.914      8.094
REMARK  Name = Cabotegravir
REMARK  5 active torsions:
REMARK  status: ('A' for Active; 'I' for Inactive)
REMARK    1  A    between atoms: C_6  and  C_7
REMARK    2  A    between atoms: N_9  and  C_10
REMARK    3  A    between atoms: C_10  and  C_11
REMARK    4  A    between atoms: C_21  and  O_22
REMARK    5  A    between atoms: C_27  and  C_28
REMARK                            x       y       z     vdW  Elec       q    Type
REMARK                         _______ _______ _______ _____ _____    ______ ____
ROOT
ATOM      1  C   UNL     1      -6.237   4.160 123.157  0.00  0.00    +0.000 C 
ATOM      2  C   UNL     1      -5.912   3.189 124.285  0.00  0.00    +0.000 C 
ATOM      3  N   UNL     1      -7.115   2.445 124.731  0.00  0.00    +0.000 N 
ATOM      4  C   UNL     1      -7.113   1.805 125.966  0.00  0.00    +0.000 A 
ATOM      5  C   UNL     1      -8.090   1.020 126.453  0.00  0.00    +0.000 A 
ATOM      6  C   UNL     1      -9.258   0.808 125.540  0.00  0.00    +0.000 A 
ATOM      7  O   UNL     1     -10.230   0.102 125.809  0.00  0.00    +0.000 OA
ATOM      8  C   UNL     1      -9.266   1.471 124.200  0.00  0.00    +0.000 A 
ATOM      9  C   UNL     1      -8.220   2.254 123.867  0.00  0.00    +0.000 A 
ATOM     10  C   UNL     1      -8.210   2.869 122.480  0.00  0.00    +0.000 C 
ATOM     11  O   UNL     1      -9.103   2.714 121.647  0.00  0.00    +0.000 OA
ATOM     12  N   UNL     1      -7.057   3.537 122.172  0.00  0.00    +0.000 N 
ATOM     13  C   UNL     1      -6.463   3.557 120.871  0.00  0.00    +0.000 C 
ATOM     14  C   UNL     1      -7.279   4.344 119.870  0.00  0.00    +0.000 C 
ATOM     15  C   UNL     1      -5.109   4.201 121.112  0.00  0.00    +0.000 C 
ATOM     16  O   UNL     1      -5.047   4.598 122.493  0.00  0.00    +0.000 OA
ENDROOT
BRANCH   5  17
ATOM     17  C   UNL     1      -8.050   0.386 127.809  0.00  0.00    +0.000 C 
ATOM     18  O   UNL     1      -8.112   1.056 128.837  0.00  0.00    +0.000 OA
ATOM     19  N   UNL     1      -7.932  -0.985 127.880  0.00  0.00    +0.000 N 
ATOM     20  H   UNL     1      -7.833  -1.565 127.063  0.00  0.00    +0.000 HD
BRANCH  19  21
ATOM     21  C   UNL     1      -7.845  -1.635 129.174  0.00  0.00    +0.000 C 
BRANCH  21  22
ATOM     22  C   UNL     1      -6.579  -2.434 129.289  0.00  0.00    +0.000 A 
ATOM     23  C   UNL     1      -6.405  -3.346 130.337  0.00  0.00    +0.000 A 
ATOM     24  F   UNL     1      -7.384  -3.525 131.233  0.00  0.00    +0.000 F 
ATOM     25  C   UNL     1      -5.222  -4.058 130.486  0.00  0.00    +0.000 A 
ATOM     26  C   UNL     1      -4.146  -3.735 129.674  0.00  0.00    +0.000 A 
ATOM     27  F   UNL     1      -2.976  -4.363 129.844  0.00  0.00    +0.000 F 
ATOM     28  C   UNL     1      -4.264  -2.773 128.677  0.00  0.00    +0.000 A 
ATOM     29  C   UNL     1      -5.512  -2.213 128.409  0.00  0.00    +0.000 A 
ENDBRANCH  21  22
ENDBRANCH  19  21
ENDBRANCH   5  17
BRANCH   8  30
ATOM     30  O   UNL     1     -10.355   1.207 123.388  0.00  0.00    +0.000 OA
ATOM     31  H   UNL     1     -10.239   0.289 123.065  0.00  0.00    +0.000 HD
ENDBRANCH   8  30
TORSDOF 4
ENDMDL
MODEL 8
REMARK VINA RESULT:      -7.9      1.732      2.224
REMARK  Name = Cabotegravir
REMARK  5 active torsions:
REMARK  status: ('A' for Active; 'I' for Inactive)
REMARK    1  A    between atoms: C_6  and  C_7
REMARK    2  A    between atoms: N_9  and  C_10
REMARK    3  A    between atoms: C_10  and  C_11
REMARK    4  A    between atoms: C_21  and  O_22
REMARK    5  A    between atoms: C_27  and  C_28
REMARK                            x       y       z     vdW  Elec       q    Type
REMARK                         _______ _______ _______ _____ _____    ______ ____
ROOT
ATOM      1  C   UNL     1      -7.280  -1.683 125.709  0.00  0.00    +0.000 C 
ATOM      2  C   UNL     1      -7.510  -0.726 126.872  0.00  0.00    +0.000 C 
ATOM      3  N   UNL     1      -7.736   0.663 126.402  0.00  0.00    +0.000 N 
ATOM      4  C   UNL     1      -7.593   1.724 127.290  0.00  0.00    +0.000 A 
ATOM      5  C   UNL     1      -7.858   3.016 127.029  0.00  0.00    +0.000 A 
ATOM      6  C   UNL     1      -8.387   3.299 125.657  0.00  0.00    +0.000 A 
ATOM      7  O   UNL     1      -8.705   4.417 125.252  0.00  0.00    +0.000 OA
ATOM      8  C   UNL     1      -8.566   2.166 124.697  0.00  0.00    +0.000 A 
ATOM      9  C   UNL     1      -8.228   0.925 125.100  0.00  0.00    +0.000 A 
ATOM     10  C   UNL     1      -8.476  -0.224 124.140  0.00  0.00    +0.000 C 
ATOM     11  O   UNL     1      -8.947  -0.093 123.011  0.00  0.00    +0.000 OA
ATOM     12  N   UNL     1      -8.232  -1.460 124.673  0.00  0.00    +0.000 N 
ATOM     13  C   UNL     1      -8.998  -2.629 124.370  0.00  0.00    +0.000 C 
ATOM     14  C   UNL     1      -8.790  -3.112 122.951  0.00  0.00    +0.000 C 
ATOM     15  C   UNL     1      -8.501  -3.647 125.381  0.00  0.00    +0.000 C 
ATOM     16  O   UNL     1      -7.426  -3.045 126.123  0.00  0.00    +0.000 OA
ENDROOT
BRANCH   5  17
ATOM     17  C   UNL     1      -7.650   4.124 128.015  0.00  0.00    +0.000 C 
ATOM     18  O   UNL     1      -6.690   4.887 127.934  0.00  0.00    +0.000 OA
ATOM     19  N   UNL     1      -8.567   4.265 129.033  0.00  0.00    +0.000 N 
ATOM     20  H   UNL     1      -9.340   3.634 129.160  0.00  0.00    +0.000 HD
BRANCH  19  21
ATOM     21  C   UNL     1      -8.378   5.298 130.035  0.00  0.00    +0.000 C 
BRANCH  21  22
ATOM     22  C   UNL     1      -9.697   5.853 130.489  0.00  0.00    +0.000 A 
ATOM     23  C   UNL     1     -10.488   6.612 129.619  0.00  0.00    +0.000 A 
ATOM     24  F   UNL     1     -10.076   6.828 128.362  0.00  0.00    +0.000 F 
ATOM     25  C   UNL     1     -11.688   7.174 130.036  0.00  0.00    +0.000 A 
ATOM     26  C   UNL     1     -12.018   7.109 131.380  0.00  0.00    +0.000 A 
ATOM     27  F   UNL     1     -13.138   7.700 131.816  0.00  0.00    +0.000 F 
ATOM     28  C   UNL     1     -11.210   6.431 132.285  0.00  0.00    +0.000 A 
ATOM     29  C   UNL     1     -10.116   5.704 131.818  0.00  0.00    +0.000 A 
ENDBRANCH  21  22
ENDBRANCH  19  21
ENDBRANCH   5  17
BRANCH   8  30
ATOM     30  O   UNL     1      -9.093   2.486 123.458  0.00  0.00    +0.000 OA
ATOM     31  H   UNL     1      -8.489   3.152 123.067  0.00  0.00    +0.000 HD
ENDBRANCH   8  30
TORSDOF 4
ENDMDL
MODEL 9
REMARK VINA RESULT:      -7.8      2.023      3.321
REMARK  Name = Cabotegravir
REMARK  5 active torsions:
REMARK  status: ('A' for Active; 'I' for Inactive)
REMARK    1  A    between atoms: C_6  and  C_7
REMARK    2  A    between atoms: N_9  and  C_10
REMARK    3  A    between atoms: C_10  and  C_11
REMARK    4  A    between atoms: C_21  and  O_22
REMARK    5  A    between atoms: C_27  and  C_28
REMARK                            x       y       z     vdW  Elec       q    Type
REMARK                         _______ _______ _______ _____ _____    ______ ____
ROOT
ATOM      1  C   UNL     1      -8.347  -0.284 124.886  0.00  0.00    +0.000 C 
ATOM      2  C   UNL     1      -8.194   1.077 125.554  0.00  0.00    +0.000 C 
ATOM      3  N   UNL     1      -8.175   0.962 127.033  0.00  0.00    +0.000 N 
ATOM      4  C   UNL     1      -8.417   2.086 127.816  0.00  0.00    +0.000 A 
ATOM      5  C   UNL     1      -8.337   2.150 129.156  0.00  0.00    +0.000 A 
ATOM      6  C   UNL     1      -7.910   0.885 129.835  0.00  0.00    +0.000 A 
ATOM      7  O   UNL     1      -7.760   0.765 131.051  0.00  0.00    +0.000 OA
ATOM      8  C   UNL     1      -7.626  -0.327 129.006  0.00  0.00    +0.000 A 
ATOM      9  C   UNL     1      -7.779  -0.239 127.669  0.00  0.00    +0.000 A 
ATOM     10  C   UNL     1      -7.425  -1.456 126.834  0.00  0.00    +0.000 C 
ATOM     11  O   UNL     1      -7.025  -2.523 127.300  0.00  0.00    +0.000 OA
ATOM     12  N   UNL     1      -7.480  -1.243 125.484  0.00  0.00    +0.000 N 
ATOM     13  C   UNL     1      -6.580  -1.833 124.542  0.00  0.00    +0.000 C 
ATOM     14  C   UNL     1      -6.786  -3.325 124.395  0.00  0.00    +0.000 C 
ATOM     15  C   UNL     1      -6.894  -1.100 123.249  0.00  0.00    +0.000 C 
ATOM     16  O   UNL     1      -8.005  -0.221 123.498  0.00  0.00    +0.000 OA
ENDROOT
BRANCH   5  17
ATOM     17  C   UNL     1      -8.645   3.381 129.951  0.00  0.00    +0.000 C 
ATOM     18  O   UNL     1      -7.755   4.105 130.389  0.00  0.00    +0.000 OA
ATOM     19  N   UNL     1      -9.968   3.684 130.188  0.00  0.00    +0.000 N 
ATOM     20  H   UNL     1     -10.724   3.093 129.884  0.00  0.00    +0.000 HD
BRANCH  19  21
ATOM     21  C   UNL     1     -10.309   4.844 130.991  0.00  0.00    +0.000 C 
BRANCH  21  22
ATOM     22  C   UNL     1     -10.866   5.945 130.135  0.00  0.00    +0.000 A 
ATOM     23  C   UNL     1     -10.098   7.078 129.843  0.00  0.00    +0.000 A 
ATOM     24  F   UNL     1      -8.847   7.173 130.312  0.00  0.00    +0.000 F 
ATOM     25  C   UNL     1     -10.613   8.127 129.093  0.00  0.00    +0.000 A 
ATOM     26  C   UNL     1     -11.962   8.112 128.771  0.00  0.00    +0.000 A 
ATOM     27  F   UNL     1     -12.494   9.144 128.104  0.00  0.00    +0.000 F 
ATOM     28  C   UNL     1     -12.770   7.036 129.119  0.00  0.00    +0.000 A 
ATOM     29  C   UNL     1     -12.195   5.903 129.693  0.00  0.00    +0.000 A 
ENDBRANCH  21  22
ENDBRANCH  19  21
ENDBRANCH   5  17
BRANCH   8  30
ATOM     30  O   UNL     1      -7.201  -1.454 129.688  0.00  0.00    +0.000 OA
ATOM     31  H   UNL     1      -7.963  -2.070 129.700  0.00  0.00    +0.000 HD
ENDBRANCH   8  30
TORSDOF 4
ENDMDL
