MODEL 1
REMARK VINA RESULT:      -5.6      0.000      0.000
REMARK  Name = Caffeine
REMARK  3 active torsions:
REMARK  status: ('A' for Active; 'I' for Inactive)
REMARK    1  A    between atoms: C_1  and  N_2
REMARK    2  A    between atoms: N_9  and  C_10
REMARK    3  A    between atoms: N_13  and  C_14
REMARK                            x       y       z     vdW  Elec       q    Type
REMARK                         _______ _______ _______ _____ _____    ______ ____
ROOT
ATOM      1  C   UNL     1      -7.861   5.018 130.369  0.00  0.00    +0.000 C 
ATOM      2  N   UNL     1      -9.075   5.631 130.845  0.00  0.00    +0.000 N 
ATOM      3  C   UNL     1      -9.477   5.736 132.151  0.00  0.00    +0.000 A 
ATOM      4  N   UNL     1     -10.620   6.387 132.258  0.00  0.00    +0.000 NA
ATOM      5  C   UNL     1     -10.955   6.702 130.976  0.00  0.00    +0.000 A 
ATOM      6  C   UNL     1     -10.030   6.246 130.086  0.00  0.00    +0.000 A 
ATOM      7  C   UNL     1     -10.136   6.440 128.683  0.00  0.00    +0.000 A 
ATOM      8  O   UNL     1      -9.295   6.025 127.891  0.00  0.00    +0.000 OA
ATOM      9  N   UNL     1     -11.286   7.143 128.321  0.00  0.00    +0.000 N 
ATOM     10  C   UNL     1     -11.502   7.414 126.913  0.00  0.00    +0.000 C 
ATOM     11  C   UNL     1     -12.273   7.622 129.207  0.00  0.00    +0.000 A 
ATOM     12  O   UNL     1     -13.268   8.218 128.784  0.00  0.00    +0.000 OA
ATOM     13  N   UNL     1     -12.072   7.392 130.569  0.00  0.00    +0.000 N 
ATOM     14  C   UNL     1     -13.041   7.868 131.540  0.00  0.00    +0.000 C 
ENDROOT
TORSDOF 0
ENDMDL
MODEL 2
REMARK VINA RESULT:      -5.5      1.568      3.032
REMARK  Name = Caffeine
REMARK  3 active torsions:
REMARK  status: ('A' for Active; 'I' for Inactive)
REMARK    1  A    between atoms: C_1  and  N_2
REMARK    2  A    between atoms: N_9  and  C_10
REMARK    3  A    between atoms: N_13  and  C_14
REMARK                            x       y       z     vdW  Elec       q    Type
REMARK                         _______ _______ _______ _____ _____    ______ ____
ROOT
ATOM      1  C   UNL     1      -8.962   4.282 131.666  0.00  0.00    +0.000 C 
ATOM      2  N   UNL     1      -9.240   5.010 130.454  0.00  0.00    +0.000 N 
ATOM      3  C   UNL     1      -8.607   4.858 129.249  0.00  0.00    +0.000 A 
ATOM      4  N   UNL     1      -9.121   5.648 128.325  0.00  0.00    +0.000 NA
ATOM      5  C   UNL     1     -10.110   6.327 128.969  0.00  0.00    +0.000 A 
ATOM      6  C   UNL     1     -10.204   5.962 130.279  0.00  0.00    +0.000 A 
ATOM      7  C   UNL     1     -11.153   6.517 131.177  0.00  0.00    +0.000 A 
ATOM      8  O   UNL     1     -11.228   6.180 132.355  0.00  0.00    +0.000 OA
ATOM      9  N   UNL     1     -11.974   7.472 130.573  0.00  0.00    +0.000 N 
ATOM     10  C   UNL     1     -12.994   8.104 131.386  0.00  0.00    +0.000 C 
ATOM     11  C   UNL     1     -11.904   7.886 129.227  0.00  0.00    +0.000 A 
ATOM     12  O   UNL     1     -12.664   8.756 128.792  0.00  0.00    +0.000 OA
ATOM     13  N   UNL     1     -10.944   7.273 128.421  0.00  0.00    +0.000 N 
ATOM     14  C   UNL     1     -10.824   7.641 127.021  0.00  0.00    +0.000 C 
ENDROOT
TORSDOF 0
ENDMDL
MODEL 3
REMARK VINA RESULT:      -5.4      1.641      3.676
REMARK  Name = Caffeine
REMARK  3 active torsions:
REMARK  status: ('A' for Active; 'I' for Inactive)
REMARK    1  A    between atoms: C_1  and  N_2
REMARK    2  A    between atoms: N_9  and  C_10
REMARK    3  A    between atoms: N_13  and  C_14
REMARK                            x       y       z     vdW  Elec       q    Type
REMARK                         _______ _______ _______ _____ _____    ______ ____
ROOT
ATOM      1  C   UNL     1     -11.100   7.586 126.157  0.00  0.00    +0.000 C 
ATOM      2  N   UNL     1     -11.679   7.770 127.464  0.00  0.00    +0.000 N 
ATOM      3  C   UNL     1     -12.799   8.500 127.762  0.00  0.00    +0.000 A 
ATOM      4  N   UNL     1     -13.092   8.439 129.048  0.00  0.00    +0.000 NA
ATOM      5  C   UNL     1     -12.121   7.647 129.581  0.00  0.00    +0.000 A 
ATOM      6  C   UNL     1     -11.236   7.226 128.635  0.00  0.00    +0.000 A 
ATOM      7  C   UNL     1     -10.126   6.387 128.924  0.00  0.00    +0.000 A 
ATOM      8  O   UNL     1      -9.336   6.013 128.063  0.00  0.00    +0.000 OA
ATOM      9  N   UNL     1     -10.045   6.046 130.275  0.00  0.00    +0.000 N 
ATOM     10  C   UNL     1      -8.958   5.182 130.694  0.00  0.00    +0.000 C 
ATOM     11  C   UNL     1     -10.931   6.468 131.287  0.00  0.00    +0.000 A 
ATOM     12  O   UNL     1     -10.760   6.127 132.461  0.00  0.00    +0.000 OA
ATOM     13  N   UNL     1     -11.997   7.282 130.901  0.00  0.00    +0.000 N 
ATOM     14  C   UNL     1     -12.957   7.744 131.888  0.00  0.00    +0.000 C 
ENDROOT
TORSDOF 0
ENDMDL
MODEL 4
REMARK VINA RESULT:      -5.2      8.806     10.620
REMARK  Name = Caffeine
REMARK  3 active torsions:
REMARK  status: ('A' for Active; 'I' for Inactive)
REMARK    1  A    between atoms: C_1  and  N_2
REMARK    2  A    between atoms: N_9  and  C_10
REMARK    3  A    between atoms: N_13  and  C_14
REMARK                            x       y       z     vdW  Elec       q    Type
REMARK                         _______ _______ _______ _____ _____    ______ ____
ROOT
ATOM      1  C   UNL     1      -8.619   2.806 123.074  0.00  0.00    +0.000 C 
ATOM      2  N   UNL     1      -8.983   1.411 123.060  0.00  0.00    +0.000 N 
ATOM      3  C   UNL     1     -10.073   0.861 122.438  0.00  0.00    +0.000 A 
ATOM      4  N   UNL     1     -10.104  -0.451 122.580  0.00  0.00    +0.000 NA
ATOM      5  C   UNL     1      -8.998  -0.740 123.322  0.00  0.00    +0.000 A 
ATOM      6  C   UNL     1      -8.293   0.383 123.636  0.00  0.00    +0.000 A 
ATOM      7  C   UNL     1      -7.097   0.364 124.402  0.00  0.00    +0.000 A 
ATOM      8  O   UNL     1      -6.470   1.382 124.678  0.00  0.00    +0.000 OA
ATOM      9  N   UNL     1      -6.727  -0.925 124.793  0.00  0.00    +0.000 N 
ATOM     10  C   UNL     1      -5.514  -1.077 125.571  0.00  0.00    +0.000 C 
ATOM     11  C   UNL     1      -7.432  -2.109 124.499  0.00  0.00    +0.000 A 
ATOM     12  O   UNL     1      -7.032  -3.203 124.909  0.00  0.00    +0.000 OA
ATOM     13  N   UNL     1      -8.591  -1.988 123.730  0.00  0.00    +0.000 N 
ATOM     14  C   UNL     1      -9.361  -3.168 123.378  0.00  0.00    +0.000 C 
ENDROOT
TORSDOF 0
ENDMDL
MODEL 5
REMARK VINA RESULT:      -5.0      2.047      4.915
REMARK  Name = Caffeine
REMARK  3 active torsions:
REMARK  status: ('A' for Active; 'I' for Inactive)
REMARK    1  A    between atoms: C_1  and  N_2
REMARK    2  A    between atoms: N_9  and  C_10
REMARK    3  A    between atoms: N_13  and  C_14
REMARK                            x       y       z     vdW  Elec       q    Type
REMARK                         _______ _______ _______ _____ _____    ______ ____
ROOT
ATOM      1  C   UNL     1     -12.089   8.258 129.936  0.00  0.00    +0.000 C 
ATOM      2  N   UNL     1     -11.112   7.344 129.401  0.00  0.00    +0.000 N 
ATOM      3  C   UNL     1     -10.728   7.238 128.089  0.00  0.00    +0.000 A 
ATOM      4  N   UNL     1      -9.783   6.331 127.930  0.00  0.00    +0.000 NA
ATOM      5  C   UNL     1      -9.566   5.842 129.183  0.00  0.00    +0.000 A 
ATOM      6  C   UNL     1     -10.370   6.440 130.106  0.00  0.00    +0.000 A 
ATOM      7  C   UNL     1     -10.345   6.116 131.489  0.00  0.00    +0.000 A 
ATOM      8  O   UNL     1     -11.074   6.663 132.311  0.00  0.00    +0.000 OA
ATOM      9  N   UNL     1      -9.412   5.124 131.794  0.00  0.00    +0.000 N 
ATOM     10  C   UNL     1      -9.284   4.714 133.178  0.00  0.00    +0.000 C 
ATOM     11  C   UNL     1      -8.570   4.472 130.870  0.00  0.00    +0.000 A 
ATOM     12  O   UNL     1      -7.789   3.589 131.238  0.00  0.00    +0.000 OA
ATOM     13  N   UNL     1      -8.660   4.869 129.535  0.00  0.00    +0.000 N 
ATOM     14  C   UNL     1      -7.813   4.250 128.530  0.00  0.00    +0.000 C 
ENDROOT
TORSDOF 0
ENDMDL
MODEL 6
REMARK VINA RESULT:      -4.9      1.793      4.196
REMARK  Name = Caffeine
REMARK  3 active torsions:
REMARK  status: ('A' for Active; 'I' for Inactive)
REMARK    1  A    between atoms: C_1  and  N_2
REMARK    2  A    between atoms: N_9  and  C_10
REMARK    3  A    between atoms: N_13  and  C_14
REMARK                            x       y       z     vdW  Elec       q    Type
REMARK                         _______ _______ _______ _____ _____    ______ ____
ROOT
ATOM      1  C   UNL     1     -12.969   8.018 131.791  0.00  0.00    +0.000 C 
ATOM      2  N   UNL     1     -12.594   8.095 130.402  0.00  0.00    +0.000 N 
ATOM      3  C   UNL     1     -13.122   8.940 129.461  0.00  0.00    +0.000 A 
ATOM      4  N   UNL     1     -12.536   8.790 128.288  0.00  0.00    +0.000 NA
ATOM      5  C   UNL     1     -11.608   7.814 128.493  0.00  0.00    +0.000 A 
ATOM      6  C   UNL     1     -11.624   7.363 129.778  0.00  0.00    +0.000 A 
ATOM      7  C   UNL     1     -10.756   6.346 130.259  0.00  0.00    +0.000 A 
ATOM      8  O   UNL     1     -10.779   5.949 131.419  0.00  0.00    +0.000 OA
ATOM      9  N   UNL     1      -9.892   5.864 129.273  0.00  0.00    +0.000 N 
ATOM     10  C   UNL     1      -8.948   4.829 129.645  0.00  0.00    +0.000 C 
ATOM     11  C   UNL     1      -9.851   6.293 127.932  0.00  0.00    +0.000 A 
ATOM     12  O   UNL     1      -9.061   5.788 127.129  0.00  0.00    +0.000 OA
ATOM     13  N   UNL     1     -10.736   7.306 127.559  0.00  0.00    +0.000 N 
ATOM     14  C   UNL     1     -10.740   7.808 126.196  0.00  0.00    +0.000 C 
ENDROOT
TORSDOF 0
ENDMDL
MODEL 7
REMARK VINA RESULT:      -4.9      8.847     10.525
REMARK  Name = Caffeine
REMARK  3 active torsions:
REMARK  status: ('A' for Active; 'I' for Inactive)
REMARK    1  A    between atoms: C_1  and  N_2
REMARK    2  A    between atoms: N_9  and  C_10
REMARK    3  A    between atoms: N_13  and  C_14
REMARK                            x       y       z     vdW  Elec       q    Type
REMARK                         _______ _______ _______ _____ _____    ______ ____
ROOT
ATOM      1  C   UNL     1      -9.093   2.318 122.983  0.00  0.00    +0.000 C 
ATOM      2  N   UNL     1      -8.143   1.497 123.690  0.00  0.00    +0.000 N 
ATOM      3  C   UNL     1      -7.048   1.936 124.387  0.00  0.00    +0.000 A 
ATOM      4  N   UNL     1      -6.399   0.936 124.955  0.00  0.00    +0.000 NA
ATOM      5  C   UNL     1      -7.105  -0.173 124.600  0.00  0.00    +0.000 A 
ATOM      6  C   UNL     1      -8.177   0.138 123.819  0.00  0.00    +0.000 A 
ATOM      7  C   UNL     1      -9.081  -0.833 123.311  0.00  0.00    +0.000 A 
ATOM      8  O   UNL     1     -10.043  -0.541 122.609  0.00  0.00    +0.000 OA
ATOM      9  N   UNL     1      -8.750  -2.133 123.700  0.00  0.00    +0.000 N 
ATOM     10  C   UNL     1      -9.605  -3.215 123.253  0.00  0.00    +0.000 C 
ATOM     11  C   UNL     1      -7.646  -2.500 124.496  0.00  0.00    +0.000 A 
ATOM     12  O   UNL     1      -7.426  -3.684 124.769  0.00  0.00    +0.000 OA
ATOM     13  N   UNL     1      -6.822  -1.471 124.957  0.00  0.00    +0.000 N 
ATOM     14  C   UNL     1      -5.674  -1.773 125.793  0.00  0.00    +0.000 C 
ENDROOT
TORSDOF 0
ENDMDL
MODEL 8
REMARK VINA RESULT:      -4.8      8.044      9.448
REMARK  Name = Caffeine
REMARK  3 active torsions:
REMARK  status: ('A' for Active; 'I' for Inactive)
REMARK    1  A    between atoms: C_1  and  N_2
REMARK    2  A    between atoms: N_9  and  C_10
REMARK    3  A    between atoms: N_13  and  C_14
REMARK                            x       y       z     vdW  Elec       q    Type
REMARK                         _______ _______ _______ _____ _____    ______ ____
ROOT
ATOM      1  C   UNL     1      -8.419  -3.719 125.429  0.00  0.00    +0.000 C 
ATOM      2  N   UNL     1      -8.752  -2.567 124.629  0.00  0.00    +0.000 N 
ATOM      3  C   UNL     1      -9.144  -2.573 123.316  0.00  0.00    +0.000 A 
ATOM      4  N   UNL     1      -9.415  -1.356 122.883  0.00  0.00    +0.000 NA
ATOM      5  C   UNL     1      -9.181  -0.552 123.957  0.00  0.00    +0.000 A 
ATOM      6  C   UNL     1      -8.768  -1.265 125.042  0.00  0.00    +0.000 A 
ATOM      7  C   UNL     1      -8.457  -0.671 126.294  0.00  0.00    +0.000 A 
ATOM      8  O   UNL     1      -8.087  -1.324 127.265  0.00  0.00    +0.000 OA
ATOM      9  N   UNL     1      -8.621   0.716 126.289  0.00  0.00    +0.000 N 
ATOM     10  C   UNL     1      -8.345   1.438 127.515  0.00  0.00    +0.000 C 
ATOM     11  C   UNL     1      -9.035   1.493 125.188  0.00  0.00    +0.000 A 
ATOM     12  O   UNL     1      -9.130   2.720 125.278  0.00  0.00    +0.000 OA
ATOM     13  N   UNL     1      -9.328   0.814 124.003  0.00  0.00    +0.000 N 
ATOM     14  C   UNL     1      -9.773   1.549 122.832  0.00  0.00    +0.000 C 
ENDROOT
TORSDOF 0
ENDMDL
MODEL 9
REMARK VINA RESULT:      -4.8      1.921      4.252
REMARK  Name = Caffeine
REMARK  3 active torsions:
REMARK  status: ('A' for Active; 'I' for Inactive)
REMARK    1  A    between atoms: C_1  and  N_2
REMARK    2  A    between atoms: N_9  and  C_10
REMARK    3  A    between atoms: N_13  and  C_14
REMARK                            x       y       z     vdW  Elec       q    Type
REMARK                         _______ _______ _______ _____ _____    ______ ____
ROOT
ATOM      1  C   UNL     1     -11.948   6.451 129.150  0.00  0.00    +0.000 C 
ATOM      2  N   UNL     1     -11.208   6.351 130.383  0.00  0.00    +0.000 N 
ATOM      3  C   UNL     1     -11.668   6.663 131.636  0.00  0.00    +0.000 A 
ATOM      4  N   UNL     1     -10.758   6.424 132.561  0.00  0.00    +0.000 NA
ATOM      5  C   UNL     1      -9.684   5.951 131.870  0.00  0.00    +0.000 A 
ATOM      6  C   UNL     1      -9.928   5.900 130.531  0.00  0.00    +0.000 A 
ATOM      7  C   UNL     1      -8.975   5.444 129.581  0.00  0.00    +0.000 A 
ATOM      8  O   UNL     1      -9.206   5.403 128.377  0.00  0.00    +0.000 OA
ATOM      9  N   UNL     1      -7.770   5.057 130.170  0.00  0.00    +0.000 N 
ATOM     10  C   UNL     1      -6.719   4.561 129.304  0.00  0.00    +0.000 C 
ATOM     11  C   UNL     1      -7.472   5.103 131.547  0.00  0.00    +0.000 A 
ATOM     12  O   UNL     1      -6.365   4.756 131.969  0.00  0.00    +0.000 OA
ATOM     13  N   UNL     1      -8.479   5.556 132.402  0.00  0.00    +0.000 N 
ATOM     14  C   UNL     1      -8.248   5.618 133.834  0.00  0.00    +0.000 C 
ENDROOT
TORSDOF 0
ENDMDL
