MODEL 1
REMARK VINA RESULT:      -8.0      0.000      0.000
REMARK  Name = Calcipotriol
REMARK  10 active torsions:
REMARK  status: ('A' for Active; 'I' for Inactive)
REMARK    1  A    between atoms: O_1  and  C_2
REMARK    2  A    between atoms: C_2  and  C_3
REMARK    3  A    between atoms: C_2  and  C_30
REMARK    4  A    between atoms: C_4  and  C_5
REMARK    5  A    between atoms: C_5  and  C_6
REMARK    6  A    between atoms: C_5  and  C_7
REMARK    7  A    between atoms: C_17  and  C_18
REMARK    8  A    between atoms: C_19  and  C_20
REMARK    9  A    between atoms: C_23  and  O_24
REMARK   10  A    between atoms: C_26  and  O_27
REMARK                            x       y       z     vdW  Elec       q    Type
REMARK                         _______ _______ _______ _____ _____    ______ ____
ROOT
ATOM      1  C   UNL     1      -6.748  -1.471 125.036  0.00  0.00    +0.000 C 
ATOM      2  C   UNL     1      -5.735  -0.397 125.537  0.00  0.00    +0.000 C 
ATOM      3  C   UNL     1      -5.768  -0.416 127.070  0.00  0.00    +0.000 C 
ATOM      4  C   UNL     1      -6.541  -1.692 127.390  0.00  0.00    +0.000 C 
ATOM      5  C   UNL     1      -7.177  -1.952 128.729  0.00  0.00    +0.000 C 
ATOM      6  C   UNL     1      -7.920  -3.266 128.718  0.00  0.00    +0.000 C 
ATOM      7  C   UNL     1      -8.911  -3.479 127.616  0.00  0.00    +0.000 C 
ATOM      8  C   UNL     1      -8.254  -3.176 126.289  0.00  0.00    +0.000 C 
ATOM      9  C   UNL     1      -7.616  -1.768 126.281  0.00  0.00    +0.000 C 
ATOM     10  C   UNL     1      -8.714  -0.693 126.489  0.00  0.00    +0.000 C 
ATOM     11  C   UNL     1      -7.044  -1.178 129.809  0.00  0.00    +0.000 C 
ENDROOT
BRANCH  11  12
ATOM     12  C   UNL     1      -7.460  -1.458 131.172  0.00  0.00    +0.000 C 
ATOM     13  C   UNL     1      -6.843  -2.149 132.157  0.00  0.00    +0.000 C 
ATOM     14  C   UNL     1      -7.313  -1.958 133.584  0.00  0.00    +0.000 C 
ATOM     15  C   UNL     1      -7.541  -3.264 134.349  0.00  0.00    +0.000 C 
ATOM     16  C   UNL     1      -6.387  -4.251 134.187  0.00  0.00    +0.000 C 
ATOM     17  C   UNL     1      -6.034  -4.455 132.719  0.00  0.00    +0.000 C 
ATOM     18  C   UNL     1      -5.719  -3.100 132.080  0.00  0.00    +0.000 C 
ATOM     19  C   UNL     1      -4.563  -2.857 131.438  0.00  0.00    +0.000 C 
BRANCH  15  20
ATOM     20  O   UNL     1      -8.771  -3.866 133.949  0.00  0.00    +0.000 OA
ATOM     21  H   UNL     1      -8.949  -3.625 133.023  0.00  0.00    +0.000 HD
ENDBRANCH  15  20
BRANCH  17  22
ATOM     22  O   UNL     1      -4.942  -5.369 132.628  0.00  0.00    +0.000 OA
ATOM     23  H   UNL     1      -4.469  -5.167 131.804  0.00  0.00    +0.000 HD
ENDBRANCH  17  22
ENDBRANCH  11  12
BRANCH   1  24
ATOM     24  C   UNL     1      -7.557  -1.069 123.783  0.00  0.00    +0.000 C 
ATOM     25  C   UNL     1      -7.377  -2.067 122.634  0.00  0.00    +0.000 C 
BRANCH  24  27
ATOM     26  C   UNL     1      -8.113   1.281 123.207  0.00  0.00    +0.000 C 
ATOM     27  C   UNL     1      -7.196   0.300 123.302  0.00  0.00    +0.000 C 
BRANCH  26  28
ATOM     28  C   UNL     1      -7.763   2.659 122.794  0.00  0.00    +0.000 C 
BRANCH  28  29
ATOM     29  C   UNL     1      -6.286   2.852 122.678  0.00  0.00    +0.000 C 
ATOM     30  C   UNL     1      -5.711   3.503 121.445  0.00  0.00    +0.000 C 
ATOM     31  C   UNL     1      -5.691   4.230 122.764  0.00  0.00    +0.000 C 
ENDBRANCH  28  29
BRANCH  28  32
ATOM     32  O   UNL     1      -8.269   3.530 123.792  0.00  0.00    +0.000 OA
ATOM     33  H   UNL     1      -7.799   4.371 123.674  0.00  0.00    +0.000 HD
ENDBRANCH  28  32
ENDBRANCH  26  28
ENDBRANCH  24  27
ENDBRANCH   1  24
TORSDOF 8
ENDMDL
MODEL 2
REMARK VINA RESULT:      -7.9      1.409      2.169
REMARK  Name = Calcipotriol
REMARK  10 active torsions:
REMARK  status: ('A' for Active; 'I' for Inactive)
REMARK    1  A    between atoms: O_1  and  C_2
REMARK    2  A    between atoms: C_2  and  C_3
REMARK    3  A    between atoms: C_2  and  C_30
REMARK    4  A    between atoms: C_4  and  C_5
REMARK    5  A    between atoms: C_5  and  C_6
REMARK    6  A    between atoms: C_5  and  C_7
REMARK    7  A    between atoms: C_17  and  C_18
REMARK    8  A    between atoms: C_19  and  C_20
REMARK    9  A    between atoms: C_23  and  O_24
REMARK   10  A    between atoms: C_26  and  O_27
REMARK                            x       y       z     vdW  Elec       q    Type
REMARK                         _______ _______ _______ _____ _____    ______ ____
ROOT
ATOM      1  C   UNL     1      -7.566  -1.525 124.592  0.00  0.00    +0.000 C 
ATOM      2  C   UNL     1      -6.106  -0.979 124.633  0.00  0.00    +0.000 C 
ATOM      3  C   UNL     1      -5.500  -1.392 125.980  0.00  0.00    +0.000 C 
ATOM      4  C   UNL     1      -6.499  -2.413 126.517  0.00  0.00    +0.000 C 
ATOM      5  C   UNL     1      -6.563  -2.813 127.967  0.00  0.00    +0.000 C 
ATOM      6  C   UNL     1      -7.690  -3.790 128.200  0.00  0.00    +0.000 C 
ATOM      7  C   UNL     1      -9.047  -3.395 127.704  0.00  0.00    +0.000 C 
ATOM      8  C   UNL     1      -8.944  -2.964 126.259  0.00  0.00    +0.000 C 
ATOM      9  C   UNL     1      -7.873  -1.865 126.069  0.00  0.00    +0.000 C 
ATOM     10  C   UNL     1      -8.267  -0.603 126.882  0.00  0.00    +0.000 C 
ATOM     11  C   UNL     1      -5.700  -2.430 128.912  0.00  0.00    +0.000 C 
ENDROOT
BRANCH  11  12
ATOM     12  C   UNL     1      -5.580  -2.921 130.273  0.00  0.00    +0.000 C 
ATOM     13  C   UNL     1      -6.267  -2.596 131.391  0.00  0.00    +0.000 C 
ATOM     14  C   UNL     1      -6.203  -3.531 132.581  0.00  0.00    +0.000 C 
ATOM     15  C   UNL     1      -5.913  -2.832 133.911  0.00  0.00    +0.000 C 
ATOM     16  C   UNL     1      -6.774  -1.589 134.125  0.00  0.00    +0.000 C 
ATOM     17  C   UNL     1      -6.714  -0.659 132.920  0.00  0.00    +0.000 C 
ATOM     18  C   UNL     1      -7.127  -1.430 131.664  0.00  0.00    +0.000 C 
ATOM     19  C   UNL     1      -8.118  -1.015 130.856  0.00  0.00    +0.000 C 
BRANCH  15  20
ATOM     20  O   UNL     1      -4.528  -2.501 134.007  0.00  0.00    +0.000 OA
ATOM     21  H   UNL     1      -4.004  -3.265 133.709  0.00  0.00    +0.000 HD
ENDBRANCH  15  20
BRANCH  17  22
ATOM     22  O   UNL     1      -7.547   0.472 133.165  0.00  0.00    +0.000 OA
ATOM     23  H   UNL     1      -7.846   0.800 132.302  0.00  0.00    +0.000 HD
ENDBRANCH  17  22
ENDBRANCH  11  12
BRANCH   1  24
ATOM     24  C   UNL     1      -8.596  -0.582 123.933  0.00  0.00    +0.000 C 
ATOM     25  C   UNL     1      -9.354  -1.262 122.789  0.00  0.00    +0.000 C 
BRANCH  24  27
ATOM     26  C   UNL     1      -8.654   1.812 123.277  0.00  0.00    +0.000 C 
ATOM     27  C   UNL     1      -7.958   0.670 123.421  0.00  0.00    +0.000 C 
BRANCH  26  28
ATOM     28  C   UNL     1      -8.025   3.077 122.832  0.00  0.00    +0.000 C 
BRANCH  28  29
ATOM     29  C   UNL     1      -6.571   2.906 122.537  0.00  0.00    +0.000 C 
ATOM     30  C   UNL     1      -6.011   3.394 121.224  0.00  0.00    +0.000 C 
ATOM     31  C   UNL     1      -5.656   4.099 122.507  0.00  0.00    +0.000 C 
ENDBRANCH  28  29
BRANCH  28  32
ATOM     32  O   UNL     1      -8.179   4.009 123.889  0.00  0.00    +0.000 OA
ATOM     33  H   UNL     1      -7.282   4.300 124.119  0.00  0.00    +0.000 HD
ENDBRANCH  28  32
ENDBRANCH  26  28
ENDBRANCH  24  27
ENDBRANCH   1  24
TORSDOF 8
ENDMDL
MODEL 3
REMARK VINA RESULT:      -7.6      5.260      6.781
REMARK  Name = Calcipotriol
REMARK  10 active torsions:
REMARK  status: ('A' for Active; 'I' for Inactive)
REMARK    1  A    between atoms: O_1  and  C_2
REMARK    2  A    between atoms: C_2  and  C_3
REMARK    3  A    between atoms: C_2  and  C_30
REMARK    4  A    between atoms: C_4  and  C_5
REMARK    5  A    between atoms: C_5  and  C_6
REMARK    6  A    between atoms: C_5  and  C_7
REMARK    7  A    between atoms: C_17  and  C_18
REMARK    8  A    between atoms: C_19  and  C_20
REMARK    9  A    between atoms: C_23  and  O_24
REMARK   10  A    between atoms: C_26  and  O_27
REMARK                            x       y       z     vdW  Elec       q    Type
REMARK                         _______ _______ _______ _____ _____    ______ ____
ROOT
ATOM      1  C   UNL     1      -8.438   4.398 131.070  0.00  0.00    +0.000 C 
ATOM      2  C   UNL     1      -9.854   3.744 131.073  0.00  0.00    +0.000 C 
ATOM      3  C   UNL     1      -9.661   2.233 130.887  0.00  0.00    +0.000 C 
ATOM      4  C   UNL     1      -8.163   2.040 131.105  0.00  0.00    +0.000 C 
ATOM      5  C   UNL     1      -7.419   0.815 130.646  0.00  0.00    +0.000 C 
ATOM      6  C   UNL     1      -5.946   0.944 130.947  0.00  0.00    +0.000 C 
ATOM      7  C   UNL     1      -5.258   2.185 130.468  0.00  0.00    +0.000 C 
ATOM      8  C   UNL     1      -6.048   3.395 130.912  0.00  0.00    +0.000 C 
ATOM      9  C   UNL     1      -7.527   3.300 130.473  0.00  0.00    +0.000 C 
ATOM     10  C   UNL     1      -7.613   3.258 128.925  0.00  0.00    +0.000 C 
ATOM     11  C   UNL     1      -7.981  -0.276 130.119  0.00  0.00    +0.000 C 
ENDROOT
BRANCH  11  12
ATOM     12  C   UNL     1      -7.362  -1.559 129.836  0.00  0.00    +0.000 C 
ATOM     13  C   UNL     1      -7.053  -2.588 130.657  0.00  0.00    +0.000 C 
ATOM     14  C   UNL     1      -6.774  -3.946 130.047  0.00  0.00    +0.000 C 
ATOM     15  C   UNL     1      -5.504  -4.620 130.571  0.00  0.00    +0.000 C 
ATOM     16  C   UNL     1      -5.397  -4.573 132.094  0.00  0.00    +0.000 C 
ATOM     17  C   UNL     1      -5.601  -3.158 132.621  0.00  0.00    +0.000 C 
ATOM     18  C   UNL     1      -6.948  -2.623 132.127  0.00  0.00    +0.000 C 
ATOM     19  C   UNL     1      -7.887  -2.152 132.965  0.00  0.00    +0.000 C 
BRANCH  15  20
ATOM     20  O   UNL     1      -4.348  -4.035 129.972  0.00  0.00    +0.000 OA
ATOM     21  H   UNL     1      -3.561  -4.523 130.274  0.00  0.00    +0.000 HD
ENDBRANCH  15  20
BRANCH  17  22
ATOM     22  O   UNL     1      -5.510  -3.176 134.044  0.00  0.00    +0.000 OA
ATOM     23  H   UNL     1      -6.398  -2.994 134.390  0.00  0.00    +0.000 HD
ENDBRANCH  17  22
ENDBRANCH  11  12
BRANCH   1  24
ATOM     24  C   UNL     1      -8.350   5.757 130.343  0.00  0.00    +0.000 C 
ATOM     25  C   UNL     1      -7.700   6.838 131.214  0.00  0.00    +0.000 C 
BRANCH  24  27
ATOM     26  C   UNL     1      -9.921   7.529 129.597  0.00  0.00    +0.000 C 
ATOM     27  C   UNL     1      -9.693   6.236 129.892  0.00  0.00    +0.000 C 
BRANCH  26  28
ATOM     28  C   UNL     1     -11.226   8.012 129.089  0.00  0.00    +0.000 C 
BRANCH  28  29
ATOM     29  C   UNL     1     -12.026   6.914 128.469  0.00  0.00    +0.000 C 
ATOM     30  C   UNL     1     -13.512   6.840 128.715  0.00  0.00    +0.000 C 
ATOM     31  C   UNL     1     -12.988   7.212 127.353  0.00  0.00    +0.000 C 
ENDBRANCH  28  29
BRANCH  28  32
ATOM     32  O   UNL     1     -10.947   8.997 128.108  0.00  0.00    +0.000 OA
ATOM     33  H   UNL     1     -10.347   8.576 127.472  0.00  0.00    +0.000 HD
ENDBRANCH  28  32
ENDBRANCH  26  28
ENDBRANCH  24  27
ENDBRANCH   1  24
TORSDOF 8
ENDMDL
MODEL 4
REMARK VINA RESULT:      -7.6      4.527      6.801
REMARK  Name = Calcipotriol
REMARK  10 active torsions:
REMARK  status: ('A' for Active; 'I' for Inactive)
REMARK    1  A    between atoms: O_1  and  C_2
REMARK    2  A    between atoms: C_2  and  C_3
REMARK    3  A    between atoms: C_2  and  C_30
REMARK    4  A    between atoms: C_4  and  C_5
REMARK    5  A    between atoms: C_5  and  C_6
REMARK    6  A    between atoms: C_5  and  C_7
REMARK    7  A    between atoms: C_17  and  C_18
REMARK    8  A    between atoms: C_19  and  C_20
REMARK    9  A    between atoms: C_23  and  O_24
REMARK   10  A    between atoms: C_26  and  O_27
REMARK                            x       y       z     vdW  Elec       q    Type
REMARK                         _______ _______ _______ _____ _____    ______ ____
ROOT
ATOM      1  C   UNL     1      -7.158  -2.427 129.006  0.00  0.00    +0.000 C 
ATOM      2  C   UNL     1      -5.684  -2.684 128.564  0.00  0.00    +0.000 C 
ATOM      3  C   UNL     1      -4.821  -1.579 129.185  0.00  0.00    +0.000 C 
ATOM      4  C   UNL     1      -5.757  -0.931 130.202  0.00  0.00    +0.000 C 
ATOM      5  C   UNL     1      -5.517   0.438 130.782  0.00  0.00    +0.000 C 
ATOM      6  C   UNL     1      -6.644   0.828 131.707  0.00  0.00    +0.000 C 
ATOM      7  C   UNL     1      -8.036   0.724 131.166  0.00  0.00    +0.000 C 
ATOM      8  C   UNL     1      -8.235  -0.646 130.559  0.00  0.00    +0.000 C 
ATOM      9  C   UNL     1      -7.141  -0.967 129.514  0.00  0.00    +0.000 C 
ATOM     10  C   UNL     1      -7.215   0.051 128.347  0.00  0.00    +0.000 C 
ATOM     11  C   UNL     1      -4.426   1.180 130.580  0.00  0.00    +0.000 C 
ENDROOT
BRANCH  11  12
ATOM     12  C   UNL     1      -4.037   2.408 131.251  0.00  0.00    +0.000 C 
ATOM     13  C   UNL     1      -3.865   3.659 130.768  0.00  0.00    +0.000 C 
ATOM     14  C   UNL     1      -3.838   4.818 131.744  0.00  0.00    +0.000 C 
ATOM     15  C   UNL     1      -2.673   5.787 131.532  0.00  0.00    +0.000 C 
ATOM     16  C   UNL     1      -2.495   6.185 130.069  0.00  0.00    +0.000 C 
ATOM     17  C   UNL     1      -2.443   4.961 129.164  0.00  0.00    +0.000 C 
ATOM     18  C   UNL     1      -3.704   4.120 129.376  0.00  0.00    +0.000 C 
ATOM     19  C   UNL     1      -4.518   3.771 128.365  0.00  0.00    +0.000 C 
BRANCH  15  20
ATOM     20  O   UNL     1      -1.464   5.232 132.048  0.00  0.00    +0.000 OA
ATOM     21  H   UNL     1      -0.814   5.176 131.325  0.00  0.00    +0.000 HD
ENDBRANCH  15  20
BRANCH  17  22
ATOM     22  O   UNL     1      -2.294   5.390 127.812  0.00  0.00    +0.000 OA
ATOM     23  H   UNL     1      -2.981   4.941 127.292  0.00  0.00    +0.000 HD
ENDBRANCH  17  22
ENDBRANCH  11  12
BRANCH   1  24
ATOM     24  C   UNL     1      -8.221  -2.708 127.922  0.00  0.00    +0.000 C 
ATOM     25  C   UNL     1      -9.011  -3.990 128.204  0.00  0.00    +0.000 C 
BRANCH  24  27
ATOM     26  C   UNL     1      -8.247  -3.413 125.541  0.00  0.00    +0.000 C 
ATOM     27  C   UNL     1      -7.616  -2.796 126.557  0.00  0.00    +0.000 C 
BRANCH  26  28
ATOM     28  C   UNL     1      -7.693  -3.457 124.169  0.00  0.00    +0.000 C 
BRANCH  28  29
ATOM     29  C   UNL     1      -6.508  -2.561 124.015  0.00  0.00    +0.000 C 
ATOM     30  C   UNL     1      -5.188  -3.137 123.566  0.00  0.00    +0.000 C 
ATOM     31  C   UNL     1      -5.973  -2.238 122.647  0.00  0.00    +0.000 C 
ENDBRANCH  28  29
BRANCH  28  32
ATOM     32  O   UNL     1      -8.722  -3.022 123.295  0.00  0.00    +0.000 OA
ATOM     33  H   UNL     1      -8.892  -3.765 122.695  0.00  0.00    +0.000 HD
ENDBRANCH  28  32
ENDBRANCH  26  28
ENDBRANCH  24  27
ENDBRANCH   1  24
TORSDOF 8
ENDMDL
MODEL 5
REMARK VINA RESULT:      -7.5      4.349      8.399
REMARK  Name = Calcipotriol
REMARK  10 active torsions:
REMARK  status: ('A' for Active; 'I' for Inactive)
REMARK    1  A    between atoms: O_1  and  C_2
REMARK    2  A    between atoms: C_2  and  C_3
REMARK    3  A    between atoms: C_2  and  C_30
REMARK    4  A    between atoms: C_4  and  C_5
REMARK    5  A    between atoms: C_5  and  C_6
REMARK    6  A    between atoms: C_5  and  C_7
REMARK    7  A    between atoms: C_17  and  C_18
REMARK    8  A    between atoms: C_19  and  C_20
REMARK    9  A    between atoms: C_23  and  O_24
REMARK   10  A    between atoms: C_26  and  O_27
REMARK                            x       y       z     vdW  Elec       q    Type
REMARK                         _______ _______ _______ _____ _____    ______ ____
ROOT
ATOM      1  C   UNL     1      -5.033  -0.545 132.378  0.00  0.00    +0.000 C 
ATOM      2  C   UNL     1      -6.244   0.430 132.256  0.00  0.00    +0.000 C 
ATOM      3  C   UNL     1      -7.149  -0.103 131.138  0.00  0.00    +0.000 C 
ATOM      4  C   UNL     1      -6.607  -1.507 130.886  0.00  0.00    +0.000 C 
ATOM      5  C   UNL     1      -6.896  -2.284 129.629  0.00  0.00    +0.000 C 
ATOM      6  C   UNL     1      -6.172  -3.608 129.644  0.00  0.00    +0.000 C 
ATOM      7  C   UNL     1      -4.699  -3.577 129.915  0.00  0.00    +0.000 C 
ATOM      8  C   UNL     1      -4.439  -2.761 131.161  0.00  0.00    +0.000 C 
ATOM      9  C   UNL     1      -5.079  -1.357 131.063  0.00  0.00    +0.000 C 
ATOM     10  C   UNL     1      -4.450  -0.575 129.880  0.00  0.00    +0.000 C 
ATOM     11  C   UNL     1      -7.736  -1.904 128.663  0.00  0.00    +0.000 C 
ENDROOT
BRANCH  11  12
ATOM     12  C   UNL     1      -8.212  -2.676 127.529  0.00  0.00    +0.000 C 
ATOM     13  C   UNL     1      -7.774  -2.725 126.251  0.00  0.00    +0.000 C 
ATOM     14  C   UNL     1      -8.196  -3.892 125.382  0.00  0.00    +0.000 C 
ATOM     15  C   UNL     1      -8.720  -3.489 124.002  0.00  0.00    +0.000 C 
ATOM     16  C   UNL     1      -7.820  -2.471 123.305  0.00  0.00    +0.000 C 
ATOM     17  C   UNL     1      -7.515  -1.286 124.213  0.00  0.00    +0.000 C 
ATOM     18  C   UNL     1      -6.896  -1.795 125.518  0.00  0.00    +0.000 C 
ATOM     19  C   UNL     1      -5.712  -1.353 125.975  0.00  0.00    +0.000 C 
BRANCH  15  20
ATOM     20  O   UNL     1     -10.053  -2.989 124.102  0.00  0.00    +0.000 OA
ATOM     21  H   UNL     1     -10.013  -2.033 124.284  0.00  0.00    +0.000 HD
ENDBRANCH  15  20
BRANCH  17  22
ATOM     22  O   UNL     1      -6.659  -0.379 123.521  0.00  0.00    +0.000 OA
ATOM     23  H   UNL     1      -6.153   0.106 124.193  0.00  0.00    +0.000 HD
ENDBRANCH  17  22
ENDBRANCH  11  12
BRANCH   1  24
ATOM     24  C   UNL     1      -3.674   0.136 132.654  0.00  0.00    +0.000 C 
ATOM     25  C   UNL     1      -3.029  -0.366 133.950  0.00  0.00    +0.000 C 
BRANCH  24  27
ATOM     26  C   UNL     1      -2.812   2.399 133.202  0.00  0.00    +0.000 C 
ATOM     27  C   UNL     1      -3.799   1.625 132.715  0.00  0.00    +0.000 C 
BRANCH  26  28
ATOM     28  C   UNL     1      -2.891   3.877 133.212  0.00  0.00    +0.000 C 
BRANCH  28  29
ATOM     29  C   UNL     1      -1.711   4.505 132.545  0.00  0.00    +0.000 C 
ATOM     30  C   UNL     1      -1.916   5.658 131.593  0.00  0.00    +0.000 C 
ATOM     31  C   UNL     1      -1.267   5.889 132.932  0.00  0.00    +0.000 C 
ENDBRANCH  28  29
BRANCH  28  32
ATOM     32  O   UNL     1      -2.924   4.279 134.572  0.00  0.00    +0.000 OA
ATOM     33  H   UNL     1      -3.847   4.183 134.854  0.00  0.00    +0.000 HD
ENDBRANCH  28  32
ENDBRANCH  26  28
ENDBRANCH  24  27
ENDBRANCH   1  24
TORSDOF 8
ENDMDL
MODEL 6
REMARK VINA RESULT:      -7.4      5.882      7.805
REMARK  Name = Calcipotriol
REMARK  10 active torsions:
REMARK  status: ('A' for Active; 'I' for Inactive)
REMARK    1  A    between atoms: O_1  and  C_2
REMARK    2  A    between atoms: C_2  and  C_3
REMARK    3  A    between atoms: C_2  and  C_30
REMARK    4  A    between atoms: C_4  and  C_5
REMARK    5  A    between atoms: C_5  and  C_6
REMARK    6  A    between atoms: C_5  and  C_7
REMARK    7  A    between atoms: C_17  and  C_18
REMARK    8  A    between atoms: C_19  and  C_20
REMARK    9  A    between atoms: C_23  and  O_24
REMARK   10  A    between atoms: C_26  and  O_27
REMARK                            x       y       z     vdW  Elec       q    Type
REMARK                         _______ _______ _______ _____ _____    ______ ____
ROOT
ATOM      1  C   UNL     1      -6.427   3.233 125.353  0.00  0.00    +0.000 C 
ATOM      2  C   UNL     1      -7.601   3.115 126.373  0.00  0.00    +0.000 C 
ATOM      3  C   UNL     1      -7.022   3.368 127.770  0.00  0.00    +0.000 C 
ATOM      4  C   UNL     1      -5.633   3.931 127.478  0.00  0.00    +0.000 C 
ATOM      5  C   UNL     1      -4.531   3.966 128.503  0.00  0.00    +0.000 C 
ATOM      6  C   UNL     1      -3.262   4.519 127.900  0.00  0.00    +0.000 C 
ATOM      7  C   UNL     1      -2.779   3.887 126.631  0.00  0.00    +0.000 C 
ATOM      8  C   UNL     1      -3.916   3.832 125.637  0.00  0.00    +0.000 C 
ATOM      9  C   UNL     1      -5.162   3.140 126.236  0.00  0.00    +0.000 C 
ATOM     10  C   UNL     1      -4.820   1.672 126.601  0.00  0.00    +0.000 C 
ATOM     11  C   UNL     1      -4.663   3.635 129.790  0.00  0.00    +0.000 C 
ENDROOT
BRANCH  11  12
ATOM     12  C   UNL     1      -3.712   3.826 130.870  0.00  0.00    +0.000 C 
ATOM     13  C   UNL     1      -3.497   4.889 131.677  0.00  0.00    +0.000 C 
ATOM     14  C   UNL     1      -2.718   4.683 132.960  0.00  0.00    +0.000 C 
ATOM     15  C   UNL     1      -1.607   5.709 133.190  0.00  0.00    +0.000 C 
ATOM     16  C   UNL     1      -2.071   7.145 132.953  0.00  0.00    +0.000 C 
ATOM     17  C   UNL     1      -2.766   7.287 131.604  0.00  0.00    +0.000 C 
ATOM     18  C   UNL     1      -3.926   6.292 131.524  0.00  0.00    +0.000 C 
ATOM     19  C   UNL     1      -5.186   6.673 131.249  0.00  0.00    +0.000 C 
BRANCH  15  20
ATOM     20  O   UNL     1      -0.476   5.410 132.371  0.00  0.00    +0.000 OA
ATOM     21  H   UNL     1       0.009   4.667 132.771  0.00  0.00    +0.000 HD
ENDBRANCH  15  20
BRANCH  17  22
ATOM     22  O   UNL     1      -3.194   8.638 131.444  0.00  0.00    +0.000 OA
ATOM     23  H   UNL     1      -2.534   9.083 130.888  0.00  0.00    +0.000 HD
ENDBRANCH  17  22
ENDBRANCH  11  12
BRANCH   1  24
ATOM     24  C   UNL     1      -6.466   2.214 124.193  0.00  0.00    +0.000 C 
ATOM     25  C   UNL     1      -6.547   2.898 122.825  0.00  0.00    +0.000 C 
BRANCH  24  27
ATOM     26  C   UNL     1      -7.420  -0.075 124.320  0.00  0.00    +0.000 C 
ATOM     27  C   UNL     1      -7.608   1.258 124.330  0.00  0.00    +0.000 C 
BRANCH  26  28
ATOM     28  C   UNL     1      -8.529  -1.036 124.517  0.00  0.00    +0.000 C 
BRANCH  28  29
ATOM     29  C   UNL     1      -8.324  -2.294 123.737  0.00  0.00    +0.000 C 
ATOM     30  C   UNL     1      -8.358  -3.626 124.444  0.00  0.00    +0.000 C 
ATOM     31  C   UNL     1      -9.470  -3.239 123.506  0.00  0.00    +0.000 C 
ENDBRANCH  28  29
BRANCH  28  32
ATOM     32  O   UNL     1      -9.713  -0.398 124.068  0.00  0.00    +0.000 OA
ATOM     33  H   UNL     1     -10.118  -1.008 123.431  0.00  0.00    +0.000 HD
ENDBRANCH  28  32
ENDBRANCH  26  28
ENDBRANCH  24  27
ENDBRANCH   1  24
TORSDOF 8
ENDMDL
MODEL 7
REMARK VINA RESULT:      -7.4     12.203     15.408
REMARK  Name = Calcipotriol
REMARK  10 active torsions:
REMARK  status: ('A' for Active; 'I' for Inactive)
REMARK    1  A    between atoms: O_1  and  C_2
REMARK    2  A    between atoms: C_2  and  C_3
REMARK    3  A    between atoms: C_2  and  C_30
REMARK    4  A    between atoms: C_4  and  C_5
REMARK    5  A    between atoms: C_5  and  C_6
REMARK    6  A    between atoms: C_5  and  C_7
REMARK    7  A    between atoms: C_17  and  C_18
REMARK    8  A    between atoms: C_19  and  C_20
REMARK    9  A    between atoms: C_23  and  O_24
REMARK   10  A    between atoms: C_26  and  O_27
REMARK                            x       y       z     vdW  Elec       q    Type
REMARK                         _______ _______ _______ _____ _____    ______ ____
ROOT
ATOM      1  C   UNL     1      -9.071   9.534 139.375  0.00  0.00    +0.000 C 
ATOM      2  C   UNL     1     -10.123   9.521 138.223  0.00  0.00    +0.000 C 
ATOM      3  C   UNL     1      -9.746   8.377 137.272  0.00  0.00    +0.000 C 
ATOM      4  C   UNL     1      -8.707   7.589 138.065  0.00  0.00    +0.000 C 
ATOM      5  C   UNL     1      -7.752   6.616 137.425  0.00  0.00    +0.000 C 
ATOM      6  C   UNL     1      -6.809   6.043 138.454  0.00  0.00    +0.000 C 
ATOM      7  C   UNL     1      -6.066   7.017 139.316  0.00  0.00    +0.000 C 
ATOM      8  C   UNL     1      -7.046   8.001 139.914  0.00  0.00    +0.000 C 
ATOM      9  C   UNL     1      -7.910   8.675 138.824  0.00  0.00    +0.000 C 
ATOM     10  C   UNL     1      -7.002   9.482 137.859  0.00  0.00    +0.000 C 
ATOM     11  C   UNL     1      -7.777   6.242 136.144  0.00  0.00    +0.000 C 
ENDROOT
BRANCH  11  12
ATOM     12  C   UNL     1      -7.026   5.176 135.504  0.00  0.00    +0.000 C 
ATOM     13  C   UNL     1      -7.272   4.483 134.369  0.00  0.00    +0.000 C 
ATOM     14  C   UNL     1      -6.138   3.706 133.732  0.00  0.00    +0.000 C 
ATOM     15  C   UNL     1      -6.501   2.268 133.353  0.00  0.00    +0.000 C 
ATOM     16  C   UNL     1      -7.833   2.171 132.612  0.00  0.00    +0.000 C 
ATOM     17  C   UNL     1      -8.938   2.903 133.362  0.00  0.00    +0.000 C 
ATOM     18  C   UNL     1      -8.519   4.357 133.592  0.00  0.00    +0.000 C 
ATOM     19  C   UNL     1      -9.273   5.397 133.198  0.00  0.00    +0.000 C 
BRANCH  15  20
ATOM     20  O   UNL     1      -6.515   1.436 134.512  0.00  0.00    +0.000 OA
ATOM     21  H   UNL     1      -6.677   0.518 134.234  0.00  0.00    +0.000 HD
ENDBRANCH  15  20
BRANCH  17  22
ATOM     22  O   UNL     1     -10.151   2.797 132.619  0.00  0.00    +0.000 OA
ATOM     23  H   UNL     1     -10.055   3.358 131.833  0.00  0.00    +0.000 HD
ENDBRANCH  17  22
ENDBRANCH  11  12
BRANCH   1  24
ATOM     24  C   UNL     1      -8.647  10.940 139.853  0.00  0.00    +0.000 C 
ATOM     25  C   UNL     1      -8.178  10.938 141.312  0.00  0.00    +0.000 C 
BRANCH  24  27
ATOM     26  C   UNL     1      -9.884  12.982 140.534  0.00  0.00    +0.000 C 
ATOM     27  C   UNL     1      -9.748  11.938 139.695  0.00  0.00    +0.000 C 
BRANCH  26  28
ATOM     28  C   UNL     1     -10.930  14.015 140.357  0.00  0.00    +0.000 C 
BRANCH  28  29
ATOM     29  C   UNL     1     -10.469  15.132 139.478  0.00  0.00    +0.000 C 
ATOM     30  C   UNL     1     -11.305  15.544 138.292  0.00  0.00    +0.000 C 
ATOM     31  C   UNL     1     -11.189  16.452 139.488  0.00  0.00    +0.000 C 
ENDBRANCH  28  29
BRANCH  28  32
ATOM     32  O   UNL     1     -11.225  14.528 141.645  0.00  0.00    +0.000 OA
ATOM     33  H   UNL     1     -10.543  15.193 141.829  0.00  0.00    +0.000 HD
ENDBRANCH  28  32
ENDBRANCH  26  28
ENDBRANCH  24  27
ENDBRANCH   1  24
TORSDOF 8
ENDMDL
MODEL 8
REMARK VINA RESULT:      -7.4      2.658      4.752
REMARK  Name = Calcipotriol
REMARK  10 active torsions:
REMARK  status: ('A' for Active; 'I' for Inactive)
REMARK    1  A    between atoms: O_1  and  C_2
REMARK    2  A    between atoms: C_2  and  C_3
REMARK    3  A    between atoms: C_2  and  C_30
REMARK    4  A    between atoms: C_4  and  C_5
REMARK    5  A    between atoms: C_5  and  C_6
REMARK    6  A    between atoms: C_5  and  C_7
REMARK    7  A    between atoms: C_17  and  C_18
REMARK    8  A    between atoms: C_19  and  C_20
REMARK    9  A    between atoms: C_23  and  O_24
REMARK   10  A    between atoms: C_26  and  O_27
REMARK                            x       y       z     vdW  Elec       q    Type
REMARK                         _______ _______ _______ _____ _____    ______ ____
ROOT
ATOM      1  C   UNL     1      -6.206  -1.424 128.000  0.00  0.00    +0.000 C 
ATOM      2  C   UNL     1      -7.345  -2.480 127.861  0.00  0.00    +0.000 C 
ATOM      3  C   UNL     1      -7.331  -3.340 129.131  0.00  0.00    +0.000 C 
ATOM      4  C   UNL     1      -6.418  -2.560 130.074  0.00  0.00    +0.000 C 
ATOM      5  C   UNL     1      -5.774  -3.176 131.287  0.00  0.00    +0.000 C 
ATOM      6  C   UNL     1      -4.882  -2.175 131.981  0.00  0.00    +0.000 C 
ATOM      7  C   UNL     1      -3.858  -1.477 131.140  0.00  0.00    +0.000 C 
ATOM      8  C   UNL     1      -4.528  -0.903 129.912  0.00  0.00    +0.000 C 
ATOM      9  C   UNL     1      -5.327  -1.980 129.145  0.00  0.00    +0.000 C 
ATOM     10  C   UNL     1      -4.365  -3.091 128.646  0.00  0.00    +0.000 C 
ATOM     11  C   UNL     1      -6.012  -4.407 131.745  0.00  0.00    +0.000 C 
ENDROOT
BRANCH  11  12
ATOM     12  C   UNL     1      -5.586  -4.997 133.002  0.00  0.00    +0.000 C 
ATOM     13  C   UNL     1      -6.114  -4.903 134.243  0.00  0.00    +0.000 C 
ATOM     14  C   UNL     1      -5.702  -5.921 135.287  0.00  0.00    +0.000 C 
ATOM     15  C   UNL     1      -5.301  -5.312 136.632  0.00  0.00    +0.000 C 
ATOM     16  C   UNL     1      -6.297  -4.264 137.125  0.00  0.00    +0.000 C 
ATOM     17  C   UNL     1      -6.589  -3.227 136.047  0.00  0.00    +0.000 C 
ATOM     18  C   UNL     1      -7.086  -3.936 134.784  0.00  0.00    +0.000 C 
ATOM     19  C   UNL     1      -8.253  -3.624 134.194  0.00  0.00    +0.000 C 
BRANCH  15  20
ATOM     20  O   UNL     1      -3.990  -4.756 136.555  0.00  0.00    +0.000 OA
ATOM     21  H   UNL     1      -3.486  -5.038 137.338  0.00  0.00    +0.000 HD
ENDBRANCH  15  20
BRANCH  17  22
ATOM     22  O   UNL     1      -7.535  -2.287 136.552  0.00  0.00    +0.000 OA
ATOM     23  H   UNL     1      -7.805  -2.598 137.432  0.00  0.00    +0.000 HD
ENDBRANCH  17  22
ENDBRANCH  11  12
BRANCH   1  24
ATOM     24  C   UNL     1      -5.432  -1.125 126.697  0.00  0.00    +0.000 C 
ATOM     25  C   UNL     1      -5.276   0.380 126.451  0.00  0.00    +0.000 C 
BRANCH  24  27
ATOM     26  C   UNL     1      -6.928  -1.059 124.716  0.00  0.00    +0.000 C 
ATOM     27  C   UNL     1      -6.085  -1.750 125.506  0.00  0.00    +0.000 C 
BRANCH  26  28
ATOM     28  C   UNL     1      -7.534  -1.641 123.497  0.00  0.00    +0.000 C 
BRANCH  28  29
ATOM     29  C   UNL     1      -8.149  -2.976 123.761  0.00  0.00    +0.000 C 
ATOM     30  C   UNL     1      -9.324  -3.087 124.700  0.00  0.00    +0.000 C 
ATOM     31  C   UNL     1      -9.514  -3.304 123.222  0.00  0.00    +0.000 C 
ENDBRANCH  28  29
BRANCH  28  32
ATOM     32  O   UNL     1      -6.491  -1.788 122.547  0.00  0.00    +0.000 OA
ATOM     33  H   UNL     1      -6.109  -0.904 122.433  0.00  0.00    +0.000 HD
ENDBRANCH  28  32
ENDBRANCH  26  28
ENDBRANCH  24  27
ENDBRANCH   1  24
TORSDOF 8
ENDMDL
MODEL 9
REMARK VINA RESULT:      -7.4      5.583      8.264
REMARK  Name = Calcipotriol
REMARK  10 active torsions:
REMARK  status: ('A' for Active; 'I' for Inactive)
REMARK    1  A    between atoms: O_1  and  C_2
REMARK    2  A    between atoms: C_2  and  C_3
REMARK    3  A    between atoms: C_2  and  C_30
REMARK    4  A    between atoms: C_4  and  C_5
REMARK    5  A    between atoms: C_5  and  C_6
REMARK    6  A    between atoms: C_5  and  C_7
REMARK    7  A    between atoms: C_17  and  C_18
REMARK    8  A    between atoms: C_19  and  C_20
REMARK    9  A    between atoms: C_23  and  O_24
REMARK   10  A    between atoms: C_26  and  O_27
REMARK                            x       y       z     vdW  Elec       q    Type
REMARK                         _______ _______ _______ _____ _____    ______ ____
ROOT
ATOM      1  C   UNL     1      -8.024   4.532 130.795  0.00  0.00    +0.000 C 
ATOM      2  C   UNL     1      -9.475   3.979 130.647  0.00  0.00    +0.000 C 
ATOM      3  C   UNL     1      -9.372   2.595 129.993  0.00  0.00    +0.000 C 
ATOM      4  C   UNL     1      -7.884   2.272 130.084  0.00  0.00    +0.000 C 
ATOM      5  C   UNL     1      -7.221   1.217 129.238  0.00  0.00    +0.000 C 
ATOM      6  C   UNL     1      -5.736   1.174 129.510  0.00  0.00    +0.000 C 
ATOM      7  C   UNL     1      -4.989   2.469 129.416  0.00  0.00    +0.000 C 
ATOM      8  C   UNL     1      -5.698   3.515 130.244  0.00  0.00    +0.000 C 
ATOM      9  C   UNL     1      -7.189   3.634 129.853  0.00  0.00    +0.000 C 
ATOM     10  C   UNL     1      -7.310   4.082 128.373  0.00  0.00    +0.000 C 
ATOM     11  C   UNL     1      -7.855   0.375 128.419  0.00  0.00    +0.000 C 
ENDROOT
BRANCH  11  12
ATOM     12  C   UNL     1      -7.316  -0.784 127.728  0.00  0.00    +0.000 C 
ATOM     13  C   UNL     1      -6.659  -0.880 126.551  0.00  0.00    +0.000 C 
ATOM     14  C   UNL     1      -5.875  -2.143 126.257  0.00  0.00    +0.000 C 
ATOM     15  C   UNL     1      -6.139  -2.736 124.872  0.00  0.00    +0.000 C 
ATOM     16  C   UNL     1      -6.092  -1.687 123.763  0.00  0.00    +0.000 C 
ATOM     17  C   UNL     1      -6.974  -0.490 124.094  0.00  0.00    +0.000 C 
ATOM     18  C   UNL     1      -6.554   0.091 125.446  0.00  0.00    +0.000 C 
ATOM     19  C   UNL     1      -6.216   1.382 125.603  0.00  0.00    +0.000 C 
BRANCH  15  20
ATOM     20  O   UNL     1      -7.390  -3.423 124.854  0.00  0.00    +0.000 OA
ATOM     21  H   UNL     1      -8.102  -2.776 125.004  0.00  0.00    +0.000 HD
ENDBRANCH  15  20
BRANCH  17  22
ATOM     22  O   UNL     1      -6.879   0.463 123.037  0.00  0.00    +0.000 OA
ATOM     23  H   UNL     1      -7.446   1.213 123.277  0.00  0.00    +0.000 HD
ENDBRANCH  17  22
ENDBRANCH  11  12
BRANCH   1  24
ATOM     24  C   UNL     1      -7.873   6.045 130.525  0.00  0.00    +0.000 C 
ATOM     25  C   UNL     1      -6.988   6.733 131.570  0.00  0.00    +0.000 C 
BRANCH  24  27
ATOM     26  C   UNL     1      -9.600   7.416 129.385  0.00  0.00    +0.000 C 
ATOM     27  C   UNL     1      -9.197   6.737 130.475  0.00  0.00    +0.000 C 
BRANCH  26  28
ATOM     28  C   UNL     1     -10.932   8.055 129.292  0.00  0.00    +0.000 C 
BRANCH  28  29
ATOM     29  C   UNL     1     -12.032   7.046 129.217  0.00  0.00    +0.000 C 
ATOM     30  C   UNL     1     -13.180   7.118 130.193  0.00  0.00    +0.000 C 
ATOM     31  C   UNL     1     -13.400   7.448 128.740  0.00  0.00    +0.000 C 
ENDBRANCH  28  29
BRANCH  28  32
ATOM     32  O   UNL     1     -10.935   8.834 128.107  0.00  0.00    +0.000 OA
ATOM     33  H   UNL     1     -10.654   9.723 128.374  0.00  0.00    +0.000 HD
ENDBRANCH  28  32
ENDBRANCH  26  28
ENDBRANCH  24  27
ENDBRANCH   1  24
TORSDOF 8
ENDMDL
