MODEL 1
REMARK VINA RESULT:      -7.9      0.000      0.000
REMARK  Name = Calcitriol
REMARK  13 active torsions:
REMARK  status: ('A' for Active; 'I' for Inactive)
REMARK    1  A    between atoms: C_1  and  C_2
REMARK    2  A    between atoms: C_2  and  C_3
REMARK    3  A    between atoms: C_2  and  C_10
REMARK    4  A    between atoms: C_3  and  C_4
REMARK    5  A    between atoms: C_4  and  C_5
REMARK    6  A    between atoms: C_5  and  C_6
REMARK    7  A    between atoms: C_6  and  C_7
REMARK    8  A    between atoms: C_6  and  C_8
REMARK    9  A    between atoms: C_6  and  O_9
REMARK   10  A    between atoms: C_20  and  C_21
REMARK   11  A    between atoms: C_22  and  C_23
REMARK   12  A    between atoms: C_26  and  O_27
REMARK   13  A    between atoms: C_29  and  O_30
REMARK                            x       y       z     vdW  Elec       q    Type
REMARK                         _______ _______ _______ _____ _____    ______ ____
ROOT
ATOM      1  C   UNL     1      -6.858  -2.290 125.273  0.00  0.00    +0.000 C 
ATOM      2  C   UNL     1      -5.607  -1.449 125.649  0.00  0.00    +0.000 C 
ATOM      3  C   UNL     1      -5.666  -1.237 127.164  0.00  0.00    +0.000 C 
ATOM      4  C   UNL     1      -6.597  -2.354 127.641  0.00  0.00    +0.000 C 
ATOM      5  C   UNL     1      -7.275  -2.339 128.972  0.00  0.00    +0.000 C 
ATOM      6  C   UNL     1      -8.243  -3.502 129.115  0.00  0.00    +0.000 C 
ATOM      7  C   UNL     1      -9.249  -3.746 128.017  0.00  0.00    +0.000 C 
ATOM      8  C   UNL     1      -8.533  -3.693 126.674  0.00  0.00    +0.000 C 
ATOM      9  C   UNL     1      -7.696  -2.391 126.576  0.00  0.00    +0.000 C 
ATOM     10  C   UNL     1      -8.680  -1.235 126.829  0.00  0.00    +0.000 C 
ATOM     11  C   UNL     1      -7.024  -1.432 129.949  0.00  0.00    +0.000 C 
ENDROOT
BRANCH  11  12
ATOM     12  C   UNL     1      -7.452  -1.546 131.321  0.00  0.00    +0.000 C 
ATOM     13  C   UNL     1      -6.816  -2.202 132.325  0.00  0.00    +0.000 C 
ATOM     14  C   UNL     1      -7.268  -2.027 133.752  0.00  0.00    +0.000 C 
ATOM     15  C   UNL     1      -7.483  -3.351 134.496  0.00  0.00    +0.000 C 
ATOM     16  C   UNL     1      -6.334  -4.340 134.300  0.00  0.00    +0.000 C 
ATOM     17  C   UNL     1      -6.006  -4.519 132.826  0.00  0.00    +0.000 C 
ATOM     18  C   UNL     1      -5.694  -3.154 132.208  0.00  0.00    +0.000 C 
ATOM     19  C   UNL     1      -4.569  -2.907 131.506  0.00  0.00    +0.000 C 
BRANCH  15  20
ATOM     20  O   UNL     1      -8.725  -3.945 134.112  0.00  0.00    +0.000 OA
ATOM     21  H   UNL     1      -9.363  -3.838 134.840  0.00  0.00    +0.000 HD
ENDBRANCH  15  20
BRANCH  17  22
ATOM     22  O   UNL     1      -4.933  -5.444 132.680  0.00  0.00    +0.000 OA
ATOM     23  H   UNL     1      -5.303  -6.248 132.281  0.00  0.00    +0.000 HD
ENDBRANCH  17  22
ENDBRANCH  11  12
BRANCH   1  25
ATOM     24  C   UNL     1      -8.283  -2.909 123.284  0.00  0.00    +0.000 C 
ATOM     25  C   UNL     1      -7.613  -1.761 124.036  0.00  0.00    +0.000 C 
BRANCH  25  26
ATOM     26  C   UNL     1      -6.697  -1.017 123.041  0.00  0.00    +0.000 C 
BRANCH  26  27
ATOM     27  C   UNL     1      -7.034   0.456 122.973  0.00  0.00    +0.000 C 
BRANCH  27  28
ATOM     28  C   UNL     1      -8.065   0.846 124.022  0.00  0.00    +0.000 C 
BRANCH  28  29
ATOM     29  C   UNL     1      -9.240   1.602 123.381  0.00  0.00    +0.000 C 
ATOM     30  C   UNL     1      -8.711   2.733 122.496  0.00  0.00    +0.000 C 
ATOM     31  C   UNL     1     -10.164   0.681 122.571  0.00  0.00    +0.000 C 
BRANCH  29  32
ATOM     32  O   UNL     1     -10.025   2.166 124.433  0.00  0.00    +0.000 OA
ATOM     33  H   UNL     1     -10.514   1.440 124.857  0.00  0.00    +0.000 HD
ENDBRANCH  29  32
ENDBRANCH  28  29
ENDBRANCH  27  28
ENDBRANCH  26  27
ENDBRANCH  25  26
ENDBRANCH   1  25
TORSDOF 9
ENDMDL
MODEL 2
REMARK VINA RESULT:      -7.9      2.755      3.571
REMARK  Name = Calcitriol
REMARK  13 active torsions:
REMARK  status: ('A' for Active; 'I' for Inactive)
REMARK    1  A    between atoms: C_1  and  C_2
REMARK    2  A    between atoms: C_2  and  C_3
REMARK    3  A    between atoms: C_2  and  C_10
REMARK    4  A    between atoms: C_3  and  C_4
REMARK    5  A    between atoms: C_4  and  C_5
REMARK    6  A    between atoms: C_5  and  C_6
REMARK    7  A    between atoms: C_6  and  C_7
REMARK    8  A    between atoms: C_6  and  C_8
REMARK    9  A    between atoms: C_6  and  O_9
REMARK   10  A    between atoms: C_20  and  C_21
REMARK   11  A    between atoms: C_22  and  C_23
REMARK   12  A    between atoms: C_26  and  O_27
REMARK   13  A    between atoms: C_29  and  O_30
REMARK                            x       y       z     vdW  Elec       q    Type
REMARK                         _______ _______ _______ _____ _____    ______ ____
ROOT
ATOM      1  C   UNL     1      -7.762  -2.670 124.707  0.00  0.00    +0.000 C 
ATOM      2  C   UNL     1      -6.449  -2.020 124.192  0.00  0.00    +0.000 C 
ATOM      3  C   UNL     1      -5.671  -1.573 125.433  0.00  0.00    +0.000 C 
ATOM      4  C   UNL     1      -6.277  -2.419 126.554  0.00  0.00    +0.000 C 
ATOM      5  C   UNL     1      -6.133  -2.079 128.002  0.00  0.00    +0.000 C 
ATOM      6  C   UNL     1      -6.954  -3.014 128.876  0.00  0.00    +0.000 C 
ATOM      7  C   UNL     1      -8.406  -3.237 128.532  0.00  0.00    +0.000 C 
ATOM      8  C   UNL     1      -8.520  -3.519 127.040  0.00  0.00    +0.000 C 
ATOM      9  C   UNL     1      -7.776  -2.419 126.239  0.00  0.00    +0.000 C 
ATOM     10  C   UNL     1      -8.385  -1.080 126.692  0.00  0.00    +0.000 C 
ATOM     11  C   UNL     1      -5.333  -1.095 128.481  0.00  0.00    +0.000 C 
ENDROOT
BRANCH  11  12
ATOM     12  C   UNL     1      -4.965  -0.920 129.864  0.00  0.00    +0.000 C 
ATOM     13  C   UNL     1      -5.619  -0.186 130.799  0.00  0.00    +0.000 C 
ATOM     14  C   UNL     1      -5.241  -0.298 132.254  0.00  0.00    +0.000 C 
ATOM     15  C   UNL     1      -5.007   1.057 132.934  0.00  0.00    +0.000 C 
ATOM     16  C   UNL     1      -6.104   2.077 132.629  0.00  0.00    +0.000 C 
ATOM     17  C   UNL     1      -6.356   2.185 131.134  0.00  0.00    +0.000 C 
ATOM     18  C   UNL     1      -6.695   0.801 130.577  0.00  0.00    +0.000 C 
ATOM     19  C   UNL     1      -7.795   0.558 129.835  0.00  0.00    +0.000 C 
BRANCH  15  20
ATOM     20  O   UNL     1      -3.725   1.581 132.579  0.00  0.00    +0.000 OA
ATOM     21  H   UNL     1      -3.178   0.858 132.224  0.00  0.00    +0.000 HD
ENDBRANCH  15  20
BRANCH  17  22
ATOM     22  O   UNL     1      -7.383   3.141 130.886  0.00  0.00    +0.000 OA
ATOM     23  H   UNL     1      -7.393   3.305 129.929  0.00  0.00    +0.000 HD
ENDBRANCH  17  22
ENDBRANCH  11  12
BRANCH   1  25
ATOM     24  C   UNL     1      -9.751  -3.405 123.336  0.00  0.00    +0.000 C 
ATOM     25  C   UNL     1      -9.023  -2.208 123.947  0.00  0.00    +0.000 C 
BRANCH  25  26
ATOM     26  C   UNL     1      -8.712  -1.214 122.807  0.00  0.00    +0.000 C 
BRANCH  26  27
ATOM     27  C   UNL     1      -9.676  -0.049 122.811  0.00  0.00    +0.000 C 
BRANCH  27  28
ATOM     28  C   UNL     1      -9.595   0.744 124.107  0.00  0.00    +0.000 C 
BRANCH  28  29
ATOM     29  C   UNL     1      -8.794   2.041 123.908  0.00  0.00    +0.000 C 
ATOM     30  C   UNL     1      -7.337   1.821 124.320  0.00  0.00    +0.000 C 
ATOM     31  C   UNL     1      -8.865   2.563 122.465  0.00  0.00    +0.000 C 
BRANCH  29  32
ATOM     32  O   UNL     1      -9.367   3.045 124.747  0.00  0.00    +0.000 OA
ATOM     33  H   UNL     1      -9.868   2.593 125.446  0.00  0.00    +0.000 HD
ENDBRANCH  29  32
ENDBRANCH  28  29
ENDBRANCH  27  28
ENDBRANCH  26  27
ENDBRANCH  25  26
ENDBRANCH   1  25
TORSDOF 9
ENDMDL
MODEL 3
REMARK VINA RESULT:      -7.7      5.334      7.192
REMARK  Name = Calcitriol
REMARK  13 active torsions:
REMARK  status: ('A' for Active; 'I' for Inactive)
REMARK    1  A    between atoms: C_1  and  C_2
REMARK    2  A    between atoms: C_2  and  C_3
REMARK    3  A    between atoms: C_2  and  C_10
REMARK    4  A    between atoms: C_3  and  C_4
REMARK    5  A    between atoms: C_4  and  C_5
REMARK    6  A    between atoms: C_5  and  C_6
REMARK    7  A    between atoms: C_6  and  C_7
REMARK    8  A    between atoms: C_6  and  C_8
REMARK    9  A    between atoms: C_6  and  O_9
REMARK   10  A    between atoms: C_20  and  C_21
REMARK   11  A    between atoms: C_22  and  C_23
REMARK   12  A    between atoms: C_26  and  O_27
REMARK   13  A    between atoms: C_29  and  O_30
REMARK                            x       y       z     vdW  Elec       q    Type
REMARK                         _______ _______ _______ _____ _____    ______ ____
ROOT
ATOM      1  C   UNL     1      -8.536   4.463 131.984  0.00  0.00    +0.000 C 
ATOM      2  C   UNL     1      -9.357   3.671 133.039  0.00  0.00    +0.000 C 
ATOM      3  C   UNL     1      -9.205   2.190 132.683  0.00  0.00    +0.000 C 
ATOM      4  C   UNL     1      -7.942   2.161 131.820  0.00  0.00    +0.000 C 
ATOM      5  C   UNL     1      -7.597   1.023 130.916  0.00  0.00    +0.000 C 
ATOM      6  C   UNL     1      -6.364   1.331 130.082  0.00  0.00    +0.000 C 
ATOM      7  C   UNL     1      -6.308   2.635 129.327  0.00  0.00    +0.000 C 
ATOM      8  C   UNL     1      -6.725   3.763 130.262  0.00  0.00    +0.000 C 
ATOM      9  C   UNL     1      -8.073   3.409 130.943  0.00  0.00    +0.000 C 
ATOM     10  C   UNL     1      -9.061   3.120 129.800  0.00  0.00    +0.000 C 
ATOM     11  C   UNL     1      -8.268  -0.155 130.878  0.00  0.00    +0.000 C 
ENDROOT
BRANCH  11  12
ATOM     12  C   UNL     1      -7.806  -1.356 130.227  0.00  0.00    +0.000 C 
ATOM     13  C   UNL     1      -7.397  -2.505 130.822  0.00  0.00    +0.000 C 
ATOM     14  C   UNL     1      -7.173  -3.747 129.999  0.00  0.00    +0.000 C 
ATOM     15  C   UNL     1      -5.818  -4.419 130.256  0.00  0.00    +0.000 C 
ATOM     16  C   UNL     1      -5.493  -4.561 131.743  0.00  0.00    +0.000 C 
ATOM     17  C   UNL     1      -5.663  -3.240 132.474  0.00  0.00    +0.000 C 
ATOM     18  C   UNL     1      -7.084  -2.716 132.249  0.00  0.00    +0.000 C 
ATOM     19  C   UNL     1      -7.899  -2.351 133.259  0.00  0.00    +0.000 C 
BRANCH  15  20
ATOM     20  O   UNL     1      -4.774  -3.712 129.582  0.00  0.00    +0.000 OA
ATOM     21  H   UNL     1      -3.919  -4.115 129.818  0.00  0.00    +0.000 HD
ENDBRANCH  15  20
BRANCH  17  22
ATOM     22  O   UNL     1      -5.355  -3.409 133.854  0.00  0.00    +0.000 OA
ATOM     23  H   UNL     1      -4.667  -4.092 133.910  0.00  0.00    +0.000 HD
ENDBRANCH  17  22
ENDBRANCH  11  12
BRANCH   1  25
ATOM     24  C   UNL     1      -8.318   6.854 131.204  0.00  0.00    +0.000 C 
ATOM     25  C   UNL     1      -9.280   5.685 131.407  0.00  0.00    +0.000 C 
BRANCH  25  26
ATOM     26  C   UNL     1     -10.431   6.175 132.312  0.00  0.00    +0.000 C 
BRANCH  26  27
ATOM     27  C   UNL     1     -11.696   6.414 131.518  0.00  0.00    +0.000 C 
BRANCH  27  28
ATOM     28  C   UNL     1     -11.587   5.858 130.105  0.00  0.00    +0.000 C 
BRANCH  28  29
ATOM     29  C   UNL     1     -11.852   6.956 129.062  0.00  0.00    +0.000 C 
ATOM     30  C   UNL     1     -12.484   8.174 129.737  0.00  0.00    +0.000 C 
ATOM     31  C   UNL     1     -10.583   7.368 128.303  0.00  0.00    +0.000 C 
BRANCH  29  32
ATOM     32  O   UNL     1     -12.767   6.433 128.098  0.00  0.00    +0.000 OA
ATOM     33  H   UNL     1     -13.301   7.174 127.766  0.00  0.00    +0.000 HD
ENDBRANCH  29  32
ENDBRANCH  28  29
ENDBRANCH  27  28
ENDBRANCH  26  27
ENDBRANCH  25  26
ENDBRANCH   1  25
TORSDOF 9
ENDMDL
MODEL 4
REMARK VINA RESULT:      -7.6      5.614      8.147
REMARK  Name = Calcitriol
REMARK  13 active torsions:
REMARK  status: ('A' for Active; 'I' for Inactive)
REMARK    1  A    between atoms: C_1  and  C_2
REMARK    2  A    between atoms: C_2  and  C_3
REMARK    3  A    between atoms: C_2  and  C_10
REMARK    4  A    between atoms: C_3  and  C_4
REMARK    5  A    between atoms: C_4  and  C_5
REMARK    6  A    between atoms: C_5  and  C_6
REMARK    7  A    between atoms: C_6  and  C_7
REMARK    8  A    between atoms: C_6  and  C_8
REMARK    9  A    between atoms: C_6  and  O_9
REMARK   10  A    between atoms: C_20  and  C_21
REMARK   11  A    between atoms: C_22  and  C_23
REMARK   12  A    between atoms: C_26  and  O_27
REMARK   13  A    between atoms: C_29  and  O_30
REMARK                            x       y       z     vdW  Elec       q    Type
REMARK                         _______ _______ _______ _____ _____    ______ ____
ROOT
ATOM      1  C   UNL     1      -4.909   4.038 128.444  0.00  0.00    +0.000 C 
ATOM      2  C   UNL     1      -5.096   4.562 126.994  0.00  0.00    +0.000 C 
ATOM      3  C   UNL     1      -6.052   3.588 126.302  0.00  0.00    +0.000 C 
ATOM      4  C   UNL     1      -6.758   2.895 127.469  0.00  0.00    +0.000 C 
ATOM      5  C   UNL     1      -7.492   1.601 127.327  0.00  0.00    +0.000 C 
ATOM      6  C   UNL     1      -7.969   1.084 128.674  0.00  0.00    +0.000 C 
ATOM      7  C   UNL     1      -6.981   1.004 129.811  0.00  0.00    +0.000 C 
ATOM      8  C   UNL     1      -6.210   2.316 129.886  0.00  0.00    +0.000 C 
ATOM      9  C   UNL     1      -5.638   2.668 128.487  0.00  0.00    +0.000 C 
ATOM     10  C   UNL     1      -4.802   1.452 128.053  0.00  0.00    +0.000 C 
ATOM     11  C   UNL     1      -7.744   0.990 126.143  0.00  0.00    +0.000 C 
ENDROOT
BRANCH  11  12
ATOM     12  C   UNL     1      -8.668  -0.099 125.949  0.00  0.00    +0.000 C 
ATOM     13  C   UNL     1      -8.370  -1.419 125.854  0.00  0.00    +0.000 C 
ATOM     14  C   UNL     1      -9.469  -2.450 125.891  0.00  0.00    +0.000 C 
ATOM     15  C   UNL     1      -9.394  -3.471 124.749  0.00  0.00    +0.000 C 
ATOM     16  C   UNL     1      -7.987  -4.034 124.541  0.00  0.00    +0.000 C 
ATOM     17  C   UNL     1      -6.959  -2.920 124.428  0.00  0.00    +0.000 C 
ATOM     18  C   UNL     1      -7.038  -2.030 125.670  0.00  0.00    +0.000 C 
ATOM     19  C   UNL     1      -5.962  -1.726 126.424  0.00  0.00    +0.000 C 
BRANCH  15  20
ATOM     20  O   UNL     1      -9.888  -2.901 123.535  0.00  0.00    +0.000 OA
ATOM     21  H   UNL     1     -10.515  -2.189 123.755  0.00  0.00    +0.000 HD
ENDBRANCH  15  20
BRANCH  17  22
ATOM     22  O   UNL     1      -5.663  -3.478 124.237  0.00  0.00    +0.000 OA
ATOM     23  H   UNL     1      -5.759  -4.212 123.608  0.00  0.00    +0.000 HD
ENDBRANCH  17  22
ENDBRANCH  11  12
BRANCH   1  25
ATOM     24  C   UNL     1      -3.356   4.228 130.427  0.00  0.00    +0.000 C 
ATOM     25  C   UNL     1      -3.439   4.024 128.915  0.00  0.00    +0.000 C 
BRANCH  25  26
ATOM     26  C   UNL     1      -2.579   5.116 128.244  0.00  0.00    +0.000 C 
BRANCH  26  27
ATOM     27  C   UNL     1      -2.395   6.310 129.152  0.00  0.00    +0.000 C 
BRANCH  27  28
ATOM     28  C   UNL     1      -3.308   7.463 128.759  0.00  0.00    +0.000 C 
BRANCH  28  29
ATOM     29  C   UNL     1      -3.975   8.082 129.998  0.00  0.00    +0.000 C 
ATOM     30  C   UNL     1      -5.263   7.327 130.328  0.00  0.00    +0.000 C 
ATOM     31  C   UNL     1      -3.045   8.104 131.220  0.00  0.00    +0.000 C 
BRANCH  29  32
ATOM     32  O   UNL     1      -4.297   9.439 129.691  0.00  0.00    +0.000 OA
ATOM     33  H   UNL     1      -3.515   9.843 129.280  0.00  0.00    +0.000 HD
ENDBRANCH  29  32
ENDBRANCH  28  29
ENDBRANCH  27  28
ENDBRANCH  26  27
ENDBRANCH  25  26
ENDBRANCH   1  25
TORSDOF 9
ENDMDL
MODEL 5
REMARK VINA RESULT:      -7.4      3.369      4.554
REMARK  Name = Calcitriol
REMARK  13 active torsions:
REMARK  status: ('A' for Active; 'I' for Inactive)
REMARK    1  A    between atoms: C_1  and  C_2
REMARK    2  A    between atoms: C_2  and  C_3
REMARK    3  A    between atoms: C_2  and  C_10
REMARK    4  A    between atoms: C_3  and  C_4
REMARK    5  A    between atoms: C_4  and  C_5
REMARK    6  A    between atoms: C_5  and  C_6
REMARK    7  A    between atoms: C_6  and  C_7
REMARK    8  A    between atoms: C_6  and  C_8
REMARK    9  A    between atoms: C_6  and  O_9
REMARK   10  A    between atoms: C_20  and  C_21
REMARK   11  A    between atoms: C_22  and  C_23
REMARK   12  A    between atoms: C_26  and  O_27
REMARK   13  A    between atoms: C_29  and  O_30
REMARK                            x       y       z     vdW  Elec       q    Type
REMARK                         _______ _______ _______ _____ _____    ______ ____
ROOT
ATOM      1  C   UNL     1      -5.994  -1.855 125.863  0.00  0.00    +0.000 C 
ATOM      2  C   UNL     1      -5.257  -0.487 125.862  0.00  0.00    +0.000 C 
ATOM      3  C   UNL     1      -5.759   0.275 127.091  0.00  0.00    +0.000 C 
ATOM      4  C   UNL     1      -6.319  -0.830 127.989  0.00  0.00    +0.000 C 
ATOM      5  C   UNL     1      -7.264  -0.565 129.115  0.00  0.00    +0.000 C 
ATOM      6  C   UNL     1      -7.760  -1.860 129.739  0.00  0.00    +0.000 C 
ATOM      7  C   UNL     1      -8.309  -2.935 128.835  0.00  0.00    +0.000 C 
ATOM      8  C   UNL     1      -7.351  -3.134 127.668  0.00  0.00    +0.000 C 
ATOM      9  C   UNL     1      -7.035  -1.765 127.010  0.00  0.00    +0.000 C 
ATOM     10  C   UNL     1      -8.395  -1.152 126.633  0.00  0.00    +0.000 C 
ATOM     11  C   UNL     1      -7.600   0.672 129.558  0.00  0.00    +0.000 C 
ENDROOT
BRANCH  11  12
ATOM     12  C   UNL     1      -8.284   0.955 130.796  0.00  0.00    +0.000 C 
ATOM     13  C   UNL     1      -8.799   2.146 131.192  0.00  0.00    +0.000 C 
ATOM     14  C   UNL     1      -9.691   2.222 132.405  0.00  0.00    +0.000 C 
ATOM     15  C   UNL     1      -9.278   3.309 133.404  0.00  0.00    +0.000 C 
ATOM     16  C   UNL     1      -8.980   4.653 132.738  0.00  0.00    +0.000 C 
ATOM     17  C   UNL     1      -8.006   4.490 131.583  0.00  0.00    +0.000 C 
ATOM     18  C   UNL     1      -8.567   3.473 130.587  0.00  0.00    +0.000 C 
ATOM     19  C   UNL     1      -8.692   3.729 129.268  0.00  0.00    +0.000 C 
BRANCH  15  20
ATOM     20  O   UNL     1      -8.159   2.877 134.180  0.00  0.00    +0.000 OA
ATOM     21  H   UNL     1      -8.479   2.559 135.043  0.00  0.00    +0.000 HD
ENDBRANCH  15  20
BRANCH  17  22
ATOM     22  O   UNL     1      -7.751   5.758 130.985  0.00  0.00    +0.000 OA
ATOM     23  H   UNL     1      -8.217   5.770 130.134  0.00  0.00    +0.000 HD
ENDBRANCH  17  22
ENDBRANCH  11  12
BRANCH   1  25
ATOM     24  C   UNL     1      -5.773  -3.432 123.903  0.00  0.00    +0.000 C 
ATOM     25  C   UNL     1      -6.558  -2.257 124.484  0.00  0.00    +0.000 C 
BRANCH  25  26
ATOM     26  C   UNL     1      -6.514  -1.108 123.454  0.00  0.00    +0.000 C 
BRANCH  26  27
ATOM     27  C   UNL     1      -7.876  -0.477 123.271  0.00  0.00    +0.000 C 
BRANCH  27  28
ATOM     28  C   UNL     1      -7.902   0.961 123.771  0.00  0.00    +0.000 C 
BRANCH  28  29
ATOM     29  C   UNL     1      -9.170   1.685 123.291  0.00  0.00    +0.000 C 
ATOM     30  C   UNL     1      -8.792   2.817 122.334  0.00  0.00    +0.000 C 
ATOM     31  C   UNL     1     -10.174   0.736 122.621  0.00  0.00    +0.000 C 
BRANCH  29  32
ATOM     32  O   UNL     1      -9.818   2.242 124.436  0.00  0.00    +0.000 OA
ATOM     33  H   UNL     1      -9.390   1.871 125.226  0.00  0.00    +0.000 HD
ENDBRANCH  29  32
ENDBRANCH  28  29
ENDBRANCH  27  28
ENDBRANCH  26  27
ENDBRANCH  25  26
ENDBRANCH   1  25
TORSDOF 9
ENDMDL
MODEL 6
REMARK VINA RESULT:      -7.3      5.220      8.265
REMARK  Name = Calcitriol
REMARK  13 active torsions:
REMARK  status: ('A' for Active; 'I' for Inactive)
REMARK    1  A    between atoms: C_1  and  C_2
REMARK    2  A    between atoms: C_2  and  C_3
REMARK    3  A    between atoms: C_2  and  C_10
REMARK    4  A    between atoms: C_3  and  C_4
REMARK    5  A    between atoms: C_4  and  C_5
REMARK    6  A    between atoms: C_5  and  C_6
REMARK    7  A    between atoms: C_6  and  C_7
REMARK    8  A    between atoms: C_6  and  C_8
REMARK    9  A    between atoms: C_6  and  O_9
REMARK   10  A    between atoms: C_20  and  C_21
REMARK   11  A    between atoms: C_22  and  C_23
REMARK   12  A    between atoms: C_26  and  O_27
REMARK   13  A    between atoms: C_29  and  O_30
REMARK                            x       y       z     vdW  Elec       q    Type
REMARK                         _______ _______ _______ _____ _____    ______ ____
ROOT
ATOM      1  C   UNL     1      -8.149   3.658 132.239  0.00  0.00    +0.000 C 
ATOM      2  C   UNL     1      -9.189   2.679 132.849  0.00  0.00    +0.000 C 
ATOM      3  C   UNL     1      -9.083   1.379 132.046  0.00  0.00    +0.000 C 
ATOM      4  C   UNL     1      -7.697   1.472 131.404  0.00  0.00    +0.000 C 
ATOM      5  C   UNL     1      -7.285   0.646 130.230  0.00  0.00    +0.000 C 
ATOM      6  C   UNL     1      -5.911   1.050 129.722  0.00  0.00    +0.000 C 
ATOM      7  C   UNL     1      -5.637   2.510 129.457  0.00  0.00    +0.000 C 
ATOM      8  C   UNL     1      -6.126   3.326 130.647  0.00  0.00    +0.000 C 
ATOM      9  C   UNL     1      -7.591   2.940 130.981  0.00  0.00    +0.000 C 
ATOM     10  C   UNL     1      -8.391   3.149 129.683  0.00  0.00    +0.000 C 
ATOM     11  C   UNL     1      -8.020  -0.370 129.712  0.00  0.00    +0.000 C 
ENDROOT
BRANCH  11  12
ATOM     12  C   UNL     1      -7.540  -1.349 128.769  0.00  0.00    +0.000 C 
ATOM     13  C   UNL     1      -7.547  -1.254 127.416  0.00  0.00    +0.000 C 
ATOM     14  C   UNL     1      -6.792  -2.257 126.581  0.00  0.00    +0.000 C 
ATOM     15  C   UNL     1      -7.629  -2.868 125.449  0.00  0.00    +0.000 C 
ATOM     16  C   UNL     1      -8.413  -1.824 124.653  0.00  0.00    +0.000 C 
ATOM     17  C   UNL     1      -9.210  -0.914 125.573  0.00  0.00    +0.000 C 
ATOM     18  C   UNL     1      -8.265  -0.265 126.587  0.00  0.00    +0.000 C 
ATOM     19  C   UNL     1      -8.212   1.067 126.793  0.00  0.00    +0.000 C 
BRANCH  15  20
ATOM     20  O   UNL     1      -8.510  -3.869 125.963  0.00  0.00    +0.000 OA
ATOM     21  H   UNL     1      -7.994  -4.672 126.157  0.00  0.00    +0.000 HD
ENDBRANCH  15  20
BRANCH  17  22
ATOM     22  O   UNL     1      -9.925   0.045 124.800  0.00  0.00    +0.000 OA
ATOM     23  H   UNL     1     -10.863  -0.040 125.038  0.00  0.00    +0.000 HD
ENDBRANCH  17  22
ENDBRANCH  11  12
BRANCH   1  25
ATOM     24  C   UNL     1      -7.643   6.129 132.352  0.00  0.00    +0.000 C 
ATOM     25  C   UNL     1      -8.698   5.080 132.004  0.00  0.00    +0.000 C 
BRANCH  25  26
ATOM     26  C   UNL     1      -9.960   5.387 132.839  0.00  0.00    +0.000 C 
BRANCH  26  27
ATOM     27  C   UNL     1     -10.854   6.388 132.144  0.00  0.00    +0.000 C 
BRANCH  27  28
ATOM     28  C   UNL     1     -11.446   5.818 130.862  0.00  0.00    +0.000 C 
BRANCH  28  29
ATOM     29  C   UNL     1     -11.445   6.871 129.742  0.00  0.00    +0.000 C 
ATOM     30  C   UNL     1     -12.507   7.934 130.025  0.00  0.00    +0.000 C 
ATOM     31  C   UNL     1     -10.071   7.530 129.553  0.00  0.00    +0.000 C 
BRANCH  29  32
ATOM     32  O   UNL     1     -11.765   6.209 128.517  0.00  0.00    +0.000 OA
ATOM     33  H   UNL     1     -12.247   6.841 127.958  0.00  0.00    +0.000 HD
ENDBRANCH  29  32
ENDBRANCH  28  29
ENDBRANCH  27  28
ENDBRANCH  26  27
ENDBRANCH  25  26
ENDBRANCH   1  25
TORSDOF 9
ENDMDL
MODEL 7
REMARK VINA RESULT:      -7.3      5.681      9.300
REMARK  Name = Calcitriol
REMARK  13 active torsions:
REMARK  status: ('A' for Active; 'I' for Inactive)
REMARK    1  A    between atoms: C_1  and  C_2
REMARK    2  A    between atoms: C_2  and  C_3
REMARK    3  A    between atoms: C_2  and  C_10
REMARK    4  A    between atoms: C_3  and  C_4
REMARK    5  A    between atoms: C_4  and  C_5
REMARK    6  A    between atoms: C_5  and  C_6
REMARK    7  A    between atoms: C_6  and  C_7
REMARK    8  A    between atoms: C_6  and  C_8
REMARK    9  A    between atoms: C_6  and  O_9
REMARK   10  A    between atoms: C_20  and  C_21
REMARK   11  A    between atoms: C_22  and  C_23
REMARK   12  A    between atoms: C_26  and  O_27
REMARK   13  A    between atoms: C_29  and  O_30
REMARK                            x       y       z     vdW  Elec       q    Type
REMARK                         _______ _______ _______ _____ _____    ______ ____
ROOT
ATOM      1  C   UNL     1      -3.639   4.720 130.303  0.00  0.00    +0.000 C 
ATOM      2  C   UNL     1      -4.283   3.697 131.279  0.00  0.00    +0.000 C 
ATOM      3  C   UNL     1      -4.813   2.550 130.415  0.00  0.00    +0.000 C 
ATOM      4  C   UNL     1      -4.020   2.691 129.114  0.00  0.00    +0.000 C 
ATOM      5  C   UNL     1      -4.443   2.058 127.828  0.00  0.00    +0.000 C 
ATOM      6  C   UNL     1      -3.543   2.484 126.678  0.00  0.00    +0.000 C 
ATOM      7  C   UNL     1      -3.274   3.954 126.476  0.00  0.00    +0.000 C 
ATOM      8  C   UNL     1      -2.907   4.577 127.817  0.00  0.00    +0.000 C 
ATOM      9  C   UNL     1      -3.975   4.203 128.879  0.00  0.00    +0.000 C 
ATOM     10  C   UNL     1      -5.325   4.663 128.302  0.00  0.00    +0.000 C 
ATOM     11  C   UNL     1      -5.467   1.178 127.708  0.00  0.00    +0.000 C 
ENDROOT
BRANCH  11  12
ATOM     12  C   UNL     1      -5.726   0.354 126.554  0.00  0.00    +0.000 C 
ATOM     13  C   UNL     1      -6.455   0.685 125.458  0.00  0.00    +0.000 C 
ATOM     14  C   UNL     1      -6.431  -0.198 124.236  0.00  0.00    +0.000 C 
ATOM     15  C   UNL     1      -7.827  -0.553 123.708  0.00  0.00    +0.000 C 
ATOM     16  C   UNL     1      -8.757   0.657 123.613  0.00  0.00    +0.000 C 
ATOM     17  C   UNL     1      -8.783   1.435 124.918  0.00  0.00    +0.000 C 
ATOM     18  C   UNL     1      -7.356   1.842 125.293  0.00  0.00    +0.000 C 
ATOM     19  C   UNL     1      -7.008   3.112 125.584  0.00  0.00    +0.000 C 
BRANCH  15  20
ATOM     20  O   UNL     1      -8.419  -1.577 124.509  0.00  0.00    +0.000 OA
ATOM     21  H   UNL     1      -8.899  -2.193 123.928  0.00  0.00    +0.000 HD
ENDBRANCH  15  20
BRANCH  17  22
ATOM     22  O   UNL     1      -9.656   2.554 124.794  0.00  0.00    +0.000 OA
ATOM     23  H   UNL     1      -9.424   3.176 125.503  0.00  0.00    +0.000 HD
ENDBRANCH  17  22
ENDBRANCH  11  12
BRANCH   1  25
ATOM     24  C   UNL     1      -2.789   7.061 130.719  0.00  0.00    +0.000 C 
ATOM     25  C   UNL     1      -4.034   6.184 130.589  0.00  0.00    +0.000 C 
BRANCH  25  26
ATOM     26  C   UNL     1      -4.861   6.346 131.883  0.00  0.00    +0.000 C 
BRANCH  26  27
ATOM     27  C   UNL     1      -6.318   6.608 131.578  0.00  0.00    +0.000 C 
BRANCH  27  28
ATOM     28  C   UNL     1      -7.237   5.822 132.503  0.00  0.00    +0.000 C 
BRANCH  28  29
ATOM     29  C   UNL     1      -8.694   5.892 132.018  0.00  0.00    +0.000 C 
ATOM     30  C   UNL     1      -8.817   6.910 130.883  0.00  0.00    +0.000 C 
ATOM     31  C   UNL     1      -9.233   4.527 131.568  0.00  0.00    +0.000 C 
BRANCH  29  32
ATOM     32  O   UNL     1      -9.501   6.322 133.115  0.00  0.00    +0.000 OA
ATOM     33  H   UNL     1      -8.999   6.161 133.932  0.00  0.00    +0.000 HD
ENDBRANCH  29  32
ENDBRANCH  28  29
ENDBRANCH  27  28
ENDBRANCH  26  27
ENDBRANCH  25  26
ENDBRANCH   1  25
TORSDOF 9
ENDMDL
MODEL 8
REMARK VINA RESULT:      -7.2     10.333     12.353
REMARK  Name = Calcitriol
REMARK  13 active torsions:
REMARK  status: ('A' for Active; 'I' for Inactive)
REMARK    1  A    between atoms: C_1  and  C_2
REMARK    2  A    between atoms: C_2  and  C_3
REMARK    3  A    between atoms: C_2  and  C_10
REMARK    4  A    between atoms: C_3  and  C_4
REMARK    5  A    between atoms: C_4  and  C_5
REMARK    6  A    between atoms: C_5  and  C_6
REMARK    7  A    between atoms: C_6  and  C_7
REMARK    8  A    between atoms: C_6  and  C_8
REMARK    9  A    between atoms: C_6  and  O_9
REMARK   10  A    between atoms: C_20  and  C_21
REMARK   11  A    between atoms: C_22  and  C_23
REMARK   12  A    between atoms: C_26  and  O_27
REMARK   13  A    between atoms: C_29  and  O_30
REMARK                            x       y       z     vdW  Elec       q    Type
REMARK                         _______ _______ _______ _____ _____    ______ ____
ROOT
ATOM      1  C   UNL     1      -1.990   7.214 133.377  0.00  0.00    +0.000 C 
ATOM      2  C   UNL     1      -2.848   7.189 134.672  0.00  0.00    +0.000 C 
ATOM      3  C   UNL     1      -4.102   6.374 134.344  0.00  0.00    +0.000 C 
ATOM      4  C   UNL     1      -3.684   5.557 133.120  0.00  0.00    +0.000 C 
ATOM      5  C   UNL     1      -4.664   4.907 132.198  0.00  0.00    +0.000 C 
ATOM      6  C   UNL     1      -3.969   4.286 130.998  0.00  0.00    +0.000 C 
ATOM      7  C   UNL     1      -2.989   5.124 130.214  0.00  0.00    +0.000 C 
ATOM      8  C   UNL     1      -2.047   5.819 131.189  0.00  0.00    +0.000 C 
ATOM      9  C   UNL     1      -2.869   6.548 132.284  0.00  0.00    +0.000 C 
ATOM     10  C   UNL     1      -3.831   7.487 131.537  0.00  0.00    +0.000 C 
ATOM     11  C   UNL     1      -5.999   4.836 132.427  0.00  0.00    +0.000 C 
ENDROOT
BRANCH  11  12
ATOM     12  C   UNL     1      -6.923   3.994 131.709  0.00  0.00    +0.000 C 
ATOM     13  C   UNL     1      -8.050   4.382 131.061  0.00  0.00    +0.000 C 
ATOM     14  C   UNL     1      -8.777   3.418 130.159  0.00  0.00    +0.000 C 
ATOM     15  C   UNL     1     -10.282   3.328 130.441  0.00  0.00    +0.000 C 
ATOM     16  C   UNL     1     -10.946   4.697 130.592  0.00  0.00    +0.000 C 
ATOM     17  C   UNL     1     -10.194   5.567 131.585  0.00  0.00    +0.000 C 
ATOM     18  C   UNL     1      -8.732   5.689 131.147  0.00  0.00    +0.000 C 
ATOM     19  C   UNL     1      -8.106   6.874 131.002  0.00  0.00    +0.000 C 
BRANCH  15  20
ATOM     20  O   UNL     1     -10.527   2.524 131.597  0.00  0.00    +0.000 OA
ATOM     21  H   UNL     1     -10.542   1.587 131.332  0.00  0.00    +0.000 HD
ENDBRANCH  15  20
BRANCH  17  22
ATOM     22  O   UNL     1     -10.837   6.834 131.699  0.00  0.00    +0.000 OA
ATOM     23  H   UNL     1     -11.123   7.089 130.808  0.00  0.00    +0.000 HD
ENDBRANCH  17  22
ENDBRANCH  11  12
BRANCH   1  25
ATOM     24  C   UNL     1       0.046   8.707 133.383  0.00  0.00    +0.000 C 
ATOM     25  C   UNL     1      -1.437   8.611 133.026  0.00  0.00    +0.000 C 
BRANCH  25  26
ATOM     26  C   UNL     1      -2.173   9.755 133.756  0.00  0.00    +0.000 C 
BRANCH  26  27
ATOM     27  C   UNL     1      -1.452  11.073 133.586  0.00  0.00    +0.000 C 
BRANCH  27  28
ATOM     28  C   UNL     1      -1.649  11.646 132.190  0.00  0.00    +0.000 C 
BRANCH  28  29
ATOM     29  C   UNL     1      -0.856  12.952 132.017  0.00  0.00    +0.000 C 
ATOM     30  C   UNL     1      -0.222  13.357 133.348  0.00  0.00    +0.000 C 
ATOM     31  C   UNL     1       0.219  12.849 130.926  0.00  0.00    +0.000 C 
BRANCH  29  32
ATOM     32  O   UNL     1      -1.771  13.970 131.610  0.00  0.00    +0.000 OA
ATOM     33  H   UNL     1      -2.451  14.050 132.301  0.00  0.00    +0.000 HD
ENDBRANCH  29  32
ENDBRANCH  28  29
ENDBRANCH  27  28
ENDBRANCH  26  27
ENDBRANCH  25  26
ENDBRANCH   1  25
TORSDOF 9
ENDMDL
MODEL 9
REMARK VINA RESULT:      -7.1      5.133      8.514
REMARK  Name = Calcitriol
REMARK  13 active torsions:
REMARK  status: ('A' for Active; 'I' for Inactive)
REMARK    1  A    between atoms: C_1  and  C_2
REMARK    2  A    between atoms: C_2  and  C_3
REMARK    3  A    between atoms: C_2  and  C_10
REMARK    4  A    between atoms: C_3  and  C_4
REMARK    5  A    between atoms: C_4  and  C_5
REMARK    6  A    between atoms: C_5  and  C_6
REMARK    7  A    between atoms: C_6  and  C_7
REMARK    8  A    between atoms: C_6  and  C_8
REMARK    9  A    between atoms: C_6  and  O_9
REMARK   10  A    between atoms: C_20  and  C_21
REMARK   11  A    between atoms: C_22  and  C_23
REMARK   12  A    between atoms: C_26  and  O_27
REMARK   13  A    between atoms: C_29  and  O_30
REMARK                            x       y       z     vdW  Elec       q    Type
REMARK                         _______ _______ _______ _____ _____    ______ ____
ROOT
ATOM      1  C   UNL     1      -8.342   3.800 129.755  0.00  0.00    +0.000 C 
ATOM      2  C   UNL     1      -8.194   4.665 128.473  0.00  0.00    +0.000 C 
ATOM      3  C   UNL     1      -7.671   3.730 127.379  0.00  0.00    +0.000 C 
ATOM      4  C   UNL     1      -8.035   2.338 127.899  0.00  0.00    +0.000 C 
ATOM      5  C   UNL     1      -7.401   1.085 127.390  0.00  0.00    +0.000 C 
ATOM      6  C   UNL     1      -7.854  -0.129 128.185  0.00  0.00    +0.000 C 
ATOM      7  C   UNL     1      -7.778  -0.078 129.691  0.00  0.00    +0.000 C 
ATOM      8  C   UNL     1      -8.377   1.238 130.169  0.00  0.00    +0.000 C 
ATOM      9  C   UNL     1      -7.731   2.419 129.398  0.00  0.00    +0.000 C 
ATOM     10  C   UNL     1      -6.213   2.285 129.611  0.00  0.00    +0.000 C 
ATOM     11  C   UNL     1      -6.566   1.029 126.323  0.00  0.00    +0.000 C 
ENDROOT
BRANCH  11  12
ATOM     12  C   UNL     1      -6.158  -0.178 125.647  0.00  0.00    +0.000 C 
ATOM     13  C   UNL     1      -6.623  -0.649 124.462  0.00  0.00    +0.000 C 
ATOM     14  C   UNL     1      -5.926  -1.797 123.776  0.00  0.00    +0.000 C 
ATOM     15  C   UNL     1      -6.874  -2.924 123.348  0.00  0.00    +0.000 C 
ATOM     16  C   UNL     1      -8.129  -2.414 122.639  0.00  0.00    +0.000 C 
ATOM     17  C   UNL     1      -8.811  -1.321 123.446  0.00  0.00    +0.000 C 
ATOM     18  C   UNL     1      -7.813  -0.194 123.717  0.00  0.00    +0.000 C 
ATOM     19  C   UNL     1      -8.071   1.099 123.433  0.00  0.00    +0.000 C 
BRANCH  15  20
ATOM     20  O   UNL     1      -7.229  -3.733 124.471  0.00  0.00    +0.000 OA
ATOM     21  H   UNL     1      -7.144  -4.671 124.223  0.00  0.00    +0.000 HD
ENDBRANCH  15  20
BRANCH  17  22
ATOM     22  O   UNL     1      -9.974  -0.869 122.757  0.00  0.00    +0.000 OA
ATOM     23  H   UNL     1     -10.741  -1.147 123.282  0.00  0.00    +0.000 HD
ENDBRANCH  17  22
ENDBRANCH  11  12
BRANCH   1  25
ATOM     24  C   UNL     1      -8.654   4.158 132.235  0.00  0.00    +0.000 C 
ATOM     25  C   UNL     1      -7.775   4.470 131.025  0.00  0.00    +0.000 C 
BRANCH  25  26
ATOM     26  C   UNL     1      -7.670   6.005 130.903  0.00  0.00    +0.000 C 
BRANCH  26  27
ATOM     27  C   UNL     1      -8.954   6.683 131.323  0.00  0.00    +0.000 C 
BRANCH  27  28
ATOM     28  C   UNL     1      -9.696   7.272 130.131  0.00  0.00    +0.000 C 
BRANCH  28  29
ATOM     29  C   UNL     1     -11.195   6.940 130.199  0.00  0.00    +0.000 C 
ATOM     30  C   UNL     1     -11.565   6.488 131.613  0.00  0.00    +0.000 C 
ATOM     31  C   UNL     1     -12.081   8.118 129.770  0.00  0.00    +0.000 C 
BRANCH  29  32
ATOM     32  O   UNL     1     -11.449   5.870 129.288  0.00  0.00    +0.000 OA
ATOM     33  H   UNL     1     -12.255   5.414 129.585  0.00  0.00    +0.000 HD
ENDBRANCH  29  32
ENDBRANCH  28  29
ENDBRANCH  27  28
ENDBRANCH  26  27
ENDBRANCH  25  26
ENDBRANCH   1  25
TORSDOF 9
ENDMDL
