MODEL 1
REMARK VINA RESULT:      -6.7      0.000      0.000
REMARK  Name = Calcium glubionate anhydrous
REMARK  30 active torsions:
REMARK  status: ('A' for Active; 'I' for Inactive)
REMARK    1  A    between atoms: O_1  and  C_2
REMARK    2  A    between atoms: C_2  and  C_3
REMARK    3  A    between atoms: C_3  and  O_4
REMARK    4  A    between atoms: C_3  and  C_5
REMARK    5  A    between atoms: C_5  and  O_6
REMARK    6  A    between atoms: C_5  and  C_7
REMARK    7  A    between atoms: C_7  and  O_8
REMARK    8  A    between atoms: C_7  and  C_9
REMARK    9  A    between atoms: C_9  and  O_10
REMARK   10  A    between atoms: C_9  and  C_11
REMARK   11  A    between atoms: C_11  and  O_13
REMARK   12  A    between atoms: O_13  and  CA_14
REMARK   13  A    between atoms: CA_14  and  O_15
REMARK   14  A    between atoms: O_15  and  C_16
REMARK   15  A    between atoms: C_16  and  C_18
REMARK   16  A    between atoms: C_18  and  O_19
REMARK   17  A    between atoms: C_18  and  C_20
REMARK   18  A    between atoms: C_20  and  O_21
REMARK   19  A    between atoms: C_20  and  C_22
REMARK   20  A    between atoms: C_22  and  O_23
REMARK   21  A    between atoms: C_22  and  C_35
REMARK   22  A    between atoms: O_23  and  C_24
REMARK   23  A    between atoms: C_26  and  C_27
REMARK   24  A    between atoms: C_27  and  O_28
REMARK   25  A    between atoms: C_29  and  O_30
REMARK   26  A    between atoms: C_31  and  O_32
REMARK   27  A    between atoms: C_33  and  O_34
REMARK   28  A    between atoms: C_35  and  O_36
REMARK   29  A    between atoms: C_35  and  C_37
REMARK   30  A    between atoms: C_37  and  O_38
REMARK                            x       y       z     vdW  Elec       q    Type
REMARK                         _______ _______ _______ _____ _____    ______ ____
ROOT
ATOM      1  C   UNL     1      -9.285   4.218 130.031  0.00  0.00    +0.000 C 
ENDROOT
BRANCH   1   2
ATOM      2  O   UNL     1     -10.222   3.154 129.971  0.00  0.00    +0.000 OA
ATOM      3  H   UNL     1     -10.270   2.716 130.835  0.00  0.00    +0.000 HD
ENDBRANCH   1   2
BRANCH   1   4
ATOM      4  C   UNL     1      -8.443   4.226 128.765  0.00  0.00    +0.000 C 
BRANCH   4   5
ATOM      5  O   UNL     1      -8.843   5.307 127.937  0.00  0.00    +0.000 OA
ATOM      6  H   UNL     1      -8.678   5.083 127.008  0.00  0.00    +0.000 HD
ENDBRANCH   4   5
BRANCH   4   7
ATOM      7  C   UNL     1      -6.977   4.384 129.132  0.00  0.00    +0.000 C 
ATOM      8  O   UNL     1      -6.277   5.395 129.451  0.00  0.00    +0.000 OA
BRANCH   7   9
ATOM      9  O   UNL     1      -6.436   3.077 129.260  0.00  0.00    +0.000 OA
BRANCH   9  10
ATOM     10 CA   UNL     1      -6.893   1.407 127.568  0.00  0.00    +0.000 Ca
BRANCH  10  11
ATOM     11  O   UNL     1      -7.349  -0.262 125.877  0.00  0.00    +0.000 OA
BRANCH  11  12
ATOM     12  C   UNL     1      -8.595  -0.262 125.198  0.00  0.00    +0.000 C 
ATOM     13  O   UNL     1      -9.581  -0.907 125.675  0.00  0.00    +0.000 OA
BRANCH  12  14
ATOM     14  C   UNL     1      -8.751   0.512 123.898  0.00  0.00    +0.000 C 
BRANCH  14  15
ATOM     15  O   UNL     1      -7.528   0.484 123.179  0.00  0.00    +0.000 OA
ATOM     16  H   UNL     1      -6.797   0.719 123.774  0.00  0.00    +0.000 HD
ENDBRANCH  14  15
BRANCH  14  17
ATOM     17  C   UNL     1      -9.122   1.954 124.208  0.00  0.00    +0.000 C 
BRANCH  17  18
ATOM     18  O   UNL     1      -9.385   2.087 125.598  0.00  0.00    +0.000 OA
ATOM     19  H   UNL     1      -9.437   1.208 126.002  0.00  0.00    +0.000 HD
ENDBRANCH  17  18
BRANCH  17  20
ATOM     20  C   UNL     1      -7.971   2.868 123.821  0.00  0.00    +0.000 C 
BRANCH  20  21
ATOM     21  O   UNL     1      -8.299   3.814 122.814  0.00  0.00    +0.000 OA
ATOM     22  H   UNL     1      -9.079   3.509 122.326  0.00  0.00    +0.000 HD
ENDBRANCH  20  21
BRANCH  20  23
ATOM     23  C   UNL     1      -7.798   3.585 125.152  0.00  0.00    +0.000 C 
BRANCH  23  24
ATOM     24  O   UNL     1      -8.305   4.907 125.045  0.00  0.00    +0.000 OA
ATOM     25  H   UNL     1      -7.652   5.469 124.601  0.00  0.00    +0.000 HD
ENDBRANCH  23  24
BRANCH  23  26
ATOM     26  C   UNL     1      -6.323   3.636 125.512  0.00  0.00    +0.000 C 
BRANCH  26  27
ATOM     27  O   UNL     1      -5.801   2.316 125.558  0.00  0.00    +0.000 OA
ATOM     28  H   UNL     1      -5.667   1.989 124.655  0.00  0.00    +0.000 HD
ENDBRANCH  26  27
ENDBRANCH  23  26
ENDBRANCH  20  23
ENDBRANCH  17  20
ENDBRANCH  14  17
ENDBRANCH  12  14
ENDBRANCH  11  12
ENDBRANCH  10  11
ENDBRANCH   9  10
ENDBRANCH   7   9
ENDBRANCH   4   7
ENDBRANCH   1   4
BRANCH   1  29
ATOM     29  C   UNL     1      -9.992   5.541 130.279  0.00  0.00    +0.000 C 
BRANCH  29  30
ATOM     30  C   UNL     1      -9.368   6.232 131.482  0.00  0.00    +0.000 C 
BRANCH  30  31
ATOM     31  O   UNL     1      -8.207   6.939 131.071  0.00  0.00    +0.000 OA
ATOM     32  H   UNL     1      -7.654   6.361 130.521  0.00  0.00    +0.000 HD
ENDBRANCH  30  31
BRANCH  30  33
ATOM     33  C   UNL     1      -8.985   5.191 132.521  0.00  0.00    +0.000 C 
BRANCH  33  34
ATOM     34  O   UNL     1     -10.121   4.875 133.313  0.00  0.00    +0.000 OA
ATOM     35  H   UNL     1      -9.834   4.431 134.127  0.00  0.00    +0.000 HD
ENDBRANCH  33  34
ENDBRANCH  30  33
ENDBRANCH  29  30
BRANCH  29  36
ATOM     36  O   UNL     1     -11.368   5.302 130.533  0.00  0.00    +0.000 OA
BRANCH  36  37
ATOM     37  C   UNL     1     -12.160   6.190 129.759  0.00  0.00    +0.000 C 
ATOM     38  O   UNL     1     -11.592   6.331 128.496  0.00  0.00    +0.000 OA
ATOM     39  C   UNL     1     -12.418   7.146 127.628  0.00  0.00    +0.000 C 
ATOM     40  C   UNL     1     -12.437   8.545 128.206  0.00  0.00    +0.000 C 
ATOM     41  C   UNL     1     -13.016   8.477 129.626  0.00  0.00    +0.000 C 
ATOM     42  C   UNL     1     -12.221   7.533 130.472  0.00  0.00    +0.000 C 
BRANCH  40  43
ATOM     43  O   UNL     1     -11.089   9.042 128.249  0.00  0.00    +0.000 OA
ATOM     44  H   UNL     1     -10.591   8.565 128.931  0.00  0.00    +0.000 HD
ENDBRANCH  40  43
BRANCH  41  45
ATOM     45  O   UNL     1     -13.031   9.770 130.240  0.00  0.00    +0.000 OA
ATOM     46  H   UNL     1     -13.518   9.725 131.078  0.00  0.00    +0.000 HD
ENDBRANCH  41  45
BRANCH  42  47
ATOM     47  O   UNL     1     -12.915   7.414 131.718  0.00  0.00    +0.000 OA
ATOM     48  H   UNL     1     -13.870   7.406 131.555  0.00  0.00    +0.000 HD
ENDBRANCH  42  47
BRANCH  39  49
ATOM     49  C   UNL     1     -11.864   7.157 126.212  0.00  0.00    +0.000 C 
BRANCH  49  50
ATOM     50  O   UNL     1     -10.549   6.621 126.173  0.00  0.00    +0.000 OA
ATOM     51  H   UNL     1     -10.582   5.671 126.363  0.00  0.00    +0.000 HD
ENDBRANCH  49  50
ENDBRANCH  39  49
ENDBRANCH  36  37
ENDBRANCH  29  36
ENDBRANCH   1  29
TORSDOF 30
ENDMDL
MODEL 2
REMARK VINA RESULT:      -6.6      1.422      3.111
REMARK  Name = Calcium glubionate anhydrous
REMARK  30 active torsions:
REMARK  status: ('A' for Active; 'I' for Inactive)
REMARK    1  A    between atoms: O_1  and  C_2
REMARK    2  A    between atoms: C_2  and  C_3
REMARK    3  A    between atoms: C_3  and  O_4
REMARK    4  A    between atoms: C_3  and  C_5
REMARK    5  A    between atoms: C_5  and  O_6
REMARK    6  A    between atoms: C_5  and  C_7
REMARK    7  A    between atoms: C_7  and  O_8
REMARK    8  A    between atoms: C_7  and  C_9
REMARK    9  A    between atoms: C_9  and  O_10
REMARK   10  A    between atoms: C_9  and  C_11
REMARK   11  A    between atoms: C_11  and  O_13
REMARK   12  A    between atoms: O_13  and  CA_14
REMARK   13  A    between atoms: CA_14  and  O_15
REMARK   14  A    between atoms: O_15  and  C_16
REMARK   15  A    between atoms: C_16  and  C_18
REMARK   16  A    between atoms: C_18  and  O_19
REMARK   17  A    between atoms: C_18  and  C_20
REMARK   18  A    between atoms: C_20  and  O_21
REMARK   19  A    between atoms: C_20  and  C_22
REMARK   20  A    between atoms: C_22  and  O_23
REMARK   21  A    between atoms: C_22  and  C_35
REMARK   22  A    between atoms: O_23  and  C_24
REMARK   23  A    between atoms: C_26  and  C_27
REMARK   24  A    between atoms: C_27  and  O_28
REMARK   25  A    between atoms: C_29  and  O_30
REMARK   26  A    between atoms: C_31  and  O_32
REMARK   27  A    between atoms: C_33  and  O_34
REMARK   28  A    between atoms: C_35  and  O_36
REMARK   29  A    between atoms: C_35  and  C_37
REMARK   30  A    between atoms: C_37  and  O_38
REMARK                            x       y       z     vdW  Elec       q    Type
REMARK                         _______ _______ _______ _____ _____    ______ ____
ROOT
ATOM      1  C   UNL     1     -10.060   3.795 130.258  0.00  0.00    +0.000 C 
ENDROOT
BRANCH   1   2
ATOM      2  O   UNL     1      -9.355   3.607 129.040  0.00  0.00    +0.000 OA
ATOM      3  H   UNL     1      -8.505   4.072 129.083  0.00  0.00    +0.000 HD
ENDBRANCH   1   2
BRANCH   1   4
ATOM      4  C   UNL     1      -9.319   3.097 131.386  0.00  0.00    +0.000 C 
BRANCH   4   5
ATOM      5  O   UNL     1     -10.237   2.336 132.156  0.00  0.00    +0.000 OA
ATOM      6  H   UNL     1      -9.943   2.309 133.080  0.00  0.00    +0.000 HD
ENDBRANCH   4   5
BRANCH   4   7
ATOM      7  C   UNL     1      -8.259   2.175 130.805  0.00  0.00    +0.000 C 
ATOM      8  O   UNL     1      -8.321   1.018 130.286  0.00  0.00    +0.000 OA
BRANCH   7   9
ATOM      9  O   UNL     1      -7.050   2.918 130.742  0.00  0.00    +0.000 OA
BRANCH   9  10
ATOM     10 CA   UNL     1      -6.063   3.444 128.596  0.00  0.00    +0.000 Ca
BRANCH  10  11
ATOM     11  O   UNL     1      -5.077   3.970 126.450  0.00  0.00    +0.000 OA
BRANCH  11  12
ATOM     12  C   UNL     1      -5.904   4.371 125.368  0.00  0.00    +0.000 C 
ATOM     13  O   UNL     1      -5.448   4.364 124.182  0.00  0.00    +0.000 OA
BRANCH  12  14
ATOM     14  C   UNL     1      -7.337   4.807 125.628  0.00  0.00    +0.000 C 
BRANCH  14  15
ATOM     15  O   UNL     1      -7.576   4.838 127.027  0.00  0.00    +0.000 OA
ATOM     16  H   UNL     1      -6.729   4.846 127.501  0.00  0.00    +0.000 HD
ENDBRANCH  14  15
BRANCH  14  17
ATOM     17  C   UNL     1      -8.293   3.823 124.973  0.00  0.00    +0.000 C 
BRANCH  17  18
ATOM     18  O   UNL     1      -8.093   3.832 123.567  0.00  0.00    +0.000 OA
ATOM     19  H   UNL     1      -8.776   3.293 123.140  0.00  0.00    +0.000 HD
ENDBRANCH  17  18
BRANCH  17  20
ATOM     20  C   UNL     1      -8.031   2.425 125.512  0.00  0.00    +0.000 C 
BRANCH  20  21
ATOM     21  O   UNL     1      -8.617   2.177 126.782  0.00  0.00    +0.000 OA
ATOM     22  H   UNL     1      -7.979   1.717 127.348  0.00  0.00    +0.000 HD
ENDBRANCH  20  21
BRANCH  20  23
ATOM     23  C   UNL     1      -8.774   1.633 124.448  0.00  0.00    +0.000 C 
BRANCH  23  24
ATOM     24  O   UNL     1     -10.144   2.006 124.451  0.00  0.00    +0.000 OA
ATOM     25  H   UNL     1     -10.582   1.622 125.226  0.00  0.00    +0.000 HD
ENDBRANCH  23  24
BRANCH  23  26
ATOM     26  C   UNL     1      -8.653   0.148 124.746  0.00  0.00    +0.000 C 
BRANCH  26  27
ATOM     27  O   UNL     1      -9.786  -0.533 124.228  0.00  0.00    +0.000 OA
ATOM     28  H   UNL     1     -10.399  -0.739 124.951  0.00  0.00    +0.000 HD
ENDBRANCH  26  27
ENDBRANCH  23  26
ENDBRANCH  20  23
ENDBRANCH  17  20
ENDBRANCH  14  17
ENDBRANCH  12  14
ENDBRANCH  11  12
ENDBRANCH  10  11
ENDBRANCH   9  10
ENDBRANCH   7   9
ENDBRANCH   4   7
ENDBRANCH   1   4
BRANCH   1  29
ATOM     29  C   UNL     1     -10.284   5.275 130.523  0.00  0.00    +0.000 C 
BRANCH  29  30
ATOM     30  C   UNL     1      -9.387   5.727 131.665  0.00  0.00    +0.000 C 
BRANCH  30  31
ATOM     31  O   UNL     1     -10.180   6.316 132.685  0.00  0.00    +0.000 OA
ATOM     32  H   UNL     1     -11.017   5.832 132.764  0.00  0.00    +0.000 HD
ENDBRANCH  30  31
BRANCH  30  33
ATOM     33  C   UNL     1      -8.385   6.746 131.150  0.00  0.00    +0.000 C 
BRANCH  33  34
ATOM     34  O   UNL     1      -8.935   7.426 130.031  0.00  0.00    +0.000 OA
ATOM     35  H   UNL     1      -8.222   7.673 129.420  0.00  0.00    +0.000 HD
ENDBRANCH  33  34
ENDBRANCH  30  33
ENDBRANCH  29  30
BRANCH  29  36
ATOM     36  O   UNL     1     -11.642   5.493 130.875  0.00  0.00    +0.000 OA
BRANCH  36  37
ATOM     37  C   UNL     1     -12.249   6.361 129.929  0.00  0.00    +0.000 C 
ATOM     38  O   UNL     1     -11.466   6.406 128.779  0.00  0.00    +0.000 OA
ATOM     39  C   UNL     1     -12.094   7.196 127.738  0.00  0.00    +0.000 C 
ATOM     40  C   UNL     1     -12.148   8.627 128.230  0.00  0.00    +0.000 C 
ATOM     41  C   UNL     1     -12.964   8.664 129.530  0.00  0.00    +0.000 C 
ATOM     42  C   UNL     1     -12.369   7.745 130.550  0.00  0.00    +0.000 C 
BRANCH  40  43
ATOM     43  O   UNL     1     -10.806   9.077 128.480  0.00  0.00    +0.000 OA
ATOM     44  H   UNL     1     -10.770   9.521 129.341  0.00  0.00    +0.000 HD
ENDBRANCH  40  43
BRANCH  41  45
ATOM     45  O   UNL     1     -13.026   9.992 130.063  0.00  0.00    +0.000 OA
ATOM     46  H   UNL     1     -12.188  10.450 129.888  0.00  0.00    +0.000 HD
ENDBRANCH  41  45
BRANCH  42  47
ATOM     47  O   UNL     1     -13.271   7.726 131.660  0.00  0.00    +0.000 OA
ATOM     48  H   UNL     1     -12.876   8.206 132.405  0.00  0.00    +0.000 HD
ENDBRANCH  42  47
BRANCH  39  49
ATOM     49  C   UNL     1     -11.305   7.103 126.441  0.00  0.00    +0.000 C 
BRANCH  49  50
ATOM     50  O   UNL     1      -9.995   6.609 126.674  0.00  0.00    +0.000 OA
ATOM     51  H   UNL     1      -9.453   6.744 125.881  0.00  0.00    +0.000 HD
ENDBRANCH  49  50
ENDBRANCH  39  49
ENDBRANCH  36  37
ENDBRANCH  29  36
ENDBRANCH   1  29
TORSDOF 30
ENDMDL
MODEL 3
REMARK VINA RESULT:      -6.4      2.825      5.282
REMARK  Name = Calcium glubionate anhydrous
REMARK  30 active torsions:
REMARK  status: ('A' for Active; 'I' for Inactive)
REMARK    1  A    between atoms: O_1  and  C_2
REMARK    2  A    between atoms: C_2  and  C_3
REMARK    3  A    between atoms: C_3  and  O_4
REMARK    4  A    between atoms: C_3  and  C_5
REMARK    5  A    between atoms: C_5  and  O_6
REMARK    6  A    between atoms: C_5  and  C_7
REMARK    7  A    between atoms: C_7  and  O_8
REMARK    8  A    between atoms: C_7  and  C_9
REMARK    9  A    between atoms: C_9  and  O_10
REMARK   10  A    between atoms: C_9  and  C_11
REMARK   11  A    between atoms: C_11  and  O_13
REMARK   12  A    between atoms: O_13  and  CA_14
REMARK   13  A    between atoms: CA_14  and  O_15
REMARK   14  A    between atoms: O_15  and  C_16
REMARK   15  A    between atoms: C_16  and  C_18
REMARK   16  A    between atoms: C_18  and  O_19
REMARK   17  A    between atoms: C_18  and  C_20
REMARK   18  A    between atoms: C_20  and  O_21
REMARK   19  A    between atoms: C_20  and  C_22
REMARK   20  A    between atoms: C_22  and  O_23
REMARK   21  A    between atoms: C_22  and  C_35
REMARK   22  A    between atoms: O_23  and  C_24
REMARK   23  A    between atoms: C_26  and  C_27
REMARK   24  A    between atoms: C_27  and  O_28
REMARK   25  A    between atoms: C_29  and  O_30
REMARK   26  A    between atoms: C_31  and  O_32
REMARK   27  A    between atoms: C_33  and  O_34
REMARK   28  A    between atoms: C_35  and  O_36
REMARK   29  A    between atoms: C_35  and  C_37
REMARK   30  A    between atoms: C_37  and  O_38
REMARK                            x       y       z     vdW  Elec       q    Type
REMARK                         _______ _______ _______ _____ _____    ______ ____
ROOT
ATOM      1  C   UNL     1      -9.202   4.173 129.870  0.00  0.00    +0.000 C 
ENDROOT
BRANCH   1   2
ATOM      2  O   UNL     1     -10.169   3.156 130.081  0.00  0.00    +0.000 OA
ATOM      3  H   UNL     1      -9.792   2.463 130.645  0.00  0.00    +0.000 HD
ENDBRANCH   1   2
BRANCH   1   4
ATOM      4  C   UNL     1      -8.613   4.033 128.476  0.00  0.00    +0.000 C 
BRANCH   4   5
ATOM      5  O   UNL     1      -8.625   5.295 127.827  0.00  0.00    +0.000 OA
ATOM      6  H   UNL     1      -9.158   5.920 128.343  0.00  0.00    +0.000 HD
ENDBRANCH   4   5
BRANCH   4   7
ATOM      7  C   UNL     1      -7.183   3.529 128.578  0.00  0.00    +0.000 C 
ATOM      8  O   UNL     1      -6.255   3.401 127.719  0.00  0.00    +0.000 OA
BRANCH   7   9
ATOM      9  O   UNL     1      -6.901   3.349 129.959  0.00  0.00    +0.000 OA
BRANCH   9  10
ATOM     10 CA   UNL     1      -5.475   4.925 131.117  0.00  0.00    +0.000 Ca
BRANCH  10  11
ATOM     11  O   UNL     1      -4.049   6.500 132.276  0.00  0.00    +0.000 OA
BRANCH  11  12
ATOM     12  C   UNL     1      -3.512   7.614 131.581  0.00  0.00    +0.000 C 
ATOM     13  O   UNL     1      -2.698   8.397 132.165  0.00  0.00    +0.000 OA
BRANCH  12  14
ATOM     14  C   UNL     1      -3.909   7.872 130.136  0.00  0.00    +0.000 C 
BRANCH  14  15
ATOM     15  O   UNL     1      -5.280   7.554 129.957  0.00  0.00    +0.000 OA
ATOM     16  H   UNL     1      -5.828   8.203 130.427  0.00  0.00    +0.000 HD
ENDBRANCH  14  15
BRANCH  14  17
ATOM     17  C   UNL     1      -3.064   7.005 129.216  0.00  0.00    +0.000 C 
BRANCH  17  18
ATOM     18  O   UNL     1      -1.906   6.566 129.910  0.00  0.00    +0.000 OA
ATOM     19  H   UNL     1      -2.140   6.352 130.826  0.00  0.00    +0.000 HD
ENDBRANCH  17  18
BRANCH  17  20
ATOM     20  C   UNL     1      -3.875   5.799 128.770  0.00  0.00    +0.000 C 
BRANCH  20  21
ATOM     21  O   UNL     1      -4.498   5.958 127.504  0.00  0.00    +0.000 OA
ATOM     22  H   UNL     1      -4.294   5.193 126.945  0.00  0.00    +0.000 HD
ENDBRANCH  20  21
BRANCH  20  23
ATOM     23  C   UNL     1      -2.737   4.797 128.652  0.00  0.00    +0.000 C 
BRANCH  23  24
ATOM     24  O   UNL     1      -2.160   4.887 127.358  0.00  0.00    +0.000 OA
ATOM     25  H   UNL     1      -1.632   5.698 127.295  0.00  0.00    +0.000 HD
ENDBRANCH  23  24
BRANCH  23  26
ATOM     26  C   UNL     1      -3.275   3.392 128.869  0.00  0.00    +0.000 C 
BRANCH  26  27
ATOM     27  O   UNL     1      -4.060   3.363 130.052  0.00  0.00    +0.000 OA
ATOM     28  H   UNL     1      -3.480   3.280 130.825  0.00  0.00    +0.000 HD
ENDBRANCH  26  27
ENDBRANCH  23  26
ENDBRANCH  20  23
ENDBRANCH  17  20
ENDBRANCH  14  17
ENDBRANCH  12  14
ENDBRANCH  11  12
ENDBRANCH  10  11
ENDBRANCH   9  10
ENDBRANCH   7   9
ENDBRANCH   4   7
ENDBRANCH   1   4
BRANCH   1  29
ATOM     29  C   UNL     1      -9.806   5.546 130.121  0.00  0.00    +0.000 C 
BRANCH  29  30
ATOM     30  C   UNL     1      -8.988   6.274 131.177  0.00  0.00    +0.000 C 
BRANCH  30  31
ATOM     31  O   UNL     1      -7.606   6.146 130.875  0.00  0.00    +0.000 OA
ATOM     32  H   UNL     1      -7.389   5.209 130.745  0.00  0.00    +0.000 HD
ENDBRANCH  30  31
BRANCH  30  33
ATOM     33  C   UNL     1      -9.266   5.666 132.541  0.00  0.00    +0.000 C 
BRANCH  33  34
ATOM     34  O   UNL     1     -10.245   6.444 133.215  0.00  0.00    +0.000 OA
ATOM     35  H   UNL     1     -10.738   5.880 133.832  0.00  0.00    +0.000 HD
ENDBRANCH  33  34
ENDBRANCH  30  33
ENDBRANCH  29  30
BRANCH  29  36
ATOM     36  O   UNL     1     -11.142   5.399 130.578  0.00  0.00    +0.000 OA
BRANCH  36  37
ATOM     37  C   UNL     1     -12.003   6.233 129.816  0.00  0.00    +0.000 C 
ATOM     38  O   UNL     1     -11.463   6.413 128.547  0.00  0.00    +0.000 OA
ATOM     39  C   UNL     1     -12.355   7.171 127.691  0.00  0.00    +0.000 C 
ATOM     40  C   UNL     1     -12.460   8.565 128.272  0.00  0.00    +0.000 C 
ATOM     41  C   UNL     1     -13.013   8.456 129.701  0.00  0.00    +0.000 C 
ATOM     42  C   UNL     1     -12.144   7.568 130.534  0.00  0.00    +0.000 C 
BRANCH  40  43
ATOM     43  O   UNL     1     -11.148   9.151 128.297  0.00  0.00    +0.000 OA
ATOM     44  H   UNL     1     -10.928   9.488 127.415  0.00  0.00    +0.000 HD
ENDBRANCH  40  43
BRANCH  41  45
ATOM     45  O   UNL     1     -13.106   9.745 130.318  0.00  0.00    +0.000 OA
ATOM     46  H   UNL     1     -12.222  10.140 130.376  0.00  0.00    +0.000 HD
ENDBRANCH  41  45
BRANCH  42  47
ATOM     47  O   UNL     1     -12.810   7.401 131.788  0.00  0.00    +0.000 OA
ATOM     48  H   UNL     1     -13.711   7.076 131.634  0.00  0.00    +0.000 HD
ENDBRANCH  42  47
BRANCH  39  49
ATOM     49  C   UNL     1     -11.823   7.221 126.268  0.00  0.00    +0.000 C 
BRANCH  49  50
ATOM     50  O   UNL     1     -10.605   6.501 126.152  0.00  0.00    +0.000 OA
ATOM     51  H   UNL     1     -10.032   6.938 125.502  0.00  0.00    +0.000 HD
ENDBRANCH  49  50
ENDBRANCH  39  49
ENDBRANCH  36  37
ENDBRANCH  29  36
ENDBRANCH   1  29
TORSDOF 30
ENDMDL
MODEL 4
REMARK VINA RESULT:      -6.3      1.321      2.652
REMARK  Name = Calcium glubionate anhydrous
REMARK  30 active torsions:
REMARK  status: ('A' for Active; 'I' for Inactive)
REMARK    1  A    between atoms: O_1  and  C_2
REMARK    2  A    between atoms: C_2  and  C_3
REMARK    3  A    between atoms: C_3  and  O_4
REMARK    4  A    between atoms: C_3  and  C_5
REMARK    5  A    between atoms: C_5  and  O_6
REMARK    6  A    between atoms: C_5  and  C_7
REMARK    7  A    between atoms: C_7  and  O_8
REMARK    8  A    between atoms: C_7  and  C_9
REMARK    9  A    between atoms: C_9  and  O_10
REMARK   10  A    between atoms: C_9  and  C_11
REMARK   11  A    between atoms: C_11  and  O_13
REMARK   12  A    between atoms: O_13  and  CA_14
REMARK   13  A    between atoms: CA_14  and  O_15
REMARK   14  A    between atoms: O_15  and  C_16
REMARK   15  A    between atoms: C_16  and  C_18
REMARK   16  A    between atoms: C_18  and  O_19
REMARK   17  A    between atoms: C_18  and  C_20
REMARK   18  A    between atoms: C_20  and  O_21
REMARK   19  A    between atoms: C_20  and  C_22
REMARK   20  A    between atoms: C_22  and  O_23
REMARK   21  A    between atoms: C_22  and  C_35
REMARK   22  A    between atoms: O_23  and  C_24
REMARK   23  A    between atoms: C_26  and  C_27
REMARK   24  A    between atoms: C_27  and  O_28
REMARK   25  A    between atoms: C_29  and  O_30
REMARK   26  A    between atoms: C_31  and  O_32
REMARK   27  A    between atoms: C_33  and  O_34
REMARK   28  A    between atoms: C_35  and  O_36
REMARK   29  A    between atoms: C_35  and  C_37
REMARK   30  A    between atoms: C_37  and  O_38
REMARK                            x       y       z     vdW  Elec       q    Type
REMARK                         _______ _______ _______ _____ _____    ______ ____
ROOT
ATOM      1  C   UNL     1      -9.992   3.801 130.638  0.00  0.00    +0.000 C 
ENDROOT
BRANCH   1   2
ATOM      2  O   UNL     1     -11.254   3.151 130.609  0.00  0.00    +0.000 OA
ATOM      3  H   UNL     1     -11.749   3.371 131.414  0.00  0.00    +0.000 HD
ENDBRANCH   1   2
BRANCH   1   4
ATOM      4  C   UNL     1      -9.194   3.416 129.403  0.00  0.00    +0.000 C 
BRANCH   4   5
ATOM      5  O   UNL     1      -8.990   4.565 128.595  0.00  0.00    +0.000 OA
ATOM      6  H   UNL     1      -9.818   4.797 128.146  0.00  0.00    +0.000 HD
ENDBRANCH   4   5
BRANCH   4   7
ATOM      7  C   UNL     1      -7.849   2.848 129.825  0.00  0.00    +0.000 C 
ATOM      8  O   UNL     1      -7.231   2.839 130.935  0.00  0.00    +0.000 OA
BRANCH   7   9
ATOM      9  O   UNL     1      -7.363   2.076 128.736  0.00  0.00    +0.000 OA
BRANCH   9  10
ATOM     10 CA   UNL     1      -6.862   3.145 126.623  0.00  0.00    +0.000 Ca
BRANCH  10  11
ATOM     11  O   UNL     1      -6.362   4.214 124.511  0.00  0.00    +0.000 OA
BRANCH  11  12
ATOM     12  C   UNL     1      -6.620   3.533 123.292  0.00  0.00    +0.000 C 
ATOM     13  O   UNL     1      -5.745   3.527 122.369  0.00  0.00    +0.000 OA
BRANCH  12  14
ATOM     14  C   UNL     1      -7.941   2.809 123.091  0.00  0.00    +0.000 C 
BRANCH  14  15
ATOM     15  O   UNL     1      -8.792   3.594 122.270  0.00  0.00    +0.000 OA
ATOM     16  H   UNL     1      -8.414   4.482 122.167  0.00  0.00    +0.000 HD
ENDBRANCH  14  15
BRANCH  14  17
ATOM     17  C   UNL     1      -8.607   2.585 124.440  0.00  0.00    +0.000 C 
BRANCH  17  18
ATOM     18  O   UNL     1      -8.993   3.836 124.991  0.00  0.00    +0.000 OA
ATOM     19  H   UNL     1      -9.317   3.704 125.895  0.00  0.00    +0.000 HD
ENDBRANCH  17  18
BRANCH  17  20
ATOM     20  C   UNL     1      -9.837   1.711 124.259  0.00  0.00    +0.000 C 
BRANCH  20  21
ATOM     21  O   UNL     1      -9.802   0.898 123.095  0.00  0.00    +0.000 OA
ATOM     22  H   UNL     1     -10.490   0.218 123.154  0.00  0.00    +0.000 HD
ENDBRANCH  20  21
BRANCH  20  23
ATOM     23  C   UNL     1      -9.673   0.836 125.492  0.00  0.00    +0.000 C 
BRANCH  23  24
ATOM     24  O   UNL     1      -8.960   1.554 126.489  0.00  0.00    +0.000 OA
ATOM     25  H   UNL     1      -9.585   1.924 127.131  0.00  0.00    +0.000 HD
ENDBRANCH  23  24
BRANCH  23  26
ATOM     26  C   UNL     1      -8.900  -0.419 125.123  0.00  0.00    +0.000 C 
BRANCH  26  27
ATOM     27  O   UNL     1      -9.595  -1.561 125.601  0.00  0.00    +0.000 OA
ATOM     28  H   UNL     1      -9.161  -1.894 126.402  0.00  0.00    +0.000 HD
ENDBRANCH  26  27
ENDBRANCH  23  26
ENDBRANCH  20  23
ENDBRANCH  17  20
ENDBRANCH  14  17
ENDBRANCH  12  14
ENDBRANCH  11  12
ENDBRANCH  10  11
ENDBRANCH   9  10
ENDBRANCH   7   9
ENDBRANCH   4   7
ENDBRANCH   1   4
BRANCH   1  29
ATOM     29  C   UNL     1     -10.167   5.304 130.785  0.00  0.00    +0.000 C 
BRANCH  29  30
ATOM     30  C   UNL     1      -9.246   5.817 131.881  0.00  0.00    +0.000 C 
BRANCH  30  31
ATOM     31  O   UNL     1     -10.019   6.441 132.895  0.00  0.00    +0.000 OA
ATOM     32  H   UNL     1      -9.819   6.031 133.752  0.00  0.00    +0.000 HD
ENDBRANCH  30  31
BRANCH  30  33
ATOM     33  C   UNL     1      -8.273   6.826 131.293  0.00  0.00    +0.000 C 
BRANCH  33  34
ATOM     34  O   UNL     1      -8.795   7.331 130.072  0.00  0.00    +0.000 OA
ATOM     35  H   UNL     1      -8.225   7.053 129.338  0.00  0.00    +0.000 HD
ENDBRANCH  33  34
ENDBRANCH  30  33
ENDBRANCH  29  30
BRANCH  29  36
ATOM     36  O   UNL     1     -11.515   5.592 131.128  0.00  0.00    +0.000 OA
BRANCH  36  37
ATOM     37  C   UNL     1     -12.108   6.387 130.111  0.00  0.00    +0.000 C 
ATOM     38  O   UNL     1     -11.270   6.413 129.001  0.00  0.00    +0.000 OA
ATOM     39  C   UNL     1     -11.876   7.125 127.892  0.00  0.00    +0.000 C 
ATOM     40  C   UNL     1     -12.017   8.573 128.310  0.00  0.00    +0.000 C 
ATOM     41  C   UNL     1     -12.900   8.634 129.564  0.00  0.00    +0.000 C 
ATOM     42  C   UNL     1     -12.320   7.792 130.656  0.00  0.00    +0.000 C 
BRANCH  40  43
ATOM     43  O   UNL     1     -10.710   9.094 128.604  0.00  0.00    +0.000 OA
ATOM     44  H   UNL     1     -10.167   9.075 127.800  0.00  0.00    +0.000 HD
ENDBRANCH  40  43
BRANCH  41  45
ATOM     45  O   UNL     1     -13.045   9.981 130.028  0.00  0.00    +0.000 OA
ATOM     46  H   UNL     1     -13.695  10.445 129.477  0.00  0.00    +0.000 HD
ENDBRANCH  41  45
BRANCH  42  47
ATOM     47  O   UNL     1     -13.276   7.784 131.720  0.00  0.00    +0.000 OA
ATOM     48  H   UNL     1     -14.085   8.232 131.430  0.00  0.00    +0.000 HD
ENDBRANCH  42  47
BRANCH  39  49
ATOM     49  C   UNL     1     -11.018   7.006 126.642  0.00  0.00    +0.000 C 
BRANCH  49  50
ATOM     50  O   UNL     1     -11.781   7.259 125.472  0.00  0.00    +0.000 OA
ATOM     51  H   UNL     1     -12.497   7.880 125.681  0.00  0.00    +0.000 HD
ENDBRANCH  49  50
ENDBRANCH  39  49
ENDBRANCH  36  37
ENDBRANCH  29  36
ENDBRANCH   1  29
TORSDOF 30
ENDMDL
MODEL 5
REMARK VINA RESULT:      -6.3      1.728      3.670
REMARK  Name = Calcium glubionate anhydrous
REMARK  30 active torsions:
REMARK  status: ('A' for Active; 'I' for Inactive)
REMARK    1  A    between atoms: O_1  and  C_2
REMARK    2  A    between atoms: C_2  and  C_3
REMARK    3  A    between atoms: C_3  and  O_4
REMARK    4  A    between atoms: C_3  and  C_5
REMARK    5  A    between atoms: C_5  and  O_6
REMARK    6  A    between atoms: C_5  and  C_7
REMARK    7  A    between atoms: C_7  and  O_8
REMARK    8  A    between atoms: C_7  and  C_9
REMARK    9  A    between atoms: C_9  and  O_10
REMARK   10  A    between atoms: C_9  and  C_11
REMARK   11  A    between atoms: C_11  and  O_13
REMARK   12  A    between atoms: O_13  and  CA_14
REMARK   13  A    between atoms: CA_14  and  O_15
REMARK   14  A    between atoms: O_15  and  C_16
REMARK   15  A    between atoms: C_16  and  C_18
REMARK   16  A    between atoms: C_18  and  O_19
REMARK   17  A    between atoms: C_18  and  C_20
REMARK   18  A    between atoms: C_20  and  O_21
REMARK   19  A    between atoms: C_20  and  C_22
REMARK   20  A    between atoms: C_22  and  O_23
REMARK   21  A    between atoms: C_22  and  C_35
REMARK   22  A    between atoms: O_23  and  C_24
REMARK   23  A    between atoms: C_26  and  C_27
REMARK   24  A    between atoms: C_27  and  O_28
REMARK   25  A    between atoms: C_29  and  O_30
REMARK   26  A    between atoms: C_31  and  O_32
REMARK   27  A    between atoms: C_33  and  O_34
REMARK   28  A    between atoms: C_35  and  O_36
REMARK   29  A    between atoms: C_35  and  C_37
REMARK   30  A    between atoms: C_37  and  O_38
REMARK                            x       y       z     vdW  Elec       q    Type
REMARK                         _______ _______ _______ _____ _____    ______ ____
ROOT
ATOM      1  C   UNL     1      -8.384   6.452 131.506  0.00  0.00    +0.000 C 
ENDROOT
BRANCH   1   2
ATOM      2  O   UNL     1      -8.648   5.818 132.748  0.00  0.00    +0.000 OA
ATOM      3  H   UNL     1      -8.634   4.856 132.629  0.00  0.00    +0.000 HD
ENDBRANCH   1   2
BRANCH   1   4
ATOM      4  C   UNL     1      -6.932   6.224 131.118  0.00  0.00    +0.000 C 
BRANCH   4   5
ATOM      5  O   UNL     1      -6.336   7.464 130.767  0.00  0.00    +0.000 OA
ATOM      6  H   UNL     1      -5.882   7.375 129.914  0.00  0.00    +0.000 HD
ENDBRANCH   4   5
BRANCH   4   7
ATOM      7  C   UNL     1      -6.183   5.616 132.292  0.00  0.00    +0.000 C 
ATOM      8  O   UNL     1      -5.660   6.125 133.332  0.00  0.00    +0.000 OA
BRANCH   7   9
ATOM      9  O   UNL     1      -6.288   4.205 132.168  0.00  0.00    +0.000 OA
BRANCH   9  10
ATOM     10 CA   UNL     1      -6.540   3.198 129.981  0.00  0.00    +0.000 Ca
BRANCH  10  11
ATOM     11  O   UNL     1      -6.791   2.192 127.795  0.00  0.00    +0.000 OA
BRANCH  11  12
ATOM     12  C   UNL     1      -6.041   2.688 126.695  0.00  0.00    +0.000 C 
ATOM     13  O   UNL     1      -5.142   1.966 126.161  0.00  0.00    +0.000 OA
BRANCH  12  14
ATOM     14  C   UNL     1      -6.316   4.082 126.156  0.00  0.00    +0.000 C 
BRANCH  14  15
ATOM     15  O   UNL     1      -7.259   4.737 126.991  0.00  0.00    +0.000 OA
ATOM     16  H   UNL     1      -8.084   4.226 127.010  0.00  0.00    +0.000 HD
ENDBRANCH  14  15
BRANCH  14  17
ATOM     17  C   UNL     1      -6.874   3.980 124.746  0.00  0.00    +0.000 C 
BRANCH  17  18
ATOM     18  O   UNL     1      -5.915   3.361 123.900  0.00  0.00    +0.000 OA
ATOM     19  H   UNL     1      -5.500   2.622 124.370  0.00  0.00    +0.000 HD
ENDBRANCH  17  18
BRANCH  17  20
ATOM     20  C   UNL     1      -8.146   3.147 124.764  0.00  0.00    +0.000 C 
BRANCH  20  21
ATOM     21  O   UNL     1      -9.323   3.896 125.028  0.00  0.00    +0.000 OA
ATOM     22  H   UNL     1      -9.631   4.313 124.209  0.00  0.00    +0.000 HD
ENDBRANCH  20  21
BRANCH  20  23
ATOM     23  C   UNL     1      -8.143   2.705 123.308  0.00  0.00    +0.000 C 
BRANCH  23  24
ATOM     24  O   UNL     1      -8.438   3.818 122.476  0.00  0.00    +0.000 OA
ATOM     25  H   UNL     1      -8.796   4.539 123.016  0.00  0.00    +0.000 HD
ENDBRANCH  23  24
BRANCH  23  26
ATOM     26  C   UNL     1      -9.195   1.627 123.104  0.00  0.00    +0.000 C 
BRANCH  26  27
ATOM     27  O   UNL     1      -9.764   1.277 124.356  0.00  0.00    +0.000 OA
ATOM     28  H   UNL     1     -10.732   1.295 124.289  0.00  0.00    +0.000 HD
ENDBRANCH  26  27
ENDBRANCH  23  26
ENDBRANCH  20  23
ENDBRANCH  17  20
ENDBRANCH  14  17
ENDBRANCH  12  14
ENDBRANCH  11  12
ENDBRANCH  10  11
ENDBRANCH   9  10
ENDBRANCH   7   9
ENDBRANCH   4   7
ENDBRANCH   1   4
BRANCH   1  29
ATOM     29  C   UNL     1      -9.363   5.977 130.444  0.00  0.00    +0.000 C 
BRANCH  29  30
ATOM     30  C   UNL     1      -9.369   4.456 130.405  0.00  0.00    +0.000 C 
BRANCH  30  31
ATOM     31  O   UNL     1      -8.836   4.012 129.166  0.00  0.00    +0.000 OA
ATOM     32  H   UNL     1      -8.330   4.732 128.756  0.00  0.00    +0.000 HD
ENDBRANCH  30  31
BRANCH  30  33
ATOM     33  C   UNL     1     -10.795   3.952 130.552  0.00  0.00    +0.000 C 
BRANCH  33  34
ATOM     34  O   UNL     1     -11.664   5.052 130.780  0.00  0.00    +0.000 OA
ATOM     35  H   UNL     1     -11.590   5.337 131.705  0.00  0.00    +0.000 HD
ENDBRANCH  33  34
ENDBRANCH  30  33
ENDBRANCH  29  30
BRANCH  29  36
ATOM     36  O   UNL     1      -8.966   6.479 129.176  0.00  0.00    +0.000 OA
BRANCH  36  37
ATOM     37  C   UNL     1      -9.998   7.295 128.641  0.00  0.00    +0.000 C 
ATOM     38  O   UNL     1     -10.940   7.554 129.632  0.00  0.00    +0.000 OA
ATOM     39  C   UNL     1     -11.963   8.471 129.169  0.00  0.00    +0.000 C 
ATOM     40  C   UNL     1     -12.734   7.769 128.071  0.00  0.00    +0.000 C 
ATOM     41  C   UNL     1     -11.755   7.406 126.945  0.00  0.00    +0.000 C 
ATOM     42  C   UNL     1     -10.639   6.561 127.472  0.00  0.00    +0.000 C 
BRANCH  40  43
ATOM     43  O   UNL     1     -13.321   6.574 128.615  0.00  0.00    +0.000 OA
ATOM     44  H   UNL     1     -12.898   6.365 129.462  0.00  0.00    +0.000 HD
ENDBRANCH  40  43
BRANCH  41  45
ATOM     45  O   UNL     1     -12.422   6.709 125.887  0.00  0.00    +0.000 OA
ATOM     46  H   UNL     1     -12.385   7.240 125.076  0.00  0.00    +0.000 HD
ENDBRANCH  41  45
BRANCH  42  47
ATOM     47  O   UNL     1      -9.704   6.403 126.400  0.00  0.00    +0.000 OA
ATOM     48  H   UNL     1      -8.807   6.578 126.726  0.00  0.00    +0.000 HD
ENDBRANCH  42  47
BRANCH  39  49
ATOM     49  C   UNL     1     -12.889   8.865 130.309  0.00  0.00    +0.000 C 
BRANCH  49  50
ATOM     50  O   UNL     1     -13.000   7.820 131.263  0.00  0.00    +0.000 OA
ATOM     51  H   UNL     1     -13.739   7.239 131.022  0.00  0.00    +0.000 HD
ENDBRANCH  49  50
ENDBRANCH  39  49
ENDBRANCH  36  37
ENDBRANCH  29  36
ENDBRANCH   1  29
TORSDOF 30
ENDMDL
MODEL 6
REMARK VINA RESULT:      -6.1      1.870      3.300
REMARK  Name = Calcium glubionate anhydrous
REMARK  30 active torsions:
REMARK  status: ('A' for Active; 'I' for Inactive)
REMARK    1  A    between atoms: O_1  and  C_2
REMARK    2  A    between atoms: C_2  and  C_3
REMARK    3  A    between atoms: C_3  and  O_4
REMARK    4  A    between atoms: C_3  and  C_5
REMARK    5  A    between atoms: C_5  and  O_6
REMARK    6  A    between atoms: C_5  and  C_7
REMARK    7  A    between atoms: C_7  and  O_8
REMARK    8  A    between atoms: C_7  and  C_9
REMARK    9  A    between atoms: C_9  and  O_10
REMARK   10  A    between atoms: C_9  and  C_11
REMARK   11  A    between atoms: C_11  and  O_13
REMARK   12  A    between atoms: O_13  and  CA_14
REMARK   13  A    between atoms: CA_14  and  O_15
REMARK   14  A    between atoms: O_15  and  C_16
REMARK   15  A    between atoms: C_16  and  C_18
REMARK   16  A    between atoms: C_18  and  O_19
REMARK   17  A    between atoms: C_18  and  C_20
REMARK   18  A    between atoms: C_20  and  O_21
REMARK   19  A    between atoms: C_20  and  C_22
REMARK   20  A    between atoms: C_22  and  O_23
REMARK   21  A    between atoms: C_22  and  C_35
REMARK   22  A    between atoms: O_23  and  C_24
REMARK   23  A    between atoms: C_26  and  C_27
REMARK   24  A    between atoms: C_27  and  O_28
REMARK   25  A    between atoms: C_29  and  O_30
REMARK   26  A    between atoms: C_31  and  O_32
REMARK   27  A    between atoms: C_33  and  O_34
REMARK   28  A    between atoms: C_35  and  O_36
REMARK   29  A    between atoms: C_35  and  C_37
REMARK   30  A    between atoms: C_37  and  O_38
REMARK                            x       y       z     vdW  Elec       q    Type
REMARK                         _______ _______ _______ _____ _____    ______ ____
ROOT
ATOM      1  C   UNL     1     -10.515   3.799 130.699  0.00  0.00    +0.000 C 
ENDROOT
BRANCH   1   2
ATOM      2  O   UNL     1     -11.802   3.338 130.313  0.00  0.00    +0.000 OA
ATOM      3  H   UNL     1     -11.798   3.125 129.367  0.00  0.00    +0.000 HD
ENDBRANCH   1   2
BRANCH   1   4
ATOM      4  C   UNL     1      -9.466   3.214 129.768  0.00  0.00    +0.000 C 
BRANCH   4   5
ATOM      5  O   UNL     1      -8.988   4.228 128.897  0.00  0.00    +0.000 OA
ATOM      6  H   UNL     1      -8.051   4.399 129.082  0.00  0.00    +0.000 HD
ENDBRANCH   4   5
BRANCH   4   7
ATOM      7  C   UNL     1      -8.310   2.664 130.588  0.00  0.00    +0.000 C 
ATOM      8  O   UNL     1      -7.968   2.821 131.801  0.00  0.00    +0.000 OA
BRANCH   7   9
ATOM      9  O   UNL     1      -7.659   1.688 129.787  0.00  0.00    +0.000 OA
BRANCH   9  10
ATOM     10 CA   UNL     1      -5.452   2.131 128.895  0.00  0.00    +0.000 Ca
BRANCH  10  11
ATOM     11  O   UNL     1      -3.247   2.574 128.005  0.00  0.00    +0.000 OA
BRANCH  11  12
ATOM     12  C   UNL     1      -3.067   3.589 127.029  0.00  0.00    +0.000 C 
ATOM     13  O   UNL     1      -1.950   3.708 126.434  0.00  0.00    +0.000 OA
BRANCH  12  14
ATOM     14  C   UNL     1      -4.211   4.532 126.694  0.00  0.00    +0.000 C 
BRANCH  14  15
ATOM     15  O   UNL     1      -5.142   4.547 127.765  0.00  0.00    +0.000 OA
ATOM     16  H   UNL     1      -6.042   4.630 127.411  0.00  0.00    +0.000 HD
ENDBRANCH  14  15
BRANCH  14  17
ATOM     17  C   UNL     1      -4.905   4.057 125.427  0.00  0.00    +0.000 C 
BRANCH  17  18
ATOM     18  O   UNL     1      -4.856   2.639 125.363  0.00  0.00    +0.000 OA
ATOM     19  H   UNL     1      -5.733   2.277 125.557  0.00  0.00    +0.000 HD
ENDBRANCH  17  18
BRANCH  17  20
ATOM     20  C   UNL     1      -6.355   4.513 125.442  0.00  0.00    +0.000 C 
BRANCH  20  21
ATOM     21  O   UNL     1      -6.551   5.830 124.949  0.00  0.00    +0.000 OA
ATOM     22  H   UNL     1      -7.297   5.836 124.330  0.00  0.00    +0.000 HD
ENDBRANCH  20  21
BRANCH  20  23
ATOM     23  C   UNL     1      -6.914   3.510 124.445  0.00  0.00    +0.000 C 
BRANCH  23  24
ATOM     24  O   UNL     1      -6.764   4.020 123.128  0.00  0.00    +0.000 OA
ATOM     25  H   UNL     1      -7.638   4.211 122.753  0.00  0.00    +0.000 HD
ENDBRANCH  23  24
BRANCH  23  26
ATOM     26  C   UNL     1      -8.388   3.278 124.733  0.00  0.00    +0.000 C 
BRANCH  26  27
ATOM     27  O   UNL     1      -8.845   4.239 125.672  0.00  0.00    +0.000 OA
ATOM     28  H   UNL     1      -8.329   5.055 125.578  0.00  0.00    +0.000 HD
ENDBRANCH  26  27
ENDBRANCH  23  26
ENDBRANCH  20  23
ENDBRANCH  17  20
ENDBRANCH  14  17
ENDBRANCH  12  14
ENDBRANCH  11  12
ENDBRANCH  10  11
ENDBRANCH   9  10
ENDBRANCH   7   9
ENDBRANCH   4   7
ENDBRANCH   1   4
BRANCH   1  29
ATOM     29  C   UNL     1     -10.483   5.318 130.747  0.00  0.00    +0.000 C 
BRANCH  29  30
ATOM     30  C   UNL     1      -9.523   5.770 131.836  0.00  0.00    +0.000 C 
BRANCH  30  31
ATOM     31  O   UNL     1     -10.251   6.414 132.871  0.00  0.00    +0.000 OA
ATOM     32  H   UNL     1      -9.779   6.308 133.713  0.00  0.00    +0.000 HD
ENDBRANCH  30  31
BRANCH  30  33
ATOM     33  C   UNL     1      -8.512   6.742 131.249  0.00  0.00    +0.000 C 
BRANCH  33  34
ATOM     34  O   UNL     1      -8.884   7.062 129.916  0.00  0.00    +0.000 OA
ATOM     35  H   UNL     1      -8.621   7.975 129.717  0.00  0.00    +0.000 HD
ENDBRANCH  33  34
ENDBRANCH  30  33
ENDBRANCH  29  30
BRANCH  29  36
ATOM     36  O   UNL     1     -11.785   5.810 131.031  0.00  0.00    +0.000 OA
BRANCH  36  37
ATOM     37  C   UNL     1     -12.244   6.603 129.946  0.00  0.00    +0.000 C 
ATOM     38  O   UNL     1     -11.361   6.476 128.878  0.00  0.00    +0.000 OA
ATOM     39  C   UNL     1     -11.837   7.183 127.705  0.00  0.00    +0.000 C 
ATOM     40  C   UNL     1     -11.839   8.660 128.038  0.00  0.00    +0.000 C 
ATOM     41  C   UNL     1     -12.764   8.886 129.242  0.00  0.00    +0.000 C 
ATOM     42  C   UNL     1     -12.326   8.052 130.405  0.00  0.00    +0.000 C 
BRANCH  40  43
ATOM     43  O   UNL     1     -10.498   9.056 128.368  0.00  0.00    +0.000 OA
ATOM     44  H   UNL     1     -10.259   8.696 129.236  0.00  0.00    +0.000 HD
ENDBRANCH  40  43
BRANCH  41  45
ATOM     45  O   UNL     1     -12.783  10.265 129.627  0.00  0.00    +0.000 OA
ATOM     46  H   UNL     1     -12.191  10.398 130.384  0.00  0.00    +0.000 HD
ENDBRANCH  41  45
BRANCH  42  47
ATOM     47  O   UNL     1     -13.323   8.206 131.419  0.00  0.00    +0.000 OA
ATOM     48  H   UNL     1     -12.892   8.290 132.284  0.00  0.00    +0.000 HD
ENDBRANCH  42  47
BRANCH  39  49
ATOM     49  C   UNL     1     -10.944   6.902 126.507  0.00  0.00    +0.000 C 
BRANCH  49  50
ATOM     50  O   UNL     1      -9.648   6.495 126.920  0.00  0.00    +0.000 OA
ATOM     51  H   UNL     1      -8.982   7.056 126.494  0.00  0.00    +0.000 HD
ENDBRANCH  49  50
ENDBRANCH  39  49
ENDBRANCH  36  37
ENDBRANCH  29  36
ENDBRANCH   1  29
TORSDOF 30
ENDMDL
MODEL 7
REMARK VINA RESULT:      -6.1      2.191      4.057
REMARK  Name = Calcium glubionate anhydrous
REMARK  30 active torsions:
REMARK  status: ('A' for Active; 'I' for Inactive)
REMARK    1  A    between atoms: O_1  and  C_2
REMARK    2  A    between atoms: C_2  and  C_3
REMARK    3  A    between atoms: C_3  and  O_4
REMARK    4  A    between atoms: C_3  and  C_5
REMARK    5  A    between atoms: C_5  and  O_6
REMARK    6  A    between atoms: C_5  and  C_7
REMARK    7  A    between atoms: C_7  and  O_8
REMARK    8  A    between atoms: C_7  and  C_9
REMARK    9  A    between atoms: C_9  and  O_10
REMARK   10  A    between atoms: C_9  and  C_11
REMARK   11  A    between atoms: C_11  and  O_13
REMARK   12  A    between atoms: O_13  and  CA_14
REMARK   13  A    between atoms: CA_14  and  O_15
REMARK   14  A    between atoms: O_15  and  C_16
REMARK   15  A    between atoms: C_16  and  C_18
REMARK   16  A    between atoms: C_18  and  O_19
REMARK   17  A    between atoms: C_18  and  C_20
REMARK   18  A    between atoms: C_20  and  O_21
REMARK   19  A    between atoms: C_20  and  C_22
REMARK   20  A    between atoms: C_22  and  O_23
REMARK   21  A    between atoms: C_22  and  C_35
REMARK   22  A    between atoms: O_23  and  C_24
REMARK   23  A    between atoms: C_26  and  C_27
REMARK   24  A    between atoms: C_27  and  O_28
REMARK   25  A    between atoms: C_29  and  O_30
REMARK   26  A    between atoms: C_31  and  O_32
REMARK   27  A    between atoms: C_33  and  O_34
REMARK   28  A    between atoms: C_35  and  O_36
REMARK   29  A    between atoms: C_35  and  C_37
REMARK   30  A    between atoms: C_37  and  O_38
REMARK                            x       y       z     vdW  Elec       q    Type
REMARK                         _______ _______ _______ _____ _____    ______ ____
ROOT
ATOM      1  C   UNL     1      -8.333   6.470 131.584  0.00  0.00    +0.000 C 
ENDROOT
BRANCH   1   2
ATOM      2  O   UNL     1      -8.541   5.714 132.768  0.00  0.00    +0.000 OA
ATOM      3  H   UNL     1      -8.500   4.768 132.558  0.00  0.00    +0.000 HD
ENDBRANCH   1   2
BRANCH   1   4
ATOM      4  C   UNL     1      -6.921   6.236 131.074  0.00  0.00    +0.000 C 
BRANCH   4   5
ATOM      5  O   UNL     1      -6.355   7.472 130.662  0.00  0.00    +0.000 OA
ATOM      6  H   UNL     1      -6.926   7.884 129.995  0.00  0.00    +0.000 HD
ENDBRANCH   4   5
BRANCH   4   7
ATOM      7  C   UNL     1      -6.073   5.636 132.183  0.00  0.00    +0.000 C 
ATOM      8  O   UNL     1      -5.577   6.127 133.245  0.00  0.00    +0.000 OA
BRANCH   7   9
ATOM      9  O   UNL     1      -6.028   4.233 131.962  0.00  0.00    +0.000 OA
BRANCH   9  10
ATOM     10 CA   UNL     1      -6.691   3.326 129.817  0.00  0.00    +0.000 Ca
BRANCH  10  11
ATOM     11  O   UNL     1      -7.353   2.420 127.674  0.00  0.00    +0.000 OA
BRANCH  11  12
ATOM     12  C   UNL     1      -7.238   3.213 126.502  0.00  0.00    +0.000 C 
ATOM     13  O   UNL     1      -8.127   4.081 126.231  0.00  0.00    +0.000 OA
BRANCH  12  14
ATOM     14  C   UNL     1      -6.051   3.026 125.572  0.00  0.00    +0.000 C 
BRANCH  14  15
ATOM     15  O   UNL     1      -5.634   1.669 125.601  0.00  0.00    +0.000 OA
ATOM     16  H   UNL     1      -5.381   1.428 126.506  0.00  0.00    +0.000 HD
ENDBRANCH  14  15
BRANCH  14  17
ATOM     17  C   UNL     1      -4.905   3.916 126.027  0.00  0.00    +0.000 C 
BRANCH  17  18
ATOM     18  O   UNL     1      -5.413   5.188 126.402  0.00  0.00    +0.000 OA
ATOM     19  H   UNL     1      -5.800   5.133 127.289  0.00  0.00    +0.000 HD
ENDBRANCH  17  18
BRANCH  17  20
ATOM     20  C   UNL     1      -4.210   3.278 127.219  0.00  0.00    +0.000 C 
BRANCH  20  21
ATOM     21  O   UNL     1      -3.142   2.410 126.868  0.00  0.00    +0.000 OA
ATOM     22  H   UNL     1      -2.341   2.931 126.705  0.00  0.00    +0.000 HD
ENDBRANCH  20  21
BRANCH  20  23
ATOM     23  C   UNL     1      -3.647   4.542 127.852  0.00  0.00    +0.000 C 
BRANCH  23  24
ATOM     24  O   UNL     1      -2.318   4.746 127.397  0.00  0.00    +0.000 OA
ATOM     25  H   UNL     1      -1.990   3.935 126.979  0.00  0.00    +0.000 HD
ENDBRANCH  23  24
BRANCH  23  26
ATOM     26  C   UNL     1      -3.647   4.394 129.364  0.00  0.00    +0.000 C 
BRANCH  26  27
ATOM     27  O   UNL     1      -4.230   3.149 129.719  0.00  0.00    +0.000 OA
ATOM     28  H   UNL     1      -4.422   2.640 128.915  0.00  0.00    +0.000 HD
ENDBRANCH  26  27
ENDBRANCH  23  26
ENDBRANCH  20  23
ENDBRANCH  17  20
ENDBRANCH  14  17
ENDBRANCH  12  14
ENDBRANCH  11  12
ENDBRANCH  10  11
ENDBRANCH   9  10
ENDBRANCH   7   9
ENDBRANCH   4   7
ENDBRANCH   1   4
BRANCH   1  29
ATOM     29  C   UNL     1      -9.398   6.147 130.548  0.00  0.00    +0.000 C 
BRANCH  29  30
ATOM     30  C   UNL     1      -9.579   4.639 130.462  0.00  0.00    +0.000 C 
BRANCH  30  31
ATOM     31  O   UNL     1      -9.019   4.165 129.246  0.00  0.00    +0.000 OA
ATOM     32  H   UNL     1      -8.406   4.829 128.892  0.00  0.00    +0.000 HD
ENDBRANCH  30  31
BRANCH  30  33
ATOM     33  C   UNL     1     -11.061   4.304 130.501  0.00  0.00    +0.000 C 
BRANCH  33  34
ATOM     34  O   UNL     1     -11.775   5.386 131.081  0.00  0.00    +0.000 OA
ATOM     35  H   UNL     1     -12.295   5.835 130.396  0.00  0.00    +0.000 HD
ENDBRANCH  33  34
ENDBRANCH  30  33
ENDBRANCH  29  30
BRANCH  29  36
ATOM     36  O   UNL     1      -8.994   6.648 129.282  0.00  0.00    +0.000 OA
BRANCH  36  37
ATOM     37  C   UNL     1     -10.042   7.422 128.717  0.00  0.00    +0.000 C 
ATOM     38  O   UNL     1     -10.986   7.703 129.700  0.00  0.00    +0.000 OA
ATOM     39  C   UNL     1     -12.027   8.582 129.203  0.00  0.00    +0.000 C 
ATOM     40  C   UNL     1     -12.787   7.822 128.136  0.00  0.00    +0.000 C 
ATOM     41  C   UNL     1     -11.804   7.432 127.023  0.00  0.00    +0.000 C 
ATOM     42  C   UNL     1     -10.671   6.630 127.580  0.00  0.00    +0.000 C 
BRANCH  40  43
ATOM     43  O   UNL     1     -13.350   6.640 128.729  0.00  0.00    +0.000 OA
ATOM     44  H   UNL     1     -12.831   5.866 128.463  0.00  0.00    +0.000 HD
ENDBRANCH  40  43
BRANCH  41  45
ATOM     45  O   UNL     1     -12.459   6.681 125.996  0.00  0.00    +0.000 OA
ATOM     46  H   UNL     1     -11.795   6.249 125.436  0.00  0.00    +0.000 HD
ENDBRANCH  41  45
BRANCH  42  47
ATOM     47  O   UNL     1      -9.735   6.445 126.514  0.00  0.00    +0.000 OA
ATOM     48  H   UNL     1     -10.214   6.229 125.699  0.00  0.00    +0.000 HD
ENDBRANCH  42  47
BRANCH  39  49
ATOM     49  C   UNL     1     -12.958   9.005 130.328  0.00  0.00    +0.000 C 
BRANCH  49  50
ATOM     50  O   UNL     1     -13.024   8.010 131.339  0.00  0.00    +0.000 OA
ATOM     51  H   UNL     1     -12.437   7.273 131.105  0.00  0.00    +0.000 HD
ENDBRANCH  49  50
ENDBRANCH  39  49
ENDBRANCH  36  37
ENDBRANCH  29  36
ENDBRANCH   1  29
TORSDOF 30
ENDMDL
MODEL 8
REMARK VINA RESULT:      -6.0      1.415      2.878
REMARK  Name = Calcium glubionate anhydrous
REMARK  30 active torsions:
REMARK  status: ('A' for Active; 'I' for Inactive)
REMARK    1  A    between atoms: O_1  and  C_2
REMARK    2  A    between atoms: C_2  and  C_3
REMARK    3  A    between atoms: C_3  and  O_4
REMARK    4  A    between atoms: C_3  and  C_5
REMARK    5  A    between atoms: C_5  and  O_6
REMARK    6  A    between atoms: C_5  and  C_7
REMARK    7  A    between atoms: C_7  and  O_8
REMARK    8  A    between atoms: C_7  and  C_9
REMARK    9  A    between atoms: C_9  and  O_10
REMARK   10  A    between atoms: C_9  and  C_11
REMARK   11  A    between atoms: C_11  and  O_13
REMARK   12  A    between atoms: O_13  and  CA_14
REMARK   13  A    between atoms: CA_14  and  O_15
REMARK   14  A    between atoms: O_15  and  C_16
REMARK   15  A    between atoms: C_16  and  C_18
REMARK   16  A    between atoms: C_18  and  O_19
REMARK   17  A    between atoms: C_18  and  C_20
REMARK   18  A    between atoms: C_20  and  O_21
REMARK   19  A    between atoms: C_20  and  C_22
REMARK   20  A    between atoms: C_22  and  O_23
REMARK   21  A    between atoms: C_22  and  C_35
REMARK   22  A    between atoms: O_23  and  C_24
REMARK   23  A    between atoms: C_26  and  C_27
REMARK   24  A    between atoms: C_27  and  O_28
REMARK   25  A    between atoms: C_29  and  O_30
REMARK   26  A    between atoms: C_31  and  O_32
REMARK   27  A    between atoms: C_33  and  O_34
REMARK   28  A    between atoms: C_35  and  O_36
REMARK   29  A    between atoms: C_35  and  C_37
REMARK   30  A    between atoms: C_37  and  O_38
REMARK                            x       y       z     vdW  Elec       q    Type
REMARK                         _______ _______ _______ _____ _____    ______ ____
ROOT
ATOM      1  C   UNL     1      -9.686   3.875 130.554  0.00  0.00    +0.000 C 
ENDROOT
BRANCH   1   2
ATOM      2  O   UNL     1     -10.646   3.091 131.248  0.00  0.00    +0.000 OA
ATOM      3  H   UNL     1     -10.830   2.284 130.743  0.00  0.00    +0.000 HD
ENDBRANCH   1   2
BRANCH   1   4
ATOM      4  C   UNL     1      -9.167   3.098 129.356  0.00  0.00    +0.000 C 
BRANCH   4   5
ATOM      5  O   UNL     1      -8.322   3.933 128.580  0.00  0.00    +0.000 OA
ATOM      6  H   UNL     1      -8.678   4.836 128.570  0.00  0.00    +0.000 HD
ENDBRANCH   4   5
BRANCH   4   7
ATOM      7  C   UNL     1      -8.381   1.889 129.837  0.00  0.00    +0.000 C 
ATOM      8  O   UNL     1      -8.606   1.023 130.738  0.00  0.00    +0.000 OA
BRANCH   7   9
ATOM      9  O   UNL     1      -7.300   1.709 128.933  0.00  0.00    +0.000 OA
BRANCH   9  10
ATOM     10 CA   UNL     1      -7.508   2.442 126.635  0.00  0.00    +0.000 Ca
BRANCH  10  11
ATOM     11  O   UNL     1      -7.717   3.174 124.339  0.00  0.00    +0.000 OA
BRANCH  11  12
ATOM     12  C   UNL     1      -8.802   2.719 123.545  0.00  0.00    +0.000 C 
ATOM     13  O   UNL     1      -8.895   3.078 122.329  0.00  0.00    +0.000 OA
BRANCH  12  14
ATOM     14  C   UNL     1      -9.852   1.800 124.148  0.00  0.00    +0.000 C 
BRANCH  14  15
ATOM     15  O   UNL     1      -9.596   1.633 125.535  0.00  0.00    +0.000 OA
ATOM     16  H   UNL     1      -9.699   0.698 125.773  0.00  0.00    +0.000 HD
ENDBRANCH  14  15
BRANCH  14  17
ATOM     17  C   UNL     1      -9.798   0.446 123.458  0.00  0.00    +0.000 C 
BRANCH  17  18
ATOM     18  O   UNL     1     -10.331   0.562 122.147  0.00  0.00    +0.000 OA
ATOM     19  H   UNL     1      -9.720   0.157 121.513  0.00  0.00    +0.000 HD
ENDBRANCH  17  18
BRANCH  17  20
ATOM     20  C   UNL     1      -8.354  -0.025 123.378  0.00  0.00    +0.000 C 
BRANCH  20  21
ATOM     21  O   UNL     1      -7.690  -0.067 124.632  0.00  0.00    +0.000 OA
ATOM     22  H   UNL     1      -6.889   0.477 124.593  0.00  0.00    +0.000 HD
ENDBRANCH  20  21
BRANCH  20  23
ATOM     23  C   UNL     1      -8.609  -1.443 122.891  0.00  0.00    +0.000 C 
BRANCH  23  24
ATOM     24  O   UNL     1      -9.737  -1.979 123.568  0.00  0.00    +0.000 OA
ATOM     25  H   UNL     1     -10.403  -1.285 123.688  0.00  0.00    +0.000 HD
ENDBRANCH  23  24
BRANCH  23  26
ATOM     26  C   UNL     1      -7.391  -2.304 123.178  0.00  0.00    +0.000 C 
BRANCH  26  27
ATOM     27  O   UNL     1      -6.230  -1.669 122.664  0.00  0.00    +0.000 OA
ATOM     28  H   UNL     1      -5.509  -2.315 122.597  0.00  0.00    +0.000 HD
ENDBRANCH  26  27
ENDBRANCH  23  26
ENDBRANCH  20  23
ENDBRANCH  17  20
ENDBRANCH  14  17
ENDBRANCH  12  14
ENDBRANCH  11  12
ENDBRANCH  10  11
ENDBRANCH   9  10
ENDBRANCH   7   9
ENDBRANCH   4   7
ENDBRANCH   1   4
BRANCH   1  29
ATOM     29  C   UNL     1     -10.272   5.226 130.175  0.00  0.00    +0.000 C 
BRANCH  29  30
ATOM     30  C   UNL     1      -9.446   6.333 130.813  0.00  0.00    +0.000 C 
BRANCH  30  31
ATOM     31  O   UNL     1      -8.199   6.438 130.143  0.00  0.00    +0.000 OA
ATOM     32  H   UNL     1      -7.844   5.550 129.980  0.00  0.00    +0.000 HD
ENDBRANCH  30  31
BRANCH  30  33
ATOM     33  C   UNL     1      -9.208   6.006 132.278  0.00  0.00    +0.000 C 
BRANCH  33  34
ATOM     34  O   UNL     1     -10.354   6.367 133.035  0.00  0.00    +0.000 OA
ATOM     35  H   UNL     1     -10.080   6.647 133.923  0.00  0.00    +0.000 HD
ENDBRANCH  33  34
ENDBRANCH  30  33
ENDBRANCH  29  30
BRANCH  29  36
ATOM     36  O   UNL     1     -11.611   5.309 130.638  0.00  0.00    +0.000 OA
BRANCH  36  37
ATOM     37  C   UNL     1     -12.341   6.221 129.832  0.00  0.00    +0.000 C 
ATOM     38  O   UNL     1     -11.753   6.295 128.573  0.00  0.00    +0.000 OA
ATOM     39  C   UNL     1     -12.521   7.133 127.674  0.00  0.00    +0.000 C 
ATOM     40  C   UNL     1     -12.463   8.546 128.215  0.00  0.00    +0.000 C 
ATOM     41  C   UNL     1     -13.059   8.549 129.630  0.00  0.00    +0.000 C 
ATOM     42  C   UNL     1     -12.329   7.584 130.510  0.00  0.00    +0.000 C 
BRANCH  40  43
ATOM     43  O   UNL     1     -11.088   8.963 128.261  0.00  0.00    +0.000 OA
ATOM     44  H   UNL     1     -10.601   8.402 128.883  0.00  0.00    +0.000 HD
ENDBRANCH  40  43
BRANCH  41  45
ATOM     45  O   UNL     1     -13.004   9.857 130.210  0.00  0.00    +0.000 OA
ATOM     46  H   UNL     1     -12.348   9.867 130.925  0.00  0.00    +0.000 HD
ENDBRANCH  41  45
BRANCH  42  47
ATOM     47  O   UNL     1     -13.041   7.539 131.749  0.00  0.00    +0.000 OA
ATOM     48  H   UNL     1     -13.608   6.752 131.768  0.00  0.00    +0.000 HD
ENDBRANCH  42  47
BRANCH  39  49
ATOM     49  C   UNL     1     -11.953   7.074 126.265  0.00  0.00    +0.000 C 
BRANCH  49  50
ATOM     50  O   UNL     1     -10.635   6.545 126.267  0.00  0.00    +0.000 OA
ATOM     51  H   UNL     1     -10.307   6.498 127.178  0.00  0.00    +0.000 HD
ENDBRANCH  49  50
ENDBRANCH  39  49
ENDBRANCH  36  37
ENDBRANCH  29  36
ENDBRANCH   1  29
TORSDOF 30
ENDMDL
MODEL 9
REMARK VINA RESULT:      -6.0      2.683      4.914
REMARK  Name = Calcium glubionate anhydrous
REMARK  30 active torsions:
REMARK  status: ('A' for Active; 'I' for Inactive)
REMARK    1  A    between atoms: O_1  and  C_2
REMARK    2  A    between atoms: C_2  and  C_3
REMARK    3  A    between atoms: C_3  and  O_4
REMARK    4  A    between atoms: C_3  and  C_5
REMARK    5  A    between atoms: C_5  and  O_6
REMARK    6  A    between atoms: C_5  and  C_7
REMARK    7  A    between atoms: C_7  and  O_8
REMARK    8  A    between atoms: C_7  and  C_9
REMARK    9  A    between atoms: C_9  and  O_10
REMARK   10  A    between atoms: C_9  and  C_11
REMARK   11  A    between atoms: C_11  and  O_13
REMARK   12  A    between atoms: O_13  and  CA_14
REMARK   13  A    between atoms: CA_14  and  O_15
REMARK   14  A    between atoms: O_15  and  C_16
REMARK   15  A    between atoms: C_16  and  C_18
REMARK   16  A    between atoms: C_18  and  O_19
REMARK   17  A    between atoms: C_18  and  C_20
REMARK   18  A    between atoms: C_20  and  O_21
REMARK   19  A    between atoms: C_20  and  C_22
REMARK   20  A    between atoms: C_22  and  O_23
REMARK   21  A    between atoms: C_22  and  C_35
REMARK   22  A    between atoms: O_23  and  C_24
REMARK   23  A    between atoms: C_26  and  C_27
REMARK   24  A    between atoms: C_27  and  O_28
REMARK   25  A    between atoms: C_29  and  O_30
REMARK   26  A    between atoms: C_31  and  O_32
REMARK   27  A    between atoms: C_33  and  O_34
REMARK   28  A    between atoms: C_35  and  O_36
REMARK   29  A    between atoms: C_35  and  C_37
REMARK   30  A    between atoms: C_37  and  O_38
REMARK                            x       y       z     vdW  Elec       q    Type
REMARK                         _______ _______ _______ _____ _____    ______ ____
ROOT
ATOM      1  C   UNL     1      -8.995   3.013 130.750  0.00  0.00    +0.000 C 
ENDROOT
BRANCH   1   2
ATOM      2  O   UNL     1      -8.075   2.003 130.364  0.00  0.00    +0.000 OA
ATOM      3  H   UNL     1      -7.778   2.167 129.456  0.00  0.00    +0.000 HD
ENDBRANCH   1   2
BRANCH   1   4
ATOM      4  C   UNL     1      -8.609   3.555 132.117  0.00  0.00    +0.000 C 
BRANCH   4   5
ATOM      5  O   UNL     1      -9.750   3.564 132.962  0.00  0.00    +0.000 OA
ATOM      6  H   UNL     1     -10.282   2.770 132.796  0.00  0.00    +0.000 HD
ENDBRANCH   4   5
BRANCH   4   7
ATOM      7  C   UNL     1      -7.533   2.673 132.728  0.00  0.00    +0.000 C 
ATOM      8  O   UNL     1      -7.583   1.567 133.351  0.00  0.00    +0.000 OA
BRANCH   7   9
ATOM      9  O   UNL     1      -6.279   3.206 132.326  0.00  0.00    +0.000 OA
BRANCH   9  10
ATOM     10 CA   UNL     1      -5.449   2.791 130.090  0.00  0.00    +0.000 Ca
BRANCH  10  11
ATOM     11  O   UNL     1      -4.619   2.376 127.856  0.00  0.00    +0.000 OA
BRANCH  11  12
ATOM     12  C   UNL     1      -4.297   3.466 127.005  0.00  0.00    +0.000 C 
ATOM     13  O   UNL     1      -4.922   3.626 125.910  0.00  0.00    +0.000 OA
BRANCH  12  14
ATOM     14  C   UNL     1      -3.203   4.444 127.405  0.00  0.00    +0.000 C 
BRANCH  14  15
ATOM     15  O   UNL     1      -1.934   3.827 127.245  0.00  0.00    +0.000 OA
ATOM     16  H   UNL     1      -1.238   4.442 127.526  0.00  0.00    +0.000 HD
ENDBRANCH  14  15
BRANCH  14  17
ATOM     17  C   UNL     1      -3.390   4.847 128.859  0.00  0.00    +0.000 C 
BRANCH  17  18
ATOM     18  O   UNL     1      -3.168   3.721 129.695  0.00  0.00    +0.000 OA
ATOM     19  H   UNL     1      -3.841   3.698 130.392  0.00  0.00    +0.000 HD
ENDBRANCH  17  18
BRANCH  17  20
ATOM     20  C   UNL     1      -2.398   5.944 129.212  0.00  0.00    +0.000 C 
BRANCH  20  21
ATOM     21  O   UNL     1      -2.028   6.763 128.113  0.00  0.00    +0.000 OA
ATOM     22  H   UNL     1      -1.875   7.669 128.422  0.00  0.00    +0.000 HD
ENDBRANCH  20  21
BRANCH  20  23
ATOM     23  C   UNL     1      -3.277   6.741 130.164  0.00  0.00    +0.000 C 
BRANCH  23  24
ATOM     24  O   UNL     1      -4.424   5.975 130.501  0.00  0.00    +0.000 OA
ATOM     25  H   UNL     1      -4.903   5.735 129.693  0.00  0.00    +0.000 HD
ENDBRANCH  23  24
BRANCH  23  26
ATOM     26  C   UNL     1      -3.711   8.032 129.491  0.00  0.00    +0.000 C 
BRANCH  26  27
ATOM     27  O   UNL     1      -5.076   8.285 129.787  0.00  0.00    +0.000 OA
ATOM     28  H   UNL     1      -5.478   8.787 129.060  0.00  0.00    +0.000 HD
ENDBRANCH  26  27
ENDBRANCH  23  26
ENDBRANCH  20  23
ENDBRANCH  17  20
ENDBRANCH  14  17
ENDBRANCH  12  14
ENDBRANCH  11  12
ENDBRANCH  10  11
ENDBRANCH   9  10
ENDBRANCH   7   9
ENDBRANCH   4   7
ENDBRANCH   1   4
BRANCH   1  29
ATOM     29  C   UNL     1      -9.078   4.096 129.686  0.00  0.00    +0.000 C 
BRANCH  29  30
ATOM     30  C   UNL     1      -7.737   4.217 128.980  0.00  0.00    +0.000 C 
BRANCH  30  31
ATOM     31  O   UNL     1      -7.067   5.383 129.434  0.00  0.00    +0.000 OA
ATOM     32  H   UNL     1      -7.721   6.061 129.670  0.00  0.00    +0.000 HD
ENDBRANCH  30  31
BRANCH  30  33
ATOM     33  C   UNL     1      -7.961   4.314 127.480  0.00  0.00    +0.000 C 
BRANCH  33  34
ATOM     34  O   UNL     1      -8.801   5.423 127.198  0.00  0.00    +0.000 OA
ATOM     35  H   UNL     1      -9.445   5.532 127.915  0.00  0.00    +0.000 HD
ENDBRANCH  33  34
ENDBRANCH  30  33
ENDBRANCH  29  30
BRANCH  29  36
ATOM     36  O   UNL     1      -9.404   5.336 130.297  0.00  0.00    +0.000 OA
BRANCH  36  37
ATOM     37  C   UNL     1     -10.768   5.646 130.054  0.00  0.00    +0.000 C 
ATOM     38  O   UNL     1     -10.881   6.296 128.829  0.00  0.00    +0.000 OA
ATOM     39  C   UNL     1     -12.267   6.542 128.481  0.00  0.00    +0.000 C 
ATOM     40  C   UNL     1     -12.818   7.522 129.495  0.00  0.00    +0.000 C 
ATOM     41  C   UNL     1     -12.694   6.897 130.892  0.00  0.00    +0.000 C 
ATOM     42  C   UNL     1     -11.271   6.536 131.181  0.00  0.00    +0.000 C 
BRANCH  40  43
ATOM     43  O   UNL     1     -12.048   8.733 129.428  0.00  0.00    +0.000 OA
ATOM     44  H   UNL     1     -12.529   9.447 129.874  0.00  0.00    +0.000 HD
ENDBRANCH  40  43
BRANCH  41  45
ATOM     45  O   UNL     1     -13.172   7.793 131.902  0.00  0.00    +0.000 OA
ATOM     46  H   UNL     1     -12.712   7.615 132.737  0.00  0.00    +0.000 HD
ENDBRANCH  41  45
BRANCH  42  47
ATOM     47  O   UNL     1     -11.271   5.828 132.424  0.00  0.00    +0.000 OA
ATOM     48  H   UNL     1     -12.120   5.966 132.873  0.00  0.00    +0.000 HD
ENDBRANCH  42  47
BRANCH  39  49
ATOM     49  C   UNL     1     -12.377   7.106 127.073  0.00  0.00    +0.000 C 
BRANCH  49  50
ATOM     50  O   UNL     1     -11.310   6.650 126.255  0.00  0.00    +0.000 OA
ATOM     51  H   UNL     1     -10.708   7.388 126.069  0.00  0.00    +0.000 HD
ENDBRANCH  49  50
ENDBRANCH  39  49
ENDBRANCH  36  37
ENDBRANCH  29  36
ENDBRANCH   1  29
TORSDOF 30
ENDMDL
