MODEL 1
REMARK VINA RESULT:      -8.0      0.000      0.000
REMARK  Name = Calcifediol
REMARK  12 active torsions:
REMARK  status: ('A' for Active; 'I' for Inactive)
REMARK    1  A    between atoms: C_1  and  C_2
REMARK    2  A    between atoms: C_2  and  C_3
REMARK    3  A    between atoms: C_2  and  C_10
REMARK    4  A    between atoms: C_3  and  C_4
REMARK    5  A    between atoms: C_4  and  C_5
REMARK    6  A    between atoms: C_5  and  C_6
REMARK    7  A    between atoms: C_6  and  C_7
REMARK    8  A    between atoms: C_6  and  C_8
REMARK    9  A    between atoms: C_6  and  O_9
REMARK   10  A    between atoms: C_20  and  C_21
REMARK   11  A    between atoms: C_22  and  C_23
REMARK   12  A    between atoms: C_26  and  O_27
REMARK                            x       y       z     vdW  Elec       q    Type
REMARK                         _______ _______ _______ _____ _____    ______ ____
ROOT
ATOM      1  C   UNL     1      -7.794  -2.570 124.586  0.00  0.00    +0.000 C 
ATOM      2  C   UNL     1      -6.515  -1.852 124.077  0.00  0.00    +0.000 C 
ATOM      3  C   UNL     1      -5.671  -1.485 125.300  0.00  0.00    +0.000 C 
ATOM      4  C   UNL     1      -6.233  -2.375 126.405  0.00  0.00    +0.000 C 
ATOM      5  C   UNL     1      -6.079  -1.961 127.841  0.00  0.00    +0.000 C 
ATOM      6  C   UNL     1      -7.034  -2.793 128.682  0.00  0.00    +0.000 C 
ATOM      7  C   UNL     1      -8.486  -3.127 128.395  0.00  0.00    +0.000 C 
ATOM      8  C   UNL     1      -8.567  -3.476 126.909  0.00  0.00    +0.000 C 
ATOM      9  C   UNL     1      -7.750  -2.425 126.118  0.00  0.00    +0.000 C 
ATOM     10  C   UNL     1      -8.254  -1.125 126.667  0.00  0.00    +0.000 C 
ATOM     11  C   UNL     1      -5.261  -1.022 128.356  0.00  0.00    +0.000 C 
ENDROOT
BRANCH  11  12
ATOM     12  C   UNL     1      -5.038  -0.901 129.788  0.00  0.00    +0.000 C 
ATOM     13  C   UNL     1      -5.833  -0.214 130.640  0.00  0.00    +0.000 C 
ATOM     14  C   UNL     1      -5.535  -0.166 132.113  0.00  0.00    +0.000 C 
ATOM     15  C   UNL     1      -6.801  -0.489 132.921  0.00  0.00    +0.000 C 
ATOM     16  C   UNL     1      -7.989   0.375 132.488  0.00  0.00    +0.000 C 
ATOM     17  C   UNL     1      -8.325   0.128 131.021  0.00  0.00    +0.000 C 
ATOM     18  C   UNL     1      -7.086   0.508 130.279  0.00  0.00    +0.000 C 
ATOM     19  C   UNL     1      -7.223   1.717 129.765  0.00  0.00    +0.000 C 
BRANCH  15  20
ATOM     20  O   UNL     1      -6.554  -0.290 134.307  0.00  0.00    +0.000 OA
ATOM     21  H   UNL     1      -7.257  -0.749 134.799  0.00  0.00    +0.000 HD
ENDBRANCH  15  20
ENDBRANCH  11  12
BRANCH   1  23
ATOM     22  C   UNL     1      -9.743  -3.496 123.319  0.00  0.00    +0.000 C 
ATOM     23  C   UNL     1      -9.113  -2.193 123.828  0.00  0.00    +0.000 C 
BRANCH  23  24
ATOM     24  C   UNL     1      -9.030  -1.237 122.578  0.00  0.00    +0.000 C 
BRANCH  24  25
ATOM     25  C   UNL     1      -9.785   0.059 122.749  0.00  0.00    +0.000 C 
BRANCH  25  26
ATOM     26  C   UNL     1      -9.747   0.934 123.980  0.00  0.00    +0.000 C 
BRANCH  26  27
ATOM     27  C   UNL     1      -8.771   2.164 123.824  0.00  0.00    +0.000 C 
ATOM     28  C   UNL     1      -7.339   1.774 124.213  0.00  0.00    +0.000 C 
ATOM     29  C   UNL     1      -8.682   2.864 122.457  0.00  0.00    +0.000 C 
BRANCH  27  30
ATOM     30  O   UNL     1      -9.246   3.175 124.710  0.00  0.00    +0.000 OA
ATOM     31  H   UNL     1      -8.906   2.960 125.593  0.00  0.00    +0.000 HD
ENDBRANCH  27  30
ENDBRANCH  26  27
ENDBRANCH  25  26
ENDBRANCH  24  25
ENDBRANCH  23  24
ENDBRANCH   1  23
TORSDOF 8
ENDMDL
MODEL 2
REMARK VINA RESULT:      -7.8      2.151      3.092
REMARK  Name = Calcifediol
REMARK  12 active torsions:
REMARK  status: ('A' for Active; 'I' for Inactive)
REMARK    1  A    between atoms: C_1  and  C_2
REMARK    2  A    between atoms: C_2  and  C_3
REMARK    3  A    between atoms: C_2  and  C_10
REMARK    4  A    between atoms: C_3  and  C_4
REMARK    5  A    between atoms: C_4  and  C_5
REMARK    6  A    between atoms: C_5  and  C_6
REMARK    7  A    between atoms: C_6  and  C_7
REMARK    8  A    between atoms: C_6  and  C_8
REMARK    9  A    between atoms: C_6  and  O_9
REMARK   10  A    between atoms: C_20  and  C_21
REMARK   11  A    between atoms: C_22  and  C_23
REMARK   12  A    between atoms: C_26  and  O_27
REMARK                            x       y       z     vdW  Elec       q    Type
REMARK                         _______ _______ _______ _____ _____    ______ ____
ROOT
ATOM      1  C   UNL     1      -6.781  -2.061 125.051  0.00  0.00    +0.000 C 
ATOM      2  C   UNL     1      -5.491  -1.331 125.513  0.00  0.00    +0.000 C 
ATOM      3  C   UNL     1      -5.428  -1.423 127.040  0.00  0.00    +0.000 C 
ATOM      4  C   UNL     1      -6.394  -2.556 127.372  0.00  0.00    +0.000 C 
ATOM      5  C   UNL     1      -7.033  -2.611 128.731  0.00  0.00    +0.000 C 
ATOM      6  C   UNL     1      -8.205  -3.577 128.667  0.00  0.00    +0.000 C 
ATOM      7  C   UNL     1      -9.271  -3.687 127.592  0.00  0.00    +0.000 C 
ATOM      8  C   UNL     1      -8.549  -3.561 126.250  0.00  0.00    +0.000 C 
ATOM      9  C   UNL     1      -7.539  -2.391 126.349  0.00  0.00    +0.000 C 
ATOM     10  C   UNL     1      -8.366  -1.282 126.923  0.00  0.00    +0.000 C 
ATOM     11  C   UNL     1      -6.681  -1.943 129.847  0.00  0.00    +0.000 C 
ENDROOT
BRANCH  11  12
ATOM     12  C   UNL     1      -7.233  -2.281 131.149  0.00  0.00    +0.000 C 
ATOM     13  C   UNL     1      -6.778  -3.271 131.951  0.00  0.00    +0.000 C 
ATOM     14  C   UNL     1      -7.398  -3.529 133.296  0.00  0.00    +0.000 C 
ATOM     15  C   UNL     1      -6.306  -3.643 134.370  0.00  0.00    +0.000 C 
ATOM     16  C   UNL     1      -5.218  -4.646 133.973  0.00  0.00    +0.000 C 
ATOM     17  C   UNL     1      -4.529  -4.206 132.685  0.00  0.00    +0.000 C 
ATOM     18  C   UNL     1      -5.619  -4.164 131.665  0.00  0.00    +0.000 C 
ATOM     19  C   UNL     1      -5.582  -5.256 130.923  0.00  0.00    +0.000 C 
BRANCH  15  20
ATOM     20  O   UNL     1      -6.884  -4.042 135.607  0.00  0.00    +0.000 OA
ATOM     21  H   UNL     1      -7.661  -3.476 135.763  0.00  0.00    +0.000 HD
ENDBRANCH  15  20
ENDBRANCH  11  12
BRANCH   1  23
ATOM     22  C   UNL     1      -8.161  -2.470 123.004  0.00  0.00    +0.000 C 
ATOM     23  C   UNL     1      -7.555  -1.365 123.879  0.00  0.00    +0.000 C 
BRANCH  23  24
ATOM     24  C   UNL     1      -6.763  -0.421 122.895  0.00  0.00    +0.000 C 
BRANCH  24  25
ATOM     25  C   UNL     1      -6.857   1.043 123.248  0.00  0.00    +0.000 C 
BRANCH  25  26
ATOM     26  C   UNL     1      -7.599   1.608 124.436  0.00  0.00    +0.000 C 
BRANCH  26  27
ATOM     27  C   UNL     1      -9.006   2.210 124.047  0.00  0.00    +0.000 C 
ATOM     28  C   UNL     1      -9.034   2.610 122.566  0.00  0.00    +0.000 C 
ATOM     29  C   UNL     1     -10.263   1.362 124.300  0.00  0.00    +0.000 C 
BRANCH  27  30
ATOM     30  O   UNL     1      -9.190   3.370 124.856  0.00  0.00    +0.000 OA
ATOM     31  H   UNL     1      -9.118   3.083 125.780  0.00  0.00    +0.000 HD
ENDBRANCH  27  30
ENDBRANCH  26  27
ENDBRANCH  25  26
ENDBRANCH  24  25
ENDBRANCH  23  24
ENDBRANCH   1  23
TORSDOF 8
ENDMDL
MODEL 3
REMARK VINA RESULT:      -7.5      3.265      4.821
REMARK  Name = Calcifediol
REMARK  12 active torsions:
REMARK  status: ('A' for Active; 'I' for Inactive)
REMARK    1  A    between atoms: C_1  and  C_2
REMARK    2  A    between atoms: C_2  and  C_3
REMARK    3  A    between atoms: C_2  and  C_10
REMARK    4  A    between atoms: C_3  and  C_4
REMARK    5  A    between atoms: C_4  and  C_5
REMARK    6  A    between atoms: C_5  and  C_6
REMARK    7  A    between atoms: C_6  and  C_7
REMARK    8  A    between atoms: C_6  and  C_8
REMARK    9  A    between atoms: C_6  and  O_9
REMARK   10  A    between atoms: C_20  and  C_21
REMARK   11  A    between atoms: C_22  and  C_23
REMARK   12  A    between atoms: C_26  and  O_27
REMARK                            x       y       z     vdW  Elec       q    Type
REMARK                         _______ _______ _______ _____ _____    ______ ____
ROOT
ATOM      1  C   UNL     1      -8.616  -2.147 127.306  0.00  0.00    +0.000 C 
ATOM      2  C   UNL     1      -9.054  -3.633 127.409  0.00  0.00    +0.000 C 
ATOM      3  C   UNL     1      -8.240  -4.279 128.535  0.00  0.00    +0.000 C 
ATOM      4  C   UNL     1      -7.714  -3.087 129.328  0.00  0.00    +0.000 C 
ATOM      5  C   UNL     1      -6.469  -3.237 130.154  0.00  0.00    +0.000 C 
ATOM      6  C   UNL     1      -5.965  -1.849 130.514  0.00  0.00    +0.000 C 
ATOM      7  C   UNL     1      -5.842  -0.634 129.612  0.00  0.00    +0.000 C 
ATOM      8  C   UNL     1      -7.116  -0.589 128.768  0.00  0.00    +0.000 C 
ATOM      9  C   UNL     1      -7.410  -2.020 128.254  0.00  0.00    +0.000 C 
ATOM     10  C   UNL     1      -6.090  -2.452 127.694  0.00  0.00    +0.000 C 
ATOM     11  C   UNL     1      -5.852  -4.372 130.537  0.00  0.00    +0.000 C 
ENDROOT
BRANCH  11  12
ATOM     12  C   UNL     1      -4.798  -4.373 131.539  0.00  0.00    +0.000 C 
ATOM     13  C   UNL     1      -5.001  -4.410 132.876  0.00  0.00    +0.000 C 
ATOM     14  C   UNL     1      -3.844  -4.434 133.837  0.00  0.00    +0.000 C 
ATOM     15  C   UNL     1      -4.042  -5.547 134.876  0.00  0.00    +0.000 C 
ATOM     16  C   UNL     1      -5.417  -5.464 135.545  0.00  0.00    +0.000 C 
ATOM     17  C   UNL     1      -6.526  -5.624 134.510  0.00  0.00    +0.000 C 
ATOM     18  C   UNL     1      -6.323  -4.490 133.559  0.00  0.00    +0.000 C 
ATOM     19  C   UNL     1      -7.171  -3.516 133.833  0.00  0.00    +0.000 C 
BRANCH  15  20
ATOM     20  O   UNL     1      -3.028  -5.464 135.871  0.00  0.00    +0.000 OA
ATOM     21  H   UNL     1      -3.174  -4.641 136.370  0.00  0.00    +0.000 HD
ENDBRANCH  15  20
ENDBRANCH  11  12
BRANCH   1  23
ATOM     22  C   UNL     1      -9.165  -0.211 125.819  0.00  0.00    +0.000 C 
ATOM     23  C   UNL     1      -8.493  -1.590 125.847  0.00  0.00    +0.000 C 
BRANCH  23  24
ATOM     24  C   UNL     1      -9.136  -2.407 124.661  0.00  0.00    +0.000 C 
BRANCH  24  25
ATOM     25  C   UNL     1      -8.150  -3.267 123.908  0.00  0.00    +0.000 C 
BRANCH  25  26
ATOM     26  C   UNL     1      -6.764  -3.629 124.389  0.00  0.00    +0.000 C 
BRANCH  26  27
ATOM     27  C   UNL     1      -5.631  -2.812 123.653  0.00  0.00    +0.000 C 
ATOM     28  C   UNL     1      -4.407  -3.699 123.390  0.00  0.00    +0.000 C 
ATOM     29  C   UNL     1      -5.970  -2.119 122.323  0.00  0.00    +0.000 C 
BRANCH  27  30
ATOM     30  O   UNL     1      -5.267  -1.746 124.527  0.00  0.00    +0.000 OA
ATOM     31  H   UNL     1      -5.214  -0.943 123.986  0.00  0.00    +0.000 HD
ENDBRANCH  27  30
ENDBRANCH  26  27
ENDBRANCH  25  26
ENDBRANCH  24  25
ENDBRANCH  23  24
ENDBRANCH   1  23
TORSDOF 8
ENDMDL
MODEL 4
REMARK VINA RESULT:      -7.3      2.384      4.184
REMARK  Name = Calcifediol
REMARK  12 active torsions:
REMARK  status: ('A' for Active; 'I' for Inactive)
REMARK    1  A    between atoms: C_1  and  C_2
REMARK    2  A    between atoms: C_2  and  C_3
REMARK    3  A    between atoms: C_2  and  C_10
REMARK    4  A    between atoms: C_3  and  C_4
REMARK    5  A    between atoms: C_4  and  C_5
REMARK    6  A    between atoms: C_5  and  C_6
REMARK    7  A    between atoms: C_6  and  C_7
REMARK    8  A    between atoms: C_6  and  C_8
REMARK    9  A    between atoms: C_6  and  O_9
REMARK   10  A    between atoms: C_20  and  C_21
REMARK   11  A    between atoms: C_22  and  C_23
REMARK   12  A    between atoms: C_26  and  O_27
REMARK                            x       y       z     vdW  Elec       q    Type
REMARK                         _______ _______ _______ _____ _____    ______ ____
ROOT
ATOM      1  C   UNL     1      -8.925  -1.449 126.073  0.00  0.00    +0.000 C 
ATOM      2  C   UNL     1      -9.257  -2.958 125.913  0.00  0.00    +0.000 C 
ATOM      3  C   UNL     1      -8.757  -3.678 127.169  0.00  0.00    +0.000 C 
ATOM      4  C   UNL     1      -8.578  -2.551 128.182  0.00  0.00    +0.000 C 
ATOM      5  C   UNL     1      -7.617  -2.727 129.324  0.00  0.00    +0.000 C 
ATOM      6  C   UNL     1      -7.348  -1.362 129.934  0.00  0.00    +0.000 C 
ATOM      7  C   UNL     1      -7.064  -0.054 129.218  0.00  0.00    +0.000 C 
ATOM      8  C   UNL     1      -8.037   0.018 128.042  0.00  0.00    +0.000 C 
ATOM      9  C   UNL     1      -8.059  -1.364 127.343  0.00  0.00    +0.000 C 
ATOM     10  C   UNL     1      -6.603  -1.671 127.163  0.00  0.00    +0.000 C 
ATOM     11  C   UNL     1      -7.052  -3.865 129.772  0.00  0.00    +0.000 C 
ENDROOT
BRANCH  11  12
ATOM     12  C   UNL     1      -6.337  -3.920 131.037  0.00  0.00    +0.000 C 
ATOM     13  C   UNL     1      -5.062  -3.510 131.224  0.00  0.00    +0.000 C 
ATOM     14  C   UNL     1      -4.412  -3.582 132.578  0.00  0.00    +0.000 C 
ATOM     15  C   UNL     1      -3.739  -2.244 132.915  0.00  0.00    +0.000 C 
ATOM     16  C   UNL     1      -2.808  -1.776 131.793  0.00  0.00    +0.000 C 
ATOM     17  C   UNL     1      -3.591  -1.564 130.501  0.00  0.00    +0.000 C 
ATOM     18  C   UNL     1      -4.177  -2.902 130.189  0.00  0.00    +0.000 C 
ATOM     19  C   UNL     1      -3.454  -3.505 129.264  0.00  0.00    +0.000 C 
BRANCH  15  20
ATOM     20  O   UNL     1      -2.997  -2.367 134.122  0.00  0.00    +0.000 OA
ATOM     21  H   UNL     1      -3.308  -1.673 134.730  0.00  0.00    +0.000 HD
ENDBRANCH  15  20
ENDBRANCH  11  12
BRANCH   1  23
ATOM     22  C   UNL     1      -8.935   0.711 124.810  0.00  0.00    +0.000 C 
ATOM     23  C   UNL     1      -8.428  -0.736 124.769  0.00  0.00    +0.000 C 
BRANCH  23  24
ATOM     24  C   UNL     1      -8.871  -1.309 123.369  0.00  0.00    +0.000 C 
BRANCH  24  25
ATOM     25  C   UNL     1      -7.838  -2.195 122.717  0.00  0.00    +0.000 C 
BRANCH  25  26
ATOM     26  C   UNL     1      -6.362  -1.886 122.617  0.00  0.00    +0.000 C 
BRANCH  26  27
ATOM     27  C   UNL     1      -5.493  -2.726 123.634  0.00  0.00    +0.000 C 
ATOM     28  C   UNL     1      -6.343  -3.812 124.305  0.00  0.00    +0.000 C 
ATOM     29  C   UNL     1      -4.220  -3.415 123.117  0.00  0.00    +0.000 C 
BRANCH  27  30
ATOM     30  O   UNL     1      -5.025  -1.810 124.621  0.00  0.00    +0.000 OA
ATOM     31  H   UNL     1      -4.298  -1.309 124.220  0.00  0.00    +0.000 HD
ENDBRANCH  27  30
ENDBRANCH  26  27
ENDBRANCH  25  26
ENDBRANCH  24  25
ENDBRANCH  23  24
ENDBRANCH   1  23
TORSDOF 8
ENDMDL
MODEL 5
REMARK VINA RESULT:      -7.2      3.387      9.402
REMARK  Name = Calcifediol
REMARK  12 active torsions:
REMARK  status: ('A' for Active; 'I' for Inactive)
REMARK    1  A    between atoms: C_1  and  C_2
REMARK    2  A    between atoms: C_2  and  C_3
REMARK    3  A    between atoms: C_2  and  C_10
REMARK    4  A    between atoms: C_3  and  C_4
REMARK    5  A    between atoms: C_4  and  C_5
REMARK    6  A    between atoms: C_5  and  C_6
REMARK    7  A    between atoms: C_6  and  C_7
REMARK    8  A    between atoms: C_6  and  C_8
REMARK    9  A    between atoms: C_6  and  O_9
REMARK   10  A    between atoms: C_20  and  C_21
REMARK   11  A    between atoms: C_22  and  C_23
REMARK   12  A    between atoms: C_26  and  O_27
REMARK                            x       y       z     vdW  Elec       q    Type
REMARK                         _______ _______ _______ _____ _____    ______ ____
ROOT
ATOM      1  C   UNL     1      -5.176  -2.849 132.780  0.00  0.00    +0.000 C 
ATOM      2  C   UNL     1      -4.615  -4.152 132.149  0.00  0.00    +0.000 C 
ATOM      3  C   UNL     1      -5.340  -4.371 130.818  0.00  0.00    +0.000 C 
ATOM      4  C   UNL     1      -5.938  -3.003 130.504  0.00  0.00    +0.000 C 
ATOM      5  C   UNL     1      -7.142  -2.907 129.612  0.00  0.00    +0.000 C 
ATOM      6  C   UNL     1      -7.747  -1.522 129.775  0.00  0.00    +0.000 C 
ATOM      7  C   UNL     1      -7.996  -0.754 131.059  0.00  0.00    +0.000 C 
ATOM      8  C   UNL     1      -6.756  -0.951 131.931  0.00  0.00    +0.000 C 
ATOM      9  C   UNL     1      -6.360  -2.448 131.882  0.00  0.00    +0.000 C 
ATOM     10  C   UNL     1      -7.657  -3.146 132.159  0.00  0.00    +0.000 C 
ATOM     11  C   UNL     1      -7.652  -3.848 128.793  0.00  0.00    +0.000 C 
ENDROOT
BRANCH  11  12
ATOM     12  C   UNL     1      -8.673  -3.535 127.806  0.00  0.00    +0.000 C 
ATOM     13  C   UNL     1      -8.432  -3.009 126.583  0.00  0.00    +0.000 C 
ATOM     14  C   UNL     1      -9.553  -2.742 125.617  0.00  0.00    +0.000 C 
ATOM     15  C   UNL     1      -9.208  -3.315 124.235  0.00  0.00    +0.000 C 
ATOM     16  C   UNL     1      -7.832  -2.848 123.750  0.00  0.00    +0.000 C 
ATOM     17  C   UNL     1      -6.741  -3.315 124.708  0.00  0.00    +0.000 C 
ATOM     18  C   UNL     1      -7.091  -2.688 126.018  0.00  0.00    +0.000 C 
ATOM     19  C   UNL     1      -6.346  -1.615 126.216  0.00  0.00    +0.000 C 
BRANCH  15  20
ATOM     20  O   UNL     1     -10.197  -2.925 123.290  0.00  0.00    +0.000 OA
ATOM     21  H   UNL     1      -9.764  -2.356 122.629  0.00  0.00    +0.000 HD
ENDBRANCH  15  20
ENDBRANCH  11  12
BRANCH   1  23
ATOM     22  C   UNL     1      -4.749  -1.637 134.928  0.00  0.00    +0.000 C 
ATOM     23  C   UNL     1      -5.387  -2.899 134.332  0.00  0.00    +0.000 C 
BRANCH  23  24
ATOM     24  C   UNL     1      -4.789  -4.110 135.145  0.00  0.00    +0.000 C 
BRANCH  24  25
ATOM     25  C   UNL     1      -5.805  -5.167 135.502  0.00  0.00    +0.000 C 
BRANCH  25  26
ATOM     26  C   UNL     1      -7.212  -5.243 134.957  0.00  0.00    +0.000 C 
BRANCH  26  27
ATOM     27  C   UNL     1      -8.290  -4.699 135.974  0.00  0.00    +0.000 C 
ATOM     28  C   UNL     1      -9.388  -5.743 136.212  0.00  0.00    +0.000 C 
ATOM     29  C   UNL     1      -7.821  -4.226 137.360  0.00  0.00    +0.000 C 
BRANCH  27  30
ATOM     30  O   UNL     1      -8.861  -3.536 135.377  0.00  0.00    +0.000 OA
ATOM     31  H   UNL     1      -8.427  -3.418 134.517  0.00  0.00    +0.000 HD
ENDBRANCH  27  30
ENDBRANCH  26  27
ENDBRANCH  25  26
ENDBRANCH  24  25
ENDBRANCH  23  24
ENDBRANCH   1  23
TORSDOF 8
ENDMDL
MODEL 6
REMARK VINA RESULT:      -7.2      1.971      3.279
REMARK  Name = Calcifediol
REMARK  12 active torsions:
REMARK  status: ('A' for Active; 'I' for Inactive)
REMARK    1  A    between atoms: C_1  and  C_2
REMARK    2  A    between atoms: C_2  and  C_3
REMARK    3  A    between atoms: C_2  and  C_10
REMARK    4  A    between atoms: C_3  and  C_4
REMARK    5  A    between atoms: C_4  and  C_5
REMARK    6  A    between atoms: C_5  and  C_6
REMARK    7  A    between atoms: C_6  and  C_7
REMARK    8  A    between atoms: C_6  and  C_8
REMARK    9  A    between atoms: C_6  and  O_9
REMARK   10  A    between atoms: C_20  and  C_21
REMARK   11  A    between atoms: C_22  and  C_23
REMARK   12  A    between atoms: C_26  and  O_27
REMARK                            x       y       z     vdW  Elec       q    Type
REMARK                         _______ _______ _______ _____ _____    ______ ____
ROOT
ATOM      1  C   UNL     1      -8.483  -1.559 124.619  0.00  0.00    +0.000 C 
ATOM      2  C   UNL     1      -8.809  -3.076 124.547  0.00  0.00    +0.000 C 
ATOM      3  C   UNL     1      -8.599  -3.662 125.945  0.00  0.00    +0.000 C 
ATOM      4  C   UNL     1      -8.610  -2.437 126.855  0.00  0.00    +0.000 C 
ATOM      5  C   UNL     1      -7.913  -2.495 128.184  0.00  0.00    +0.000 C 
ATOM      6  C   UNL     1      -7.746  -1.074 128.697  0.00  0.00    +0.000 C 
ATOM      7  C   UNL     1      -7.288   0.152 127.928  0.00  0.00    +0.000 C 
ATOM      8  C   UNL     1      -7.993   0.103 126.572  0.00  0.00    +0.000 C 
ATOM      9  C   UNL     1      -7.900  -1.344 126.027  0.00  0.00    +0.000 C 
ATOM     10  C   UNL     1      -6.446  -1.669 126.189  0.00  0.00    +0.000 C 
ATOM     11  C   UNL     1      -7.480  -3.581 128.854  0.00  0.00    +0.000 C 
ENDROOT
BRANCH  11  12
ATOM     12  C   UNL     1      -7.046  -3.505 130.240  0.00  0.00    +0.000 C 
ATOM     13  C   UNL     1      -5.800  -3.166 130.644  0.00  0.00    +0.000 C 
ATOM     14  C   UNL     1      -5.451  -3.090 132.105  0.00  0.00    +0.000 C 
ATOM     15  C   UNL     1      -4.728  -1.769 132.408  0.00  0.00    +0.000 C 
ATOM     16  C   UNL     1      -3.546  -1.536 131.463  0.00  0.00    +0.000 C 
ATOM     17  C   UNL     1      -4.025  -1.456 130.017  0.00  0.00    +0.000 C 
ATOM     18  C   UNL     1      -4.668  -2.779 129.756  0.00  0.00    +0.000 C 
ATOM     19  C   UNL     1      -3.836  -3.560 129.091  0.00  0.00    +0.000 C 
BRANCH  15  20
ATOM     20  O   UNL     1      -4.263  -1.771 133.752  0.00  0.00    +0.000 OA
ATOM     21  H   UNL     1      -4.775  -2.441 134.239  0.00  0.00    +0.000 HD
ENDBRANCH  15  20
ENDBRANCH  11  12
BRANCH   1  23
ATOM     22  C   UNL     1      -6.782  -2.093 122.864  0.00  0.00    +0.000 C 
ATOM     23  C   UNL     1      -7.708  -0.986 123.384  0.00  0.00    +0.000 C 
BRANCH  23  24
ATOM     24  C   UNL     1      -6.795   0.285 123.577  0.00  0.00    +0.000 C 
BRANCH  24  25
ATOM     25  C   UNL     1      -7.491   1.588 123.266  0.00  0.00    +0.000 C 
BRANCH  25  26
ATOM     26  C   UNL     1      -6.803   2.919 123.074  0.00  0.00    +0.000 C 
BRANCH  26  27
ATOM     27  C   UNL     1      -6.643   3.723 124.424  0.00  0.00    +0.000 C 
ATOM     28  C   UNL     1      -7.991   3.845 125.146  0.00  0.00    +0.000 C 
ATOM     29  C   UNL     1      -5.628   3.219 125.464  0.00  0.00    +0.000 C 
BRANCH  27  30
ATOM     30  O   UNL     1      -6.174   5.022 124.070  0.00  0.00    +0.000 OA
ATOM     31  H   UNL     1      -5.453   5.239 124.682  0.00  0.00    +0.000 HD
ENDBRANCH  27  30
ENDBRANCH  26  27
ENDBRANCH  25  26
ENDBRANCH  24  25
ENDBRANCH  23  24
ENDBRANCH   1  23
TORSDOF 8
ENDMDL
MODEL 7
REMARK VINA RESULT:      -7.1      5.263      7.587
REMARK  Name = Calcifediol
REMARK  12 active torsions:
REMARK  status: ('A' for Active; 'I' for Inactive)
REMARK    1  A    between atoms: C_1  and  C_2
REMARK    2  A    between atoms: C_2  and  C_3
REMARK    3  A    between atoms: C_2  and  C_10
REMARK    4  A    between atoms: C_3  and  C_4
REMARK    5  A    between atoms: C_4  and  C_5
REMARK    6  A    between atoms: C_5  and  C_6
REMARK    7  A    between atoms: C_6  and  C_7
REMARK    8  A    between atoms: C_6  and  C_8
REMARK    9  A    between atoms: C_6  and  O_9
REMARK   10  A    between atoms: C_20  and  C_21
REMARK   11  A    between atoms: C_22  and  C_23
REMARK   12  A    between atoms: C_26  and  O_27
REMARK                            x       y       z     vdW  Elec       q    Type
REMARK                         _______ _______ _______ _____ _____    ______ ____
ROOT
ATOM      1  C   UNL     1      -9.782   4.478 131.766  0.00  0.00    +0.000 C 
ATOM      2  C   UNL     1     -10.029   3.832 130.376  0.00  0.00    +0.000 C 
ATOM      3  C   UNL     1      -9.075   2.642 130.242  0.00  0.00    +0.000 C 
ATOM      4  C   UNL     1      -8.650   2.358 131.679  0.00  0.00    +0.000 C 
ATOM      5  C   UNL     1      -7.346   1.660 131.943  0.00  0.00    +0.000 C 
ATOM      6  C   UNL     1      -6.994   1.846 133.409  0.00  0.00    +0.000 C 
ATOM      7  C   UNL     1      -7.075   3.115 134.239  0.00  0.00    +0.000 C 
ATOM      8  C   UNL     1      -8.394   3.792 133.869  0.00  0.00    +0.000 C 
ATOM      9  C   UNL     1      -8.544   3.756 132.327  0.00  0.00    +0.000 C 
ATOM     10  C   UNL     1      -7.218   4.265 131.850  0.00  0.00    +0.000 C 
ATOM     11  C   UNL     1      -6.574   0.977 131.074  0.00  0.00    +0.000 C 
ENDROOT
BRANCH  11  12
ATOM     12  C   UNL     1      -5.467   0.146 131.521  0.00  0.00    +0.000 C 
ATOM     13  C   UNL     1      -5.570  -1.156 131.875  0.00  0.00    +0.000 C 
ATOM     14  C   UNL     1      -4.362  -1.943 132.300  0.00  0.00    +0.000 C 
ATOM     15  C   UNL     1      -4.311  -3.282 131.549  0.00  0.00    +0.000 C 
ATOM     16  C   UNL     1      -5.633  -4.047 131.656  0.00  0.00    +0.000 C 
ATOM     17  C   UNL     1      -6.771  -3.238 131.041  0.00  0.00    +0.000 C 
ATOM     18  C   UNL     1      -6.814  -1.976 131.840  0.00  0.00    +0.000 C 
ATOM     19  C   UNL     1      -7.784  -2.043 132.733  0.00  0.00    +0.000 C 
BRANCH  15  20
ATOM     20  O   UNL     1      -3.258  -4.086 132.067  0.00  0.00    +0.000 OA
ATOM     21  H   UNL     1      -2.722  -3.525 132.654  0.00  0.00    +0.000 HD
ENDBRANCH  15  20
ENDBRANCH  11  12
BRANCH   1  23
ATOM     22  C   UNL     1     -11.290   6.473 131.863  0.00  0.00    +0.000 C 
ATOM     23  C   UNL     1      -9.819   6.044 131.787  0.00  0.00    +0.000 C 
BRANCH  23  24
ATOM     24  C   UNL     1      -9.199   6.839 130.574  0.00  0.00    +0.000 C 
BRANCH  24  25
ATOM     25  C   UNL     1     -10.225   7.541 129.718  0.00  0.00    +0.000 C 
BRANCH  25  26
ATOM     26  C   UNL     1     -10.552   7.190 128.286  0.00  0.00    +0.000 C 
BRANCH  26  27
ATOM     27  C   UNL     1     -12.052   7.507 127.907  0.00  0.00    +0.000 C 
ATOM     28  C   UNL     1     -12.333   7.140 126.445  0.00  0.00    +0.000 C 
ATOM     29  C   UNL     1     -13.172   6.870 128.746  0.00  0.00    +0.000 C 
BRANCH  27  30
ATOM     30  O   UNL     1     -12.228   8.911 128.088  0.00  0.00    +0.000 OA
ATOM     31  H   UNL     1     -11.391   9.259 128.433  0.00  0.00    +0.000 HD
ENDBRANCH  27  30
ENDBRANCH  26  27
ENDBRANCH  25  26
ENDBRANCH  24  25
ENDBRANCH  23  24
ENDBRANCH   1  23
TORSDOF 8
ENDMDL
MODEL 8
REMARK VINA RESULT:      -7.1      3.279      4.363
REMARK  Name = Calcifediol
REMARK  12 active torsions:
REMARK  status: ('A' for Active; 'I' for Inactive)
REMARK    1  A    between atoms: C_1  and  C_2
REMARK    2  A    between atoms: C_2  and  C_3
REMARK    3  A    between atoms: C_2  and  C_10
REMARK    4  A    between atoms: C_3  and  C_4
REMARK    5  A    between atoms: C_4  and  C_5
REMARK    6  A    between atoms: C_5  and  C_6
REMARK    7  A    between atoms: C_6  and  C_7
REMARK    8  A    between atoms: C_6  and  C_8
REMARK    9  A    between atoms: C_6  and  O_9
REMARK   10  A    between atoms: C_20  and  C_21
REMARK   11  A    between atoms: C_22  and  C_23
REMARK   12  A    between atoms: C_26  and  O_27
REMARK                            x       y       z     vdW  Elec       q    Type
REMARK                         _______ _______ _______ _____ _____    ______ ____
ROOT
ATOM      1  C   UNL     1      -7.102  -2.595 126.970  0.00  0.00    +0.000 C 
ATOM      2  C   UNL     1      -6.140  -2.130 125.843  0.00  0.00    +0.000 C 
ATOM      3  C   UNL     1      -5.331  -0.947 126.382  0.00  0.00    +0.000 C 
ATOM      4  C   UNL     1      -5.506  -1.051 127.894  0.00  0.00    +0.000 C 
ATOM      5  C   UNL     1      -5.347   0.176 128.745  0.00  0.00    +0.000 C 
ATOM      6  C   UNL     1      -5.937  -0.115 130.116  0.00  0.00    +0.000 C 
ATOM      7  C   UNL     1      -7.249  -0.804 130.444  0.00  0.00    +0.000 C 
ATOM      8  C   UNL     1      -7.361  -2.000 129.499  0.00  0.00    +0.000 C 
ATOM      9  C   UNL     1      -6.961  -1.534 128.076  0.00  0.00    +0.000 C 
ATOM     10  C   UNL     1      -7.770  -0.287 127.893  0.00  0.00    +0.000 C 
ATOM     11  C   UNL     1      -4.796   1.359 128.411  0.00  0.00    +0.000 C 
ENDROOT
BRANCH  11  12
ATOM     12  C   UNL     1      -4.488   2.372 129.408  0.00  0.00    +0.000 C 
ATOM     13  C   UNL     1      -3.804   3.514 129.166  0.00  0.00    +0.000 C 
ATOM     14  C   UNL     1      -3.555   4.517 130.259  0.00  0.00    +0.000 C 
ATOM     15  C   UNL     1      -3.929   5.927 129.779  0.00  0.00    +0.000 C 
ATOM     16  C   UNL     1      -3.263   6.270 128.443  0.00  0.00    +0.000 C 
ATOM     17  C   UNL     1      -3.713   5.299 127.356  0.00  0.00    +0.000 C 
ATOM     18  C   UNL     1      -3.278   3.956 127.843  0.00  0.00    +0.000 C 
ATOM     19  C   UNL     1      -2.159   3.598 127.239  0.00  0.00    +0.000 C 
BRANCH  15  20
ATOM     20  O   UNL     1      -3.546   6.887 130.756  0.00  0.00    +0.000 OA
ATOM     21  H   UNL     1      -3.075   6.413 131.464  0.00  0.00    +0.000 HD
ENDBRANCH  15  20
ENDBRANCH  11  12
BRANCH   1  23
ATOM     22  C   UNL     1      -9.111  -3.977 127.529  0.00  0.00    +0.000 C 
ATOM     23  C   UNL     1      -8.537  -3.003 126.491  0.00  0.00    +0.000 C 
BRANCH  23  24
ATOM     24  C   UNL     1      -8.703  -3.714 125.094  0.00  0.00    +0.000 C 
BRANCH  24  25
ATOM     25  C   UNL     1      -9.400  -2.867 124.058  0.00  0.00    +0.000 C 
BRANCH  25  26
ATOM     26  C   UNL     1      -8.718  -1.895 123.124  0.00  0.00    +0.000 C 
BRANCH  26  27
ATOM     27  C   UNL     1      -9.039  -0.388 123.471  0.00  0.00    +0.000 C 
ATOM     28  C   UNL     1      -7.749   0.436 123.558  0.00  0.00    +0.000 C 
ATOM     29  C   UNL     1     -10.000   0.389 122.555  0.00  0.00    +0.000 C 
BRANCH  27  30
ATOM     30  O   UNL     1      -9.687  -0.394 124.741  0.00  0.00    +0.000 OA
ATOM     31  H   UNL     1     -10.245   0.399 124.778  0.00  0.00    +0.000 HD
ENDBRANCH  27  30
ENDBRANCH  26  27
ENDBRANCH  25  26
ENDBRANCH  24  25
ENDBRANCH  23  24
ENDBRANCH   1  23
TORSDOF 8
ENDMDL
MODEL 9
REMARK VINA RESULT:      -7.0      3.410      5.231
REMARK  Name = Calcifediol
REMARK  12 active torsions:
REMARK  status: ('A' for Active; 'I' for Inactive)
REMARK    1  A    between atoms: C_1  and  C_2
REMARK    2  A    between atoms: C_2  and  C_3
REMARK    3  A    between atoms: C_2  and  C_10
REMARK    4  A    between atoms: C_3  and  C_4
REMARK    5  A    between atoms: C_4  and  C_5
REMARK    6  A    between atoms: C_5  and  C_6
REMARK    7  A    between atoms: C_6  and  C_7
REMARK    8  A    between atoms: C_6  and  C_8
REMARK    9  A    between atoms: C_6  and  O_9
REMARK   10  A    between atoms: C_20  and  C_21
REMARK   11  A    between atoms: C_22  and  C_23
REMARK   12  A    between atoms: C_26  and  O_27
REMARK                            x       y       z     vdW  Elec       q    Type
REMARK                         _______ _______ _______ _____ _____    ______ ____
ROOT
ATOM      1  C   UNL     1      -7.220  -2.570 128.688  0.00  0.00    +0.000 C 
ATOM      2  C   UNL     1      -5.848  -2.814 128.004  0.00  0.00    +0.000 C 
ATOM      3  C   UNL     1      -4.934  -1.640 128.367  0.00  0.00    +0.000 C 
ATOM      4  C   UNL     1      -5.619  -1.012 129.578  0.00  0.00    +0.000 C 
ATOM      5  C   UNL     1      -5.373   0.434 129.901  0.00  0.00    +0.000 C 
ATOM      6  C   UNL     1      -6.440   0.890 130.883  0.00  0.00    +0.000 C 
ATOM      7  C   UNL     1      -7.932   0.619 130.838  0.00  0.00    +0.000 C 
ATOM      8  C   UNL     1      -8.095  -0.850 130.446  0.00  0.00    +0.000 C 
ATOM      9  C   UNL     1      -7.127  -1.151 129.275  0.00  0.00    +0.000 C 
ATOM     10  C   UNL     1      -7.398  -0.029 128.320  0.00  0.00    +0.000 C 
ATOM     11  C   UNL     1      -4.402   1.241 129.431  0.00  0.00    +0.000 C 
ENDROOT
BRANCH  11  12
ATOM     12  C   UNL     1      -4.138   2.546 130.018  0.00  0.00    +0.000 C 
ATOM     13  C   UNL     1      -3.656   3.615 129.345  0.00  0.00    +0.000 C 
ATOM     14  C   UNL     1      -3.438   4.934 130.033  0.00  0.00    +0.000 C 
ATOM     15  C   UNL     1      -4.060   6.071 129.208  0.00  0.00    +0.000 C 
ATOM     16  C   UNL     1      -3.597   6.036 127.749  0.00  0.00    +0.000 C 
ATOM     17  C   UNL     1      -4.016   4.728 127.085  0.00  0.00    +0.000 C 
ATOM     18  C   UNL     1      -3.343   3.663 127.888  0.00  0.00    +0.000 C 
ATOM     19  C   UNL     1      -2.255   3.249 127.263  0.00  0.00    +0.000 C 
BRANCH  15  20
ATOM     20  O   UNL     1      -3.717   7.327 129.781  0.00  0.00    +0.000 OA
ATOM     21  H   UNL     1      -3.034   7.165 130.455  0.00  0.00    +0.000 HD
ENDBRANCH  15  20
ENDBRANCH  11  12
BRANCH   1  23
ATOM     22  C   UNL     1      -9.233  -4.052 128.570  0.00  0.00    +0.000 C 
ATOM     23  C   UNL     1      -8.470  -2.950 127.823  0.00  0.00    +0.000 C 
BRANCH  23  24
ATOM     24  C   UNL     1      -8.250  -3.494 126.359  0.00  0.00    +0.000 C 
BRANCH  24  25
ATOM     25  C   UNL     1      -8.310  -2.424 125.296  0.00  0.00    +0.000 C 
BRANCH  25  26
ATOM     26  C   UNL     1      -7.808  -2.574 123.879  0.00  0.00    +0.000 C 
BRANCH  26  27
ATOM     27  C   UNL     1      -6.245  -2.380 123.761  0.00  0.00    +0.000 C 
ATOM     28  C   UNL     1      -5.764  -1.268 124.702  0.00  0.00    +0.000 C 
ATOM     29  C   UNL     1      -5.334  -3.594 124.008  0.00  0.00    +0.000 C 
BRANCH  27  30
ATOM     30  O   UNL     1      -5.983  -2.008 122.410  0.00  0.00    +0.000 OA
ATOM     31  H   UNL     1      -6.214  -1.069 122.326  0.00  0.00    +0.000 HD
ENDBRANCH  27  30
ENDBRANCH  26  27
ENDBRANCH  25  26
ENDBRANCH  24  25
ENDBRANCH  23  24
ENDBRANCH   1  23
TORSDOF 8
ENDMDL
