MODEL 1
REMARK VINA RESULT:      -5.6      0.000      0.000
REMARK  Name = Camphor
REMARK  3 active torsions:
REMARK  status: ('A' for Active; 'I' for Inactive)
REMARK    1  A    between atoms: C_5  and  C_6
REMARK    2  A    between atoms: C_10  and  C_11
REMARK    3  A    between atoms: C_10  and  C_12
REMARK                            x       y       z     vdW  Elec       q    Type
REMARK                         _______ _______ _______ _____ _____    ______ ____
ROOT
ATOM      1  C   UNL     1     -13.484   6.967 128.788  0.00  0.00    +0.000 C 
ATOM      2  C   UNL     1     -12.553   5.903 129.425  0.00  0.00    +0.000 C 
ATOM      3  C   UNL     1     -11.140   6.489 129.198  0.00  0.00    +0.000 C 
ATOM      4  C   UNL     1     -11.433   7.834 128.492  0.00  0.00    +0.000 C 
ATOM      5  C   UNL     1     -10.286   8.816 128.470  0.00  0.00    +0.000 C 
ATOM      6  C   UNL     1     -11.936   7.398 127.111  0.00  0.00    +0.000 C 
ATOM      7  O   UNL     1     -11.306   7.456 126.068  0.00  0.00    +0.000 OA
ATOM      8  C   UNL     1     -13.338   6.837 127.251  0.00  0.00    +0.000 C 
ATOM      9  C   UNL     1     -12.768   8.302 129.133  0.00  0.00    +0.000 C 
ATOM     10  C   UNL     1     -12.675   8.594 130.644  0.00  0.00    +0.000 C 
ATOM     11  C   UNL     1     -13.388   9.547 128.473  0.00  0.00    +0.000 C 
ENDROOT
TORSDOF 0
ENDMDL
MODEL 2
REMARK VINA RESULT:      -5.3     10.245     11.501
REMARK  Name = Camphor
REMARK  3 active torsions:
REMARK  status: ('A' for Active; 'I' for Inactive)
REMARK    1  A    between atoms: C_5  and  C_6
REMARK    2  A    between atoms: C_10  and  C_11
REMARK    3  A    between atoms: C_10  and  C_12
REMARK                            x       y       z     vdW  Elec       q    Type
REMARK                         _______ _______ _______ _____ _____    ______ ____
ROOT
ATOM      1  C   UNL     1      -8.451  -3.422 124.914  0.00  0.00    +0.000 C 
ATOM      2  C   UNL     1      -9.082  -3.376 123.499  0.00  0.00    +0.000 C 
ATOM      3  C   UNL     1      -8.826  -1.920 123.044  0.00  0.00    +0.000 C 
ATOM      4  C   UNL     1      -8.049  -1.318 124.238  0.00  0.00    +0.000 C 
ATOM      5  C   UNL     1      -7.328  -0.021 123.951  0.00  0.00    +0.000 C 
ATOM      6  C   UNL     1      -9.111  -1.235 125.339  0.00  0.00    +0.000 C 
ATOM      7  O   UNL     1      -9.671  -0.221 125.720  0.00  0.00    +0.000 OA
ATOM      8  C   UNL     1      -9.394  -2.632 125.857  0.00  0.00    +0.000 C 
ATOM      9  C   UNL     1      -7.203  -2.509 124.763  0.00  0.00    +0.000 C 
ATOM     10  C   UNL     1      -6.158  -3.035 123.759  0.00  0.00    +0.000 C 
ATOM     11  C   UNL     1      -6.456  -2.228 126.080  0.00  0.00    +0.000 C 
ENDROOT
TORSDOF 0
ENDMDL
MODEL 3
REMARK VINA RESULT:      -5.2     10.521     11.888
REMARK  Name = Camphor
REMARK  3 active torsions:
REMARK  status: ('A' for Active; 'I' for Inactive)
REMARK    1  A    between atoms: C_5  and  C_6
REMARK    2  A    between atoms: C_10  and  C_11
REMARK    3  A    between atoms: C_10  and  C_12
REMARK                            x       y       z     vdW  Elec       q    Type
REMARK                         _______ _______ _______ _____ _____    ______ ____
ROOT
ATOM      1  C   UNL     1      -5.989  -1.233 125.001  0.00  0.00    +0.000 C 
ATOM      2  C   UNL     1      -6.286  -1.921 126.358  0.00  0.00    +0.000 C 
ATOM      3  C   UNL     1      -7.565  -2.740 126.067  0.00  0.00    +0.000 C 
ATOM      4  C   UNL     1      -7.826  -2.451 124.570  0.00  0.00    +0.000 C 
ATOM      5  C   UNL     1      -8.788  -3.396 123.888  0.00  0.00    +0.000 C 
ATOM      6  C   UNL     1      -8.257  -0.981 124.569  0.00  0.00    +0.000 C 
ATOM      7  O   UNL     1      -9.396  -0.568 124.427  0.00  0.00    +0.000 OA
ATOM      8  C   UNL     1      -7.041  -0.110 124.821  0.00  0.00    +0.000 C 
ATOM      9  C   UNL     1      -6.401  -2.318 123.968  0.00  0.00    +0.000 C 
ATOM     10  C   UNL     1      -5.560  -3.609 124.042  0.00  0.00    +0.000 C 
ATOM     11  C   UNL     1      -6.371  -1.847 122.503  0.00  0.00    +0.000 C 
ENDROOT
TORSDOF 0
ENDMDL
MODEL 4
REMARK VINA RESULT:      -5.2     10.567     11.778
REMARK  Name = Camphor
REMARK  3 active torsions:
REMARK  status: ('A' for Active; 'I' for Inactive)
REMARK    1  A    between atoms: C_5  and  C_6
REMARK    2  A    between atoms: C_10  and  C_11
REMARK    3  A    between atoms: C_10  and  C_12
REMARK                            x       y       z     vdW  Elec       q    Type
REMARK                         _______ _______ _______ _____ _____    ______ ____
ROOT
ATOM      1  C   UNL     1      -6.517  -2.977 123.652  0.00  0.00    +0.000 C 
ATOM      2  C   UNL     1      -5.604  -2.713 124.877  0.00  0.00    +0.000 C 
ATOM      3  C   UNL     1      -6.362  -1.609 125.651  0.00  0.00    +0.000 C 
ATOM      4  C   UNL     1      -7.635  -1.401 124.797  0.00  0.00    +0.000 C 
ATOM      5  C   UNL     1      -8.758  -0.657 125.482  0.00  0.00    +0.000 C 
ATOM      6  C   UNL     1      -7.097  -0.732 123.528  0.00  0.00    +0.000 C 
ATOM      7  O   UNL     1      -7.205   0.449 123.239  0.00  0.00    +0.000 OA
ATOM      8  C   UNL     1      -6.361  -1.766 122.699  0.00  0.00    +0.000 C 
ATOM      9  C   UNL     1      -7.944  -2.820 124.247  0.00  0.00    +0.000 C 
ATOM     10  C   UNL     1      -8.290  -3.858 125.333  0.00  0.00    +0.000 C 
ATOM     11  C   UNL     1      -9.077  -2.866 123.205  0.00  0.00    +0.000 C 
ENDROOT
TORSDOF 0
ENDMDL
MODEL 5
REMARK VINA RESULT:      -5.2     10.582     11.875
REMARK  Name = Camphor
REMARK  3 active torsions:
REMARK  status: ('A' for Active; 'I' for Inactive)
REMARK    1  A    between atoms: C_5  and  C_6
REMARK    2  A    between atoms: C_10  and  C_11
REMARK    3  A    between atoms: C_10  and  C_12
REMARK                            x       y       z     vdW  Elec       q    Type
REMARK                         _______ _______ _______ _____ _____    ______ ____
ROOT
ATOM      1  C   UNL     1      -7.123  -1.296 123.465  0.00  0.00    +0.000 C 
ATOM      2  C   UNL     1      -7.895  -0.170 124.200  0.00  0.00    +0.000 C 
ATOM      3  C   UNL     1      -8.743  -0.943 125.238  0.00  0.00    +0.000 C 
ATOM      4  C   UNL     1      -8.328  -2.413 124.997  0.00  0.00    +0.000 C 
ATOM      5  C   UNL     1      -8.698  -3.378 126.099  0.00  0.00    +0.000 C 
ATOM      6  C   UNL     1      -8.945  -2.728 123.630  0.00  0.00    +0.000 C 
ATOM      7  O   UNL     1      -9.940  -3.405 123.431  0.00  0.00    +0.000 OA
ATOM      8  C   UNL     1      -8.142  -2.024 122.553  0.00  0.00    +0.000 C 
ATOM      9  C   UNL     1      -6.829  -2.312 124.603  0.00  0.00    +0.000 C 
ATOM     10  C   UNL     1      -5.919  -1.761 125.719  0.00  0.00    +0.000 C 
ATOM     11  C   UNL     1      -6.205  -3.637 124.129  0.00  0.00    +0.000 C 
ENDROOT
TORSDOF 0
ENDMDL
MODEL 6
REMARK VINA RESULT:      -5.1     10.385     11.674
REMARK  Name = Camphor
REMARK  3 active torsions:
REMARK  status: ('A' for Active; 'I' for Inactive)
REMARK    1  A    between atoms: C_5  and  C_6
REMARK    2  A    between atoms: C_10  and  C_11
REMARK    3  A    between atoms: C_10  and  C_12
REMARK                            x       y       z     vdW  Elec       q    Type
REMARK                         _______ _______ _______ _____ _____    ______ ____
ROOT
ATOM      1  C   UNL     1      -7.558  -2.543 126.054  0.00  0.00    +0.000 C 
ATOM      2  C   UNL     1      -8.521  -3.725 125.775  0.00  0.00    +0.000 C 
ATOM      3  C   UNL     1      -8.980  -3.470 124.320  0.00  0.00    +0.000 C 
ATOM      4  C   UNL     1      -8.197  -2.195 123.929  0.00  0.00    +0.000 C 
ATOM      5  C   UNL     1      -8.140  -1.901 122.449  0.00  0.00    +0.000 C 
ATOM      6  C   UNL     1      -8.862  -1.106 124.778  0.00  0.00    +0.000 C 
ATOM      7  O   UNL     1      -9.640  -0.257 124.375  0.00  0.00    +0.000 OA
ATOM      8  C   UNL     1      -8.431  -1.275 126.222  0.00  0.00    +0.000 C 
ATOM      9  C   UNL     1      -6.850  -2.346 124.685  0.00  0.00    +0.000 C 
ATOM     10  C   UNL     1      -6.004  -3.554 124.235  0.00  0.00    +0.000 C 
ATOM     11  C   UNL     1      -5.937  -1.108 124.612  0.00  0.00    +0.000 C 
ENDROOT
TORSDOF 0
ENDMDL
MODEL 7
REMARK VINA RESULT:      -5.0     10.369     11.620
REMARK  Name = Camphor
REMARK  3 active torsions:
REMARK  status: ('A' for Active; 'I' for Inactive)
REMARK    1  A    between atoms: C_5  and  C_6
REMARK    2  A    between atoms: C_10  and  C_11
REMARK    3  A    between atoms: C_10  and  C_12
REMARK                            x       y       z     vdW  Elec       q    Type
REMARK                         _______ _______ _______ _____ _____    ______ ____
ROOT
ATOM      1  C   UNL     1      -7.447  -3.486 124.675  0.00  0.00    +0.000 C 
ATOM      2  C   UNL     1      -8.414  -3.686 125.870  0.00  0.00    +0.000 C 
ATOM      3  C   UNL     1      -9.061  -2.291 126.039  0.00  0.00    +0.000 C 
ATOM      4  C   UNL     1      -8.414  -1.471 124.899  0.00  0.00    +0.000 C 
ATOM      5  C   UNL     1      -9.111  -0.174 124.561  0.00  0.00    +0.000 C 
ATOM      6  C   UNL     1      -6.960  -1.320 125.360  0.00  0.00    +0.000 C 
ATOM      7  O   UNL     1      -6.455  -0.310 125.821  0.00  0.00    +0.000 OA
ATOM      8  C   UNL     1      -6.250  -2.650 125.194  0.00  0.00    +0.000 C 
ATOM      9  C   UNL     1      -8.232  -2.508 123.758  0.00  0.00    +0.000 C 
ATOM     10  C   UNL     1      -9.553  -3.084 123.210  0.00  0.00    +0.000 C 
ATOM     11  C   UNL     1      -7.434  -1.989 122.548  0.00  0.00    +0.000 C 
ENDROOT
TORSDOF 0
ENDMDL
MODEL 8
REMARK VINA RESULT:      -5.0     10.742     11.809
REMARK  Name = Camphor
REMARK  3 active torsions:
REMARK  status: ('A' for Active; 'I' for Inactive)
REMARK    1  A    between atoms: C_5  and  C_6
REMARK    2  A    between atoms: C_10  and  C_11
REMARK    3  A    between atoms: C_10  and  C_12
REMARK                            x       y       z     vdW  Elec       q    Type
REMARK                         _______ _______ _______ _____ _____    ______ ____
ROOT
ATOM      1  C   UNL     1      -7.976  -1.613 123.093  0.00  0.00    +0.000 C 
ATOM      2  C   UNL     1      -8.637  -2.977 123.418  0.00  0.00    +0.000 C 
ATOM      3  C   UNL     1      -7.844  -3.469 124.652  0.00  0.00    +0.000 C 
ATOM      4  C   UNL     1      -6.849  -2.312 124.906  0.00  0.00    +0.000 C 
ATOM      5  C   UNL     1      -6.187  -2.316 126.264  0.00  0.00    +0.000 C 
ATOM      6  C   UNL     1      -5.887  -2.413 123.718  0.00  0.00    +0.000 C 
ATOM      7  O   UNL     1      -4.750  -2.854 123.752  0.00  0.00    +0.000 OA
ATOM      8  C   UNL     1      -6.590  -1.917 122.469  0.00  0.00    +0.000 C 
ATOM      9  C   UNL     1      -7.650  -1.044 124.501  0.00  0.00    +0.000 C 
ATOM     10  C   UNL     1      -8.892  -0.775 125.374  0.00  0.00    +0.000 C 
ATOM     11  C   UNL     1      -6.822   0.254 124.488  0.00  0.00    +0.000 C 
ENDROOT
TORSDOF 0
ENDMDL
MODEL 9
REMARK VINA RESULT:      -4.9      2.588      3.985
REMARK  Name = Camphor
REMARK  3 active torsions:
REMARK  status: ('A' for Active; 'I' for Inactive)
REMARK    1  A    between atoms: C_5  and  C_6
REMARK    2  A    between atoms: C_10  and  C_11
REMARK    3  A    between atoms: C_10  and  C_12
REMARK                            x       y       z     vdW  Elec       q    Type
REMARK                         _______ _______ _______ _____ _____    ______ ____
ROOT
ATOM      1  C   UNL     1     -10.623   7.185 130.841  0.00  0.00    +0.000 C 
ATOM      2  C   UNL     1     -11.860   6.252 130.848  0.00  0.00    +0.000 C 
ATOM      3  C   UNL     1     -11.296   4.911 130.322  0.00  0.00    +0.000 C 
ATOM      4  C   UNL     1      -9.796   5.228 130.112  0.00  0.00    +0.000 C 
ATOM      5  C   UNL     1      -8.898   4.023 129.960  0.00  0.00    +0.000 C 
ATOM      6  C   UNL     1      -9.807   6.180 128.912  0.00  0.00    +0.000 C 
ATOM      7  O   UNL     1      -9.487   5.897 127.769  0.00  0.00    +0.000 OA
ATOM      8  C   UNL     1     -10.324   7.533 129.361  0.00  0.00    +0.000 C 
ATOM      9  C   UNL     1      -9.469   6.229 131.253  0.00  0.00    +0.000 C 
ATOM     10  C   UNL     1      -9.615   5.642 132.671  0.00  0.00    +0.000 C 
ATOM     11  C   UNL     1      -8.064   6.852 131.168  0.00  0.00    +0.000 C 
ENDROOT
TORSDOF 0
ENDMDL
