MODEL 1
REMARK VINA RESULT:      -7.4      0.000      0.000
REMARK  Name = Cannabidiol
REMARK  11 active torsions:
REMARK  status: ('A' for Active; 'I' for Inactive)
REMARK    1  A    between atoms: C_1  and  C_2
REMARK    2  A    between atoms: C_2  and  C_3
REMARK    3  A    between atoms: C_3  and  C_4
REMARK    4  A    between atoms: C_4  and  C_5
REMARK    5  A    between atoms: C_5  and  C_6
REMARK    6  A    between atoms: C_8  and  O_9
REMARK    7  A    between atoms: C_10  and  C_11
REMARK    8  A    between atoms: C_13  and  C_14
REMARK    9  A    between atoms: C_17  and  C_18
REMARK   10  A    between atoms: C_18  and  C_19
REMARK   11  A    between atoms: C_21  and  O_22
REMARK                            x       y       z     vdW  Elec       q    Type
REMARK                         _______ _______ _______ _____ _____    ______ ____
ROOT
ATOM      1  C   UNL     1      -6.763   2.346 123.351  0.00  0.00    +0.000 A 
ATOM      2  C   UNL     1      -6.615   2.437 124.724  0.00  0.00    +0.000 A 
ATOM      3  C   UNL     1      -6.660   1.285 125.489  0.00  0.00    +0.000 A 
ATOM      4  C   UNL     1      -6.694  -0.014 124.928  0.00  0.00    +0.000 A 
ATOM      5  C   UNL     1      -6.817  -0.077 123.530  0.00  0.00    +0.000 A 
ATOM      6  C   UNL     1      -6.876   1.087 122.757  0.00  0.00    +0.000 A 
ENDROOT
BRANCH   4   7
ATOM      7  C   UNL     1      -6.600  -1.260 125.814  0.00  0.00    +0.000 C 
ATOM      8  C   UNL     1      -5.657  -2.273 125.221  0.00  0.00    +0.000 C 
ATOM      9  C   UNL     1      -6.088  -3.377 124.584  0.00  0.00    +0.000 C 
ATOM     10  C   UNL     1      -5.130  -4.358 123.992  0.00  0.00    +0.000 C 
ATOM     11  C   UNL     1      -7.564  -3.691 124.378  0.00  0.00    +0.000 C 
ATOM     12  C   UNL     1      -8.569  -2.681 124.981  0.00  0.00    +0.000 C 
ATOM     13  C   UNL     1      -7.988  -1.902 126.175  0.00  0.00    +0.000 C 
BRANCH  13  14
ATOM     14  C   UNL     1      -7.897  -2.789 127.435  0.00  0.00    +0.000 C 
ATOM     15  C   UNL     1      -8.887  -3.906 127.646  0.00  0.00    +0.000 C 
ATOM     16  C   UNL     1      -6.931  -2.606 128.357  0.00  0.00    +0.000 C 
ENDBRANCH  13  14
ENDBRANCH   4   7
BRANCH   3  17
ATOM     17  O   UNL     1      -6.766   1.489 126.834  0.00  0.00    +0.000 OA
ATOM     18  H   UNL     1      -6.671   2.432 127.037  0.00  0.00    +0.000 HD
ENDBRANCH   3  17
BRANCH   5  19
ATOM     19  O   UNL     1      -6.916  -1.228 122.795  0.00  0.00    +0.000 OA
ATOM     20  H   UNL     1      -6.762  -2.009 123.343  0.00  0.00    +0.000 HD
ENDBRANCH   5  19
BRANCH   1  21
ATOM     21  C   UNL     1      -6.798   3.602 122.542  0.00  0.00    +0.000 C 
BRANCH  21  22
ATOM     22  C   UNL     1      -6.102   3.381 121.207  0.00  0.00    +0.000 C 
BRANCH  22  23
ATOM     23  C   UNL     1      -5.245   4.588 120.864  0.00  0.00    +0.000 C 
BRANCH  23  25
ATOM     24  C   UNL     1      -6.965   4.587 119.055  0.00  0.00    +0.000 C 
ATOM     25  C   UNL     1      -5.628   5.146 119.500  0.00  0.00    +0.000 C 
ENDBRANCH  23  25
ENDBRANCH  22  23
ENDBRANCH  21  22
ENDBRANCH   1  21
TORSDOF 8
ENDMDL
MODEL 2
REMARK VINA RESULT:      -7.4      2.851      4.264
REMARK  Name = Cannabidiol
REMARK  11 active torsions:
REMARK  status: ('A' for Active; 'I' for Inactive)
REMARK    1  A    between atoms: C_1  and  C_2
REMARK    2  A    between atoms: C_2  and  C_3
REMARK    3  A    between atoms: C_3  and  C_4
REMARK    4  A    between atoms: C_4  and  C_5
REMARK    5  A    between atoms: C_5  and  C_6
REMARK    6  A    between atoms: C_8  and  O_9
REMARK    7  A    between atoms: C_10  and  C_11
REMARK    8  A    between atoms: C_13  and  C_14
REMARK    9  A    between atoms: C_17  and  C_18
REMARK   10  A    between atoms: C_18  and  C_19
REMARK   11  A    between atoms: C_21  and  O_22
REMARK                            x       y       z     vdW  Elec       q    Type
REMARK                         _______ _______ _______ _____ _____    ______ ____
ROOT
ATOM      1  C   UNL     1      -5.043   2.647 125.847  0.00  0.00    +0.000 A 
ATOM      2  C   UNL     1      -4.565   1.528 126.507  0.00  0.00    +0.000 A 
ATOM      3  C   UNL     1      -5.252   0.331 126.397  0.00  0.00    +0.000 A 
ATOM      4  C   UNL     1      -6.341   0.145 125.514  0.00  0.00    +0.000 A 
ATOM      5  C   UNL     1      -6.789   1.292 124.837  0.00  0.00    +0.000 A 
ATOM      6  C   UNL     1      -6.162   2.529 125.021  0.00  0.00    +0.000 A 
ENDROOT
BRANCH   4   7
ATOM      7  C   UNL     1      -6.977  -1.236 125.325  0.00  0.00    +0.000 C 
ATOM      8  C   UNL     1      -5.923  -2.307 125.223  0.00  0.00    +0.000 C 
ATOM      9  C   UNL     1      -5.571  -2.866 124.051  0.00  0.00    +0.000 C 
ATOM     10  C   UNL     1      -4.511  -3.916 123.977  0.00  0.00    +0.000 C 
ATOM     11  C   UNL     1      -6.183  -2.453 122.719  0.00  0.00    +0.000 C 
ATOM     12  C   UNL     1      -7.279  -1.363 122.778  0.00  0.00    +0.000 C 
ATOM     13  C   UNL     1      -8.002  -1.318 124.137  0.00  0.00    +0.000 C 
BRANCH  13  14
ATOM     14  C   UNL     1      -8.971  -2.509 124.298  0.00  0.00    +0.000 C 
ATOM     15  C   UNL     1      -9.395  -2.959 125.673  0.00  0.00    +0.000 C 
ATOM     16  C   UNL     1      -9.473  -3.157 123.228  0.00  0.00    +0.000 C 
ENDBRANCH  13  14
ENDBRANCH   4   7
BRANCH   3  17
ATOM     17  O   UNL     1      -4.864  -0.638 127.275  0.00  0.00    +0.000 OA
ATOM     18  H   UNL     1      -5.504  -1.366 127.273  0.00  0.00    +0.000 HD
ENDBRANCH   3  17
BRANCH   5  19
ATOM     19  O   UNL     1      -7.853   1.339 123.978  0.00  0.00    +0.000 OA
ATOM     20  H   UNL     1      -8.661   1.612 124.434  0.00  0.00    +0.000 HD
ENDBRANCH   5  19
BRANCH   1  21
ATOM     21  C   UNL     1      -4.343   3.954 126.039  0.00  0.00    +0.000 C 
BRANCH  21  22
ATOM     22  C   UNL     1      -2.889   3.714 126.420  0.00  0.00    +0.000 C 
BRANCH  22  23
ATOM     23  C   UNL     1      -2.600   4.336 127.775  0.00  0.00    +0.000 C 
BRANCH  23  25
ATOM     24  C   UNL     1      -2.300   6.771 128.237  0.00  0.00    +0.000 C 
ATOM     25  C   UNL     1      -3.301   5.681 127.908  0.00  0.00    +0.000 C 
ENDBRANCH  23  25
ENDBRANCH  22  23
ENDBRANCH  21  22
ENDBRANCH   1  21
TORSDOF 8
ENDMDL
MODEL 3
REMARK VINA RESULT:      -7.2      7.638      9.283
REMARK  Name = Cannabidiol
REMARK  11 active torsions:
REMARK  status: ('A' for Active; 'I' for Inactive)
REMARK    1  A    between atoms: C_1  and  C_2
REMARK    2  A    between atoms: C_2  and  C_3
REMARK    3  A    between atoms: C_3  and  C_4
REMARK    4  A    between atoms: C_4  and  C_5
REMARK    5  A    between atoms: C_5  and  C_6
REMARK    6  A    between atoms: C_8  and  O_9
REMARK    7  A    between atoms: C_10  and  C_11
REMARK    8  A    between atoms: C_13  and  C_14
REMARK    9  A    between atoms: C_17  and  C_18
REMARK   10  A    between atoms: C_18  and  C_19
REMARK   11  A    between atoms: C_21  and  O_22
REMARK                            x       y       z     vdW  Elec       q    Type
REMARK                         _______ _______ _______ _____ _____    ______ ____
ROOT
ATOM      1  C   UNL     1     -11.832   6.371 131.001  0.00  0.00    +0.000 A 
ATOM      2  C   UNL     1     -11.030   6.690 132.084  0.00  0.00    +0.000 A 
ATOM      3  C   UNL     1      -9.976   5.856 132.415  0.00  0.00    +0.000 A 
ATOM      4  C   UNL     1      -9.570   4.767 131.608  0.00  0.00    +0.000 A 
ATOM      5  C   UNL     1     -10.387   4.483 130.501  0.00  0.00    +0.000 A 
ATOM      6  C   UNL     1     -11.516   5.260 130.218  0.00  0.00    +0.000 A 
ENDROOT
BRANCH   4   7
ATOM      7  C   UNL     1      -8.311   3.961 131.944  0.00  0.00    +0.000 C 
ATOM      8  C   UNL     1      -7.626   3.484 130.691  0.00  0.00    +0.000 C 
ATOM      9  C   UNL     1      -7.713   2.213 130.259  0.00  0.00    +0.000 C 
ATOM     10  C   UNL     1      -7.035   1.770 129.003  0.00  0.00    +0.000 C 
ATOM     11  C   UNL     1      -8.530   1.148 130.977  0.00  0.00    +0.000 C 
ATOM     12  C   UNL     1      -9.243   1.592 132.276  0.00  0.00    +0.000 C 
ATOM     13  C   UNL     1      -8.548   2.785 132.958  0.00  0.00    +0.000 C 
BRANCH  13  14
ATOM     14  C   UNL     1      -7.238   2.353 133.650  0.00  0.00    +0.000 C 
ATOM     15  C   UNL     1      -6.382   3.374 134.354  0.00  0.00    +0.000 C 
ATOM     16  C   UNL     1      -6.839   1.065 133.660  0.00  0.00    +0.000 C 
ENDBRANCH  13  14
ENDBRANCH   4   7
BRANCH   3  17
ATOM     17  O   UNL     1      -9.408   6.100 133.631  0.00  0.00    +0.000 OA
ATOM     18  H   UNL     1      -8.480   5.823 133.628  0.00  0.00    +0.000 HD
ENDBRANCH   3  17
BRANCH   5  19
ATOM     19  O   UNL     1     -10.201   3.448 129.624  0.00  0.00    +0.000 OA
ATOM     20  H   UNL     1     -11.043   3.044 129.374  0.00  0.00    +0.000 HD
ENDBRANCH   5  19
BRANCH   1  21
ATOM     21  C   UNL     1     -13.019   7.231 130.703  0.00  0.00    +0.000 C 
BRANCH  21  22
ATOM     22  C   UNL     1     -12.586   8.460 129.917  0.00  0.00    +0.000 C 
BRANCH  22  23
ATOM     23  C   UNL     1     -13.033   8.332 128.470  0.00  0.00    +0.000 C 
BRANCH  23  25
ATOM     24  C   UNL     1     -10.564   8.479 128.136  0.00  0.00    +0.000 C 
ATOM     25  C   UNL     1     -11.864   7.930 127.582  0.00  0.00    +0.000 C 
ENDBRANCH  23  25
ENDBRANCH  22  23
ENDBRANCH  21  22
ENDBRANCH   1  21
TORSDOF 8
ENDMDL
MODEL 4
REMARK VINA RESULT:      -7.2      8.930     10.517
REMARK  Name = Cannabidiol
REMARK  11 active torsions:
REMARK  status: ('A' for Active; 'I' for Inactive)
REMARK    1  A    between atoms: C_1  and  C_2
REMARK    2  A    between atoms: C_2  and  C_3
REMARK    3  A    between atoms: C_3  and  C_4
REMARK    4  A    between atoms: C_4  and  C_5
REMARK    5  A    between atoms: C_5  and  C_6
REMARK    6  A    between atoms: C_8  and  O_9
REMARK    7  A    between atoms: C_10  and  C_11
REMARK    8  A    between atoms: C_13  and  C_14
REMARK    9  A    between atoms: C_17  and  C_18
REMARK   10  A    between atoms: C_18  and  C_19
REMARK   11  A    between atoms: C_21  and  O_22
REMARK                            x       y       z     vdW  Elec       q    Type
REMARK                         _______ _______ _______ _____ _____    ______ ____
ROOT
ATOM      1  C   UNL     1     -11.688   6.597 129.661  0.00  0.00    +0.000 A 
ATOM      2  C   UNL     1     -10.530   7.335 129.478  0.00  0.00    +0.000 A 
ATOM      3  C   UNL     1      -9.368   6.942 130.119  0.00  0.00    +0.000 A 
ATOM      4  C   UNL     1      -9.254   5.727 130.835  0.00  0.00    +0.000 A 
ATOM      5  C   UNL     1     -10.438   4.985 130.982  0.00  0.00    +0.000 A 
ATOM      6  C   UNL     1     -11.642   5.429 130.423  0.00  0.00    +0.000 A 
ENDROOT
BRANCH   4   7
ATOM      7  C   UNL     1      -7.907   5.270 131.406  0.00  0.00    +0.000 C 
ATOM      8  C   UNL     1      -7.859   3.771 131.540  0.00  0.00    +0.000 C 
ATOM      9  C   UNL     1      -8.002   3.146 132.724  0.00  0.00    +0.000 C 
ATOM     10  C   UNL     1      -7.965   1.656 132.826  0.00  0.00    +0.000 C 
ATOM     11  C   UNL     1      -8.250   3.890 134.028  0.00  0.00    +0.000 C 
ATOM     12  C   UNL     1      -8.296   5.434 133.938  0.00  0.00    +0.000 C 
ATOM     13  C   UNL     1      -7.497   5.985 132.743  0.00  0.00    +0.000 C 
BRANCH  13  14
ATOM     14  C   UNL     1      -5.976   5.898 132.995  0.00  0.00    +0.000 C 
ATOM     15  C   UNL     1      -5.013   5.972 131.838  0.00  0.00    +0.000 C 
ATOM     16  C   UNL     1      -5.476   5.775 134.240  0.00  0.00    +0.000 C 
ENDBRANCH  13  14
ENDBRANCH   4   7
BRANCH   3  17
ATOM     17  O   UNL     1      -8.358   7.858 130.093  0.00  0.00    +0.000 OA
ATOM     18  H   UNL     1      -8.435   8.464 130.845  0.00  0.00    +0.000 HD
ENDBRANCH   3  17
BRANCH   5  19
ATOM     19  O   UNL     1     -10.556   3.812 131.676  0.00  0.00    +0.000 OA
ATOM     20  H   UNL     1     -11.277   3.854 132.318  0.00  0.00    +0.000 HD
ENDBRANCH   5  19
BRANCH   1  21
ATOM     21  C   UNL     1     -12.957   7.077 129.034  0.00  0.00    +0.000 C 
BRANCH  21  22
ATOM     22  C   UNL     1     -12.672   8.264 128.125  0.00  0.00    +0.000 C 
BRANCH  22  23
ATOM     23  C   UNL     1     -13.538   9.444 128.529  0.00  0.00    +0.000 C 
BRANCH  23  25
ATOM     24  C   UNL     1     -13.656  11.404 130.070  0.00  0.00    +0.000 C 
ATOM     25  C   UNL     1     -13.068  10.024 129.856  0.00  0.00    +0.000 C 
ENDBRANCH  23  25
ENDBRANCH  22  23
ENDBRANCH  21  22
ENDBRANCH   1  21
TORSDOF 8
ENDMDL
MODEL 5
REMARK VINA RESULT:      -7.2      8.173     10.204
REMARK  Name = Cannabidiol
REMARK  11 active torsions:
REMARK  status: ('A' for Active; 'I' for Inactive)
REMARK    1  A    between atoms: C_1  and  C_2
REMARK    2  A    between atoms: C_2  and  C_3
REMARK    3  A    between atoms: C_3  and  C_4
REMARK    4  A    between atoms: C_4  and  C_5
REMARK    5  A    between atoms: C_5  and  C_6
REMARK    6  A    between atoms: C_8  and  O_9
REMARK    7  A    between atoms: C_10  and  C_11
REMARK    8  A    between atoms: C_13  and  C_14
REMARK    9  A    between atoms: C_17  and  C_18
REMARK   10  A    between atoms: C_18  and  C_19
REMARK   11  A    between atoms: C_21  and  O_22
REMARK                            x       y       z     vdW  Elec       q    Type
REMARK                         _______ _______ _______ _____ _____    ______ ____
ROOT
ATOM      1  C   UNL     1     -12.008   6.311 130.698  0.00  0.00    +0.000 A 
ATOM      2  C   UNL     1     -11.586   5.165 130.047  0.00  0.00    +0.000 A 
ATOM      3  C   UNL     1     -10.469   4.493 130.513  0.00  0.00    +0.000 A 
ATOM      4  C   UNL     1      -9.818   4.825 131.724  0.00  0.00    +0.000 A 
ATOM      5  C   UNL     1     -10.285   5.977 132.379  0.00  0.00    +0.000 A 
ATOM      6  C   UNL     1     -11.349   6.722 131.858  0.00  0.00    +0.000 A 
ENDROOT
BRANCH   4   7
ATOM      7  C   UNL     1      -8.674   3.963 132.268  0.00  0.00    +0.000 C 
ATOM      8  C   UNL     1      -8.493   4.178 133.748  0.00  0.00    +0.000 C 
ATOM      9  C   UNL     1      -7.496   4.927 134.253  0.00  0.00    +0.000 C 
ATOM     10  C   UNL     1      -7.349   5.136 135.725  0.00  0.00    +0.000 C 
ATOM     11  C   UNL     1      -6.477   5.647 133.380  0.00  0.00    +0.000 C 
ATOM     12  C   UNL     1      -6.619   5.444 131.853  0.00  0.00    +0.000 C 
ATOM     13  C   UNL     1      -7.319   4.121 131.490  0.00  0.00    +0.000 C 
BRANCH  13  14
ATOM     14  C   UNL     1      -6.386   2.912 131.712  0.00  0.00    +0.000 C 
ATOM     15  C   UNL     1      -6.964   1.568 132.076  0.00  0.00    +0.000 C 
ATOM     16  C   UNL     1      -5.050   3.018 131.569  0.00  0.00    +0.000 C 
ENDBRANCH  13  14
ENDBRANCH   4   7
BRANCH   3  17
ATOM     17  O   UNL     1      -9.977   3.539 129.671  0.00  0.00    +0.000 OA
ATOM     18  H   UNL     1     -10.703   3.099 129.203  0.00  0.00    +0.000 HD
ENDBRANCH   3  17
BRANCH   5  19
ATOM     19  O   UNL     1      -9.765   6.498 133.533  0.00  0.00    +0.000 OA
ATOM     20  H   UNL     1     -10.437   6.557 134.225  0.00  0.00    +0.000 HD
ENDBRANCH   5  19
BRANCH   1  21
ATOM     21  C   UNL     1     -13.163   7.077 130.138  0.00  0.00    +0.000 C 
BRANCH  21  22
ATOM     22  C   UNL     1     -12.881   7.459 128.692  0.00  0.00    +0.000 C 
BRANCH  22  23
ATOM     23  C   UNL     1     -12.029   8.716 128.646  0.00  0.00    +0.000 C 
BRANCH  23  25
ATOM     24  C   UNL     1     -10.876   7.631 126.717  0.00  0.00    +0.000 C 
ATOM     25  C   UNL     1     -10.685   8.428 127.992  0.00  0.00    +0.000 C 
ENDBRANCH  23  25
ENDBRANCH  22  23
ENDBRANCH  21  22
ENDBRANCH   1  21
TORSDOF 8
ENDMDL
MODEL 6
REMARK VINA RESULT:      -7.2      9.193     10.693
REMARK  Name = Cannabidiol
REMARK  11 active torsions:
REMARK  status: ('A' for Active; 'I' for Inactive)
REMARK    1  A    between atoms: C_1  and  C_2
REMARK    2  A    between atoms: C_2  and  C_3
REMARK    3  A    between atoms: C_3  and  C_4
REMARK    4  A    between atoms: C_4  and  C_5
REMARK    5  A    between atoms: C_5  and  C_6
REMARK    6  A    between atoms: C_8  and  O_9
REMARK    7  A    between atoms: C_10  and  C_11
REMARK    8  A    between atoms: C_13  and  C_14
REMARK    9  A    between atoms: C_17  and  C_18
REMARK   10  A    between atoms: C_18  and  C_19
REMARK   11  A    between atoms: C_21  and  O_22
REMARK                            x       y       z     vdW  Elec       q    Type
REMARK                         _______ _______ _______ _____ _____    ______ ____
ROOT
ATOM      1  C   UNL     1     -10.971   6.919 130.576  0.00  0.00    +0.000 A 
ATOM      2  C   UNL     1     -11.116   6.169 131.731  0.00  0.00    +0.000 A 
ATOM      3  C   UNL     1      -9.987   5.742 132.408  0.00  0.00    +0.000 A 
ATOM      4  C   UNL     1      -8.679   6.164 132.072  0.00  0.00    +0.000 A 
ATOM      5  C   UNL     1      -8.564   6.946 130.910  0.00  0.00    +0.000 A 
ATOM      6  C   UNL     1      -9.692   7.296 130.161  0.00  0.00    +0.000 A 
ENDROOT
BRANCH   4   7
ATOM      7  C   UNL     1      -7.477   5.777 132.939  0.00  0.00    +0.000 C 
ATOM      8  C   UNL     1      -6.183   6.159 132.270  0.00  0.00    +0.000 C 
ATOM      9  C   UNL     1      -5.392   5.259 131.659  0.00  0.00    +0.000 C 
ATOM     10  C   UNL     1      -4.121   5.668 130.989  0.00  0.00    +0.000 C 
ATOM     11  C   UNL     1      -5.740   3.780 131.562  0.00  0.00    +0.000 C 
ATOM     12  C   UNL     1      -7.056   3.341 132.247  0.00  0.00    +0.000 C 
ATOM     13  C   UNL     1      -7.469   4.275 133.400  0.00  0.00    +0.000 C 
BRANCH  13  14
ATOM     14  C   UNL     1      -6.579   4.062 134.642  0.00  0.00    +0.000 C 
ATOM     15  C   UNL     1      -6.511   5.119 135.714  0.00  0.00    +0.000 C 
ATOM     16  C   UNL     1      -5.865   2.931 134.810  0.00  0.00    +0.000 C 
ENDBRANCH  13  14
ENDBRANCH   4   7
BRANCH   3  17
ATOM     17  O   UNL     1     -10.214   4.805 133.373  0.00  0.00    +0.000 OA
ATOM     18  H   UNL     1      -9.478   4.176 133.408  0.00  0.00    +0.000 HD
ENDBRANCH   3  17
BRANCH   5  19
ATOM     19  O   UNL     1      -7.390   7.415 130.385  0.00  0.00    +0.000 OA
ATOM     20  H   UNL     1      -6.721   7.536 131.072  0.00  0.00    +0.000 HD
ENDBRANCH   5  19
BRANCH   1  21
ATOM     21  C   UNL     1     -12.192   7.303 129.804  0.00  0.00    +0.000 C 
BRANCH  21  22
ATOM     22  C   UNL     1     -11.846   8.375 128.782  0.00  0.00    +0.000 C 
BRANCH  22  23
ATOM     23  C   UNL     1     -12.949   9.418 128.732  0.00  0.00    +0.000 C 
BRANCH  23  25
ATOM     24  C   UNL     1     -13.670  11.443 130.001  0.00  0.00    +0.000 C 
ATOM     25  C   UNL     1     -13.190  10.009 130.114  0.00  0.00    +0.000 C 
ENDBRANCH  23  25
ENDBRANCH  22  23
ENDBRANCH  21  22
ENDBRANCH   1  21
TORSDOF 8
ENDMDL
MODEL 7
REMARK VINA RESULT:      -7.1      7.780      9.385
REMARK  Name = Cannabidiol
REMARK  11 active torsions:
REMARK  status: ('A' for Active; 'I' for Inactive)
REMARK    1  A    between atoms: C_1  and  C_2
REMARK    2  A    between atoms: C_2  and  C_3
REMARK    3  A    between atoms: C_3  and  C_4
REMARK    4  A    between atoms: C_4  and  C_5
REMARK    5  A    between atoms: C_5  and  C_6
REMARK    6  A    between atoms: C_8  and  O_9
REMARK    7  A    between atoms: C_10  and  C_11
REMARK    8  A    between atoms: C_13  and  C_14
REMARK    9  A    between atoms: C_17  and  C_18
REMARK   10  A    between atoms: C_18  and  C_19
REMARK   11  A    between atoms: C_21  and  O_22
REMARK                            x       y       z     vdW  Elec       q    Type
REMARK                         _______ _______ _______ _____ _____    ______ ____
ROOT
ATOM      1  C   UNL     1     -11.507   7.165 130.119  0.00  0.00    +0.000 A 
ATOM      2  C   UNL     1     -10.189   7.582 130.050  0.00  0.00    +0.000 A 
ATOM      3  C   UNL     1      -9.179   6.693 130.376  0.00  0.00    +0.000 A 
ATOM      4  C   UNL     1      -9.411   5.321 130.628  0.00  0.00    +0.000 A 
ATOM      5  C   UNL     1     -10.757   4.919 130.666  0.00  0.00    +0.000 A 
ATOM      6  C   UNL     1     -11.789   5.836 130.439  0.00  0.00    +0.000 A 
ENDROOT
BRANCH   4   7
ATOM      7  C   UNL     1      -8.245   4.349 130.845  0.00  0.00    +0.000 C 
ATOM      8  C   UNL     1      -8.709   2.920 130.750  0.00  0.00    +0.000 C 
ATOM      9  C   UNL     1      -8.895   2.146 131.835  0.00  0.00    +0.000 C 
ATOM     10  C   UNL     1      -9.371   0.736 131.713  0.00  0.00    +0.000 C 
ATOM     11  C   UNL     1      -8.681   2.648 133.257  0.00  0.00    +0.000 C 
ATOM     12  C   UNL     1      -8.193   4.109 133.400  0.00  0.00    +0.000 C 
ATOM     13  C   UNL     1      -7.426   4.607 132.161  0.00  0.00    +0.000 C 
BRANCH  13  14
ATOM     14  C   UNL     1      -6.015   3.987 132.086  0.00  0.00    +0.000 C 
ATOM     15  C   UNL     1      -5.345   3.479 133.338  0.00  0.00    +0.000 C 
ATOM     16  C   UNL     1      -5.361   3.864 130.914  0.00  0.00    +0.000 C 
ENDBRANCH  13  14
ENDBRANCH   4   7
BRANCH   3  17
ATOM     17  O   UNL     1      -7.945   7.254 130.531  0.00  0.00    +0.000 OA
ATOM     18  H   UNL     1      -7.663   7.676 129.706  0.00  0.00    +0.000 HD
ENDBRANCH   3  17
BRANCH   5  19
ATOM     19  O   UNL     1     -11.199   3.654 130.940  0.00  0.00    +0.000 OA
ATOM     20  H   UNL     1     -11.928   3.666 131.574  0.00  0.00    +0.000 HD
ENDBRANCH   5  19
BRANCH   1  21
ATOM     21  C   UNL     1     -12.594   8.156 129.848  0.00  0.00    +0.000 C 
BRANCH  21  22
ATOM     22  C   UNL     1     -12.553   8.587 128.389  0.00  0.00    +0.000 C 
BRANCH  22  23
ATOM     23  C   UNL     1     -13.332   7.600 127.537  0.00  0.00    +0.000 C 
BRANCH  23  25
ATOM     24  C   UNL     1     -11.086   7.678 126.451  0.00  0.00    +0.000 C 
ATOM     25  C   UNL     1     -12.434   6.984 126.473  0.00  0.00    +0.000 C 
ENDBRANCH  23  25
ENDBRANCH  22  23
ENDBRANCH  21  22
ENDBRANCH   1  21
TORSDOF 8
ENDMDL
MODEL 8
REMARK VINA RESULT:      -7.0      3.988      6.458
REMARK  Name = Cannabidiol
REMARK  11 active torsions:
REMARK  status: ('A' for Active; 'I' for Inactive)
REMARK    1  A    between atoms: C_1  and  C_2
REMARK    2  A    between atoms: C_2  and  C_3
REMARK    3  A    between atoms: C_3  and  C_4
REMARK    4  A    between atoms: C_4  and  C_5
REMARK    5  A    between atoms: C_5  and  C_6
REMARK    6  A    between atoms: C_8  and  O_9
REMARK    7  A    between atoms: C_10  and  C_11
REMARK    8  A    between atoms: C_13  and  C_14
REMARK    9  A    between atoms: C_17  and  C_18
REMARK   10  A    between atoms: C_18  and  C_19
REMARK   11  A    between atoms: C_21  and  O_22
REMARK                            x       y       z     vdW  Elec       q    Type
REMARK                         _______ _______ _______ _____ _____    ______ ____
ROOT
ATOM      1  C   UNL     1      -7.261  -2.426 125.849  0.00  0.00    +0.000 A 
ATOM      2  C   UNL     1      -8.250  -2.926 126.679  0.00  0.00    +0.000 A 
ATOM      3  C   UNL     1      -8.016  -3.004 128.041  0.00  0.00    +0.000 A 
ATOM      4  C   UNL     1      -6.871  -2.450 128.661  0.00  0.00    +0.000 A 
ATOM      5  C   UNL     1      -5.896  -1.924 127.796  0.00  0.00    +0.000 A 
ATOM      6  C   UNL     1      -6.080  -1.936 126.409  0.00  0.00    +0.000 A 
ENDROOT
BRANCH   4   7
ATOM      7  C   UNL     1      -6.727  -2.437 130.186  0.00  0.00    +0.000 C 
ATOM      8  C   UNL     1      -6.023  -1.189 130.650  0.00  0.00    +0.000 C 
ATOM      9  C   UNL     1      -4.733  -1.186 131.033  0.00  0.00    +0.000 C 
ATOM     10  C   UNL     1      -4.055   0.070 131.475  0.00  0.00    +0.000 C 
ATOM     11  C   UNL     1      -3.858  -2.432 131.007  0.00  0.00    +0.000 C 
ATOM     12  C   UNL     1      -4.545  -3.740 130.547  0.00  0.00    +0.000 C 
ATOM     13  C   UNL     1      -6.066  -3.731 130.783  0.00  0.00    +0.000 C 
BRANCH  13  14
ATOM     14  C   UNL     1      -6.403  -3.907 132.280  0.00  0.00    +0.000 C 
ATOM     15  C   UNL     1      -7.532  -3.122 132.898  0.00  0.00    +0.000 C 
ATOM     16  C   UNL     1      -5.720  -4.770 133.058  0.00  0.00    +0.000 C 
ENDBRANCH  13  14
ENDBRANCH   4   7
BRANCH   3  17
ATOM     17  O   UNL     1      -8.927  -3.739 128.741  0.00  0.00    +0.000 OA
ATOM     18  H   UNL     1      -9.517  -4.209 128.132  0.00  0.00    +0.000 HD
ENDBRANCH   3  17
BRANCH   5  19
ATOM     19  O   UNL     1      -4.699  -1.388 128.185  0.00  0.00    +0.000 OA
ATOM     20  H   UNL     1      -4.104  -2.068 128.529  0.00  0.00    +0.000 HD
ENDBRANCH   5  19
BRANCH   1  21
ATOM     21  C   UNL     1      -7.490  -2.425 124.372  0.00  0.00    +0.000 C 
BRANCH  21  22
ATOM     22  C   UNL     1      -6.317  -1.762 123.665  0.00  0.00    +0.000 C 
BRANCH  22  23
ATOM     23  C   UNL     1      -5.597  -2.778 122.794  0.00  0.00    +0.000 C 
BRANCH  23  25
ATOM     24  C   UNL     1      -4.386  -4.833 123.528  0.00  0.00    +0.000 C 
ATOM     25  C   UNL     1      -4.365  -3.317 123.507  0.00  0.00    +0.000 C 
ENDBRANCH  23  25
ENDBRANCH  22  23
ENDBRANCH  21  22
ENDBRANCH   1  21
TORSDOF 8
ENDMDL
MODEL 9
REMARK VINA RESULT:      -6.9      8.254     10.168
REMARK  Name = Cannabidiol
REMARK  11 active torsions:
REMARK  status: ('A' for Active; 'I' for Inactive)
REMARK    1  A    between atoms: C_1  and  C_2
REMARK    2  A    between atoms: C_2  and  C_3
REMARK    3  A    between atoms: C_3  and  C_4
REMARK    4  A    between atoms: C_4  and  C_5
REMARK    5  A    between atoms: C_5  and  C_6
REMARK    6  A    between atoms: C_8  and  O_9
REMARK    7  A    between atoms: C_10  and  C_11
REMARK    8  A    between atoms: C_13  and  C_14
REMARK    9  A    between atoms: C_17  and  C_18
REMARK   10  A    between atoms: C_18  and  C_19
REMARK   11  A    between atoms: C_21  and  O_22
REMARK                            x       y       z     vdW  Elec       q    Type
REMARK                         _______ _______ _______ _____ _____    ______ ____
ROOT
ATOM      1  C   UNL     1     -11.900   6.288 130.802  0.00  0.00    +0.000 A 
ATOM      2  C   UNL     1     -11.177   6.711 131.904  0.00  0.00    +0.000 A 
ATOM      3  C   UNL     1     -10.151   5.917 132.388  0.00  0.00    +0.000 A 
ATOM      4  C   UNL     1      -9.691   4.758 131.719  0.00  0.00    +0.000 A 
ATOM      5  C   UNL     1     -10.427   4.367 130.588  0.00  0.00    +0.000 A 
ATOM      6  C   UNL     1     -11.531   5.109 130.152  0.00  0.00    +0.000 A 
ENDROOT
BRANCH   4   7
ATOM      7  C   UNL     1      -8.461   3.993 132.219  0.00  0.00    +0.000 C 
ATOM      8  C   UNL     1      -8.266   4.193 133.698  0.00  0.00    +0.000 C 
ATOM      9  C   UNL     1      -7.330   5.020 134.199  0.00  0.00    +0.000 C 
ATOM     10  C   UNL     1      -7.168   5.210 135.672  0.00  0.00    +0.000 C 
ATOM     11  C   UNL     1      -6.401   5.848 133.322  0.00  0.00    +0.000 C 
ATOM     12  C   UNL     1      -6.560   5.665 131.794  0.00  0.00    +0.000 C 
ATOM     13  C   UNL     1      -7.145   4.292 131.415  0.00  0.00    +0.000 C 
BRANCH  13  14
ATOM     14  C   UNL     1      -6.101   3.168 131.590  0.00  0.00    +0.000 C 
ATOM     15  C   UNL     1      -4.632   3.473 131.448  0.00  0.00    +0.000 C 
ATOM     16  C   UNL     1      -6.468   1.907 131.891  0.00  0.00    +0.000 C 
ENDBRANCH  13  14
ENDBRANCH   4   7
BRANCH   3  17
ATOM     17  O   UNL     1      -9.672   6.278 133.612  0.00  0.00    +0.000 OA
ATOM     18  H   UNL     1      -9.020   5.630 133.921  0.00  0.00    +0.000 HD
ENDBRANCH   3  17
BRANCH   5  19
ATOM     19  O   UNL     1     -10.181   3.255 129.829  0.00  0.00    +0.000 OA
ATOM     20  H   UNL     1     -10.452   2.449 130.289  0.00  0.00    +0.000 HD
ENDBRANCH   5  19
BRANCH   1  21
ATOM     21  C   UNL     1     -13.060   7.110 130.339  0.00  0.00    +0.000 C 
BRANCH  21  22
ATOM     22  C   UNL     1     -13.274   6.912 128.845  0.00  0.00    +0.000 C 
BRANCH  22  23
ATOM     23  C   UNL     1     -12.895   8.178 128.096  0.00  0.00    +0.000 C 
BRANCH  23  25
ATOM     24  C   UNL     1     -10.420   8.484 128.179  0.00  0.00    +0.000 C 
ATOM     25  C   UNL     1     -11.585   7.985 127.347  0.00  0.00    +0.000 C 
ENDBRANCH  23  25
ENDBRANCH  22  23
ENDBRANCH  21  22
ENDBRANCH   1  21
TORSDOF 8
ENDMDL
