MODEL 1
REMARK VINA RESULT:      -8.6      0.000      0.000
REMARK  Name = Canrenoic acid
REMARK  7 active torsions:
REMARK  status: ('A' for Active; 'I' for Inactive)
REMARK    1  A    between atoms: C_5  and  O_6
REMARK    2  A    between atoms: C_5  and  C_7
REMARK    3  A    between atoms: C_7  and  C_8
REMARK    4  A    between atoms: C_8  and  C_9
REMARK    5  A    between atoms: C_9  and  O_10
REMARK    6  A    between atoms: C_12  and  C_13
REMARK    7  A    between atoms: C_28  and  C_29
REMARK                            x       y       z     vdW  Elec       q    Type
REMARK                         _______ _______ _______ _____ _____    ______ ____
ROOT
ATOM      1  C   UNL     1      -7.055  -2.871 130.786  0.00  0.00    +0.000 C 
ATOM      2  C   UNL     1      -6.346  -4.100 130.728  0.00  0.00    +0.000 C 
ATOM      3  C   UNL     1      -5.707  -2.926 130.099  0.00  0.00    +0.000 C 
ATOM      4  C   UNL     1      -6.560  -1.084 130.663  0.00  0.00    +0.000 C 
ATOM      5  C   UNL     1      -5.521  -1.844 131.205  0.00  0.00    +0.000 C 
ATOM      6  C   UNL     1      -5.033  -1.917 132.589  0.00  0.00    +0.000 C 
ATOM      7  C   UNL     1      -4.484  -1.168 129.801  0.00  0.00    +0.000 C 
ATOM      8  C   UNL     1      -5.440  -0.925 128.382  0.00  0.00    +0.000 C 
ATOM      9  C   UNL     1      -6.547  -2.041 127.913  0.00  0.00    +0.000 C 
ATOM     10  C   UNL     1      -7.718  -2.397 129.152  0.00  0.00    +0.000 C 
ATOM     11  C   UNL     1      -8.683  -3.442 128.757  0.00  0.00    +0.000 C 
ATOM     12  C   UNL     1      -8.816  -3.842 127.494  0.00  0.00    +0.000 C 
ATOM     13  C   UNL     1      -8.163  -3.206 126.365  0.00  0.00    +0.000 C 
ATOM     14  C   UNL     1      -8.354  -3.697 125.135  0.00  0.00    +0.000 C 
ATOM     15  C   UNL     1      -7.840  -2.827 124.076  0.00  0.00    +0.000 C 
ATOM     16  O   UNL     1      -8.327  -1.751 123.736  0.00  0.00    +0.000 OA
ATOM     17  C   UNL     1      -6.438  -3.055 123.820  0.00  0.00    +0.000 C 
ATOM     18  C   UNL     1      -6.077  -2.094 125.189  0.00  0.00    +0.000 C 
ATOM     19  C   UNL     1      -7.246  -1.973 126.517  0.00  0.00    +0.000 C 
ATOM     20  C   UNL     1      -8.147  -0.722 126.658  0.00  0.00    +0.000 C 
ENDROOT
BRANCH   4  21
ATOM     21  O   UNL     1      -5.929   0.207 131.046  0.00  0.00    +0.000 OA
ATOM     22  H   UNL     1      -5.744   0.894 130.392  0.00  0.00    +0.000 HD
ENDBRANCH   4  21
BRANCH   4  23
ATOM     23  C   UNL     1      -7.739  -0.779 131.952  0.00  0.00    +0.000 C 
BRANCH  23  24
ATOM     24  C   UNL     1      -9.066   0.037 131.718  0.00  0.00    +0.000 C 
BRANCH  24  25
ATOM     25  C   UNL     1      -9.015   1.537 132.117  0.00  0.00    +0.000 C 
ATOM     26  O   UNL     1      -7.960   2.149 132.250  0.00  0.00    +0.000 OA
BRANCH  25  27
ATOM     27  O   UNL     1     -10.181   2.178 132.339  0.00  0.00    +0.000 OA
ATOM     28  H   UNL     1     -11.007   1.710 132.137  0.00  0.00    +0.000 HD
ENDBRANCH  25  27
ENDBRANCH  24  25
ENDBRANCH  23  24
ENDBRANCH   4  23
TORSDOF 5
ENDMDL
MODEL 2
REMARK VINA RESULT:      -8.5      2.205      6.501
REMARK  Name = Canrenoic acid
REMARK  7 active torsions:
REMARK  status: ('A' for Active; 'I' for Inactive)
REMARK    1  A    between atoms: C_5  and  O_6
REMARK    2  A    between atoms: C_5  and  C_7
REMARK    3  A    between atoms: C_7  and  C_8
REMARK    4  A    between atoms: C_8  and  C_9
REMARK    5  A    between atoms: C_9  and  O_10
REMARK    6  A    between atoms: C_12  and  C_13
REMARK    7  A    between atoms: C_28  and  C_29
REMARK                            x       y       z     vdW  Elec       q    Type
REMARK                         _______ _______ _______ _____ _____    ______ ____
ROOT
ATOM      1  C   UNL     1      -6.452  -1.399 124.313  0.00  0.00    +0.000 C 
ATOM      2  C   UNL     1      -5.688  -2.581 124.126  0.00  0.00    +0.000 C 
ATOM      3  C   UNL     1      -7.054  -2.743 124.666  0.00  0.00    +0.000 C 
ATOM      4  C   UNL     1      -8.271  -1.039 124.436  0.00  0.00    +0.000 C 
ATOM      5  C   UNL     1      -8.045  -2.149 123.620  0.00  0.00    +0.000 C 
ATOM      6  C   UNL     1      -8.136  -2.277 122.159  0.00  0.00    +0.000 C 
ATOM      7  C   UNL     1      -9.189  -3.062 124.787  0.00  0.00    +0.000 C 
ATOM      8  C   UNL     1      -9.036  -2.464 126.402  0.00  0.00    +0.000 C 
ATOM      9  C   UNL     1      -7.562  -2.132 127.040  0.00  0.00    +0.000 C 
ATOM     10  C   UNL     1      -6.650  -0.998 126.084  0.00  0.00    +0.000 C 
ATOM     11  C   UNL     1      -5.300  -0.737 126.622  0.00  0.00    +0.000 C 
ATOM     12  C   UNL     1      -4.946  -1.102 127.853  0.00  0.00    +0.000 C 
ATOM     13  C   UNL     1      -5.864  -1.638 128.839  0.00  0.00    +0.000 C 
ATOM     14  C   UNL     1      -5.401  -1.986 130.045  0.00  0.00    +0.000 C 
ATOM     15  C   UNL     1      -6.461  -2.281 131.012  0.00  0.00    +0.000 C 
ATOM     16  O   UNL     1      -7.209  -1.453 131.524  0.00  0.00    +0.000 OA
ATOM     17  C   UNL     1      -6.911  -3.649 130.922  0.00  0.00    +0.000 C 
ATOM     18  C   UNL     1      -7.863  -3.200 129.572  0.00  0.00    +0.000 C 
ATOM     19  C   UNL     1      -7.371  -1.829 128.561  0.00  0.00    +0.000 C 
ATOM     20  C   UNL     1      -8.063  -0.452 128.714  0.00  0.00    +0.000 C 
ENDROOT
BRANCH   4  21
ATOM     21  O   UNL     1      -9.688  -0.903 124.003  0.00  0.00    +0.000 OA
ATOM     22  H   UNL     1     -10.034  -0.070 123.656  0.00  0.00    +0.000 HD
ENDBRANCH   4  21
BRANCH   4  23
ATOM     23  C   UNL     1      -7.940   0.416 123.477  0.00  0.00    +0.000 C 
BRANCH  23  24
ATOM     24  C   UNL     1      -7.655   1.820 124.129  0.00  0.00    +0.000 C 
BRANCH  24  25
ATOM     25  C   UNL     1      -8.907   2.627 124.568  0.00  0.00    +0.000 C 
ATOM     26  O   UNL     1      -8.834   3.767 125.017  0.00  0.00    +0.000 OA
BRANCH  25  27
ATOM     27  O   UNL     1     -10.116   2.037 124.463  0.00  0.00    +0.000 OA
ATOM     28  H   UNL     1     -10.867   2.579 124.172  0.00  0.00    +0.000 HD
ENDBRANCH  25  27
ENDBRANCH  24  25
ENDBRANCH  23  24
ENDBRANCH   4  23
TORSDOF 5
ENDMDL
MODEL 3
REMARK VINA RESULT:      -8.4      2.365      7.049
REMARK  Name = Canrenoic acid
REMARK  7 active torsions:
REMARK  status: ('A' for Active; 'I' for Inactive)
REMARK    1  A    between atoms: C_5  and  O_6
REMARK    2  A    between atoms: C_5  and  C_7
REMARK    3  A    between atoms: C_7  and  C_8
REMARK    4  A    between atoms: C_8  and  C_9
REMARK    5  A    between atoms: C_9  and  O_10
REMARK    6  A    between atoms: C_12  and  C_13
REMARK    7  A    between atoms: C_28  and  C_29
REMARK                            x       y       z     vdW  Elec       q    Type
REMARK                         _______ _______ _______ _____ _____    ______ ____
ROOT
ATOM      1  C   UNL     1      -8.218  -2.066 125.635  0.00  0.00    +0.000 C 
ATOM      2  C   UNL     1      -9.327  -1.225 125.918  0.00  0.00    +0.000 C 
ATOM      3  C   UNL     1      -7.981  -0.661 126.149  0.00  0.00    +0.000 C 
ATOM      4  C   UNL     1      -6.428  -1.759 125.242  0.00  0.00    +0.000 C 
ATOM      5  C   UNL     1      -7.217  -0.699 124.791  0.00  0.00    +0.000 C 
ATOM      6  C   UNL     1      -7.612  -0.338 123.423  0.00  0.00    +0.000 C 
ATOM      7  C   UNL     1      -6.113   0.385 125.845  0.00  0.00    +0.000 C 
ATOM      8  C   UNL     1      -5.584  -0.455 127.259  0.00  0.00    +0.000 C 
ATOM      9  C   UNL     1      -6.623  -1.385 128.124  0.00  0.00    +0.000 C 
ATOM     10  C   UNL     1      -7.386  -2.621 127.163  0.00  0.00    +0.000 C 
ATOM     11  C   UNL     1      -8.364  -3.425 127.921  0.00  0.00    +0.000 C 
ATOM     12  C   UNL     1      -8.427  -3.395 129.251  0.00  0.00    +0.000 C 
ATOM     13  C   UNL     1      -7.465  -2.713 130.096  0.00  0.00    +0.000 C 
ATOM     14  C   UNL     1      -7.629  -2.734 131.424  0.00  0.00    +0.000 C 
ATOM     15  C   UNL     1      -6.471  -2.220 132.159  0.00  0.00    +0.000 C 
ATOM     16  O   UNL     1      -5.387  -2.788 132.271  0.00  0.00    +0.000 OA
ATOM     17  C   UNL     1      -6.510  -0.784 132.297  0.00  0.00    +0.000 C 
ATOM     18  C   UNL     1      -5.918  -0.660 130.697  0.00  0.00    +0.000 C 
ATOM     19  C   UNL     1      -6.245  -1.954 129.529  0.00  0.00    +0.000 C 
ATOM     20  C   UNL     1      -5.153  -2.995 129.184  0.00  0.00    +0.000 C 
ENDROOT
BRANCH   4  21
ATOM     21  O   UNL     1      -5.236  -1.311 124.473  0.00  0.00    +0.000 OA
ATOM     22  H   UNL     1      -4.975  -0.381 124.441  0.00  0.00    +0.000 HD
ENDBRANCH   4  21
BRANCH   4  23
ATOM     23  C   UNL     1      -6.569  -3.080 124.067  0.00  0.00    +0.000 C 
BRANCH  23  24
ATOM     24  C   UNL     1      -5.809  -4.450 124.229  0.00  0.00    +0.000 C 
BRANCH  24  25
ATOM     25  C   UNL     1      -4.446  -4.556 123.493  0.00  0.00    +0.000 C 
ATOM     26  O   UNL     1      -3.684  -3.602 123.373  0.00  0.00    +0.000 OA
BRANCH  25  27
ATOM     27  O   UNL     1      -4.102  -5.745 122.954  0.00  0.00    +0.000 OA
ATOM     28  H   UNL     1      -4.427  -6.553 123.383  0.00  0.00    +0.000 HD
ENDBRANCH  25  27
ENDBRANCH  24  25
ENDBRANCH  23  24
ENDBRANCH   4  23
TORSDOF 5
ENDMDL
MODEL 4
REMARK VINA RESULT:      -7.6      2.566      6.610
REMARK  Name = Canrenoic acid
REMARK  7 active torsions:
REMARK  status: ('A' for Active; 'I' for Inactive)
REMARK    1  A    between atoms: C_5  and  O_6
REMARK    2  A    between atoms: C_5  and  C_7
REMARK    3  A    between atoms: C_7  and  C_8
REMARK    4  A    between atoms: C_8  and  C_9
REMARK    5  A    between atoms: C_9  and  O_10
REMARK    6  A    between atoms: C_12  and  C_13
REMARK    7  A    between atoms: C_28  and  C_29
REMARK                            x       y       z     vdW  Elec       q    Type
REMARK                         _______ _______ _______ _____ _____    ______ ____
ROOT
ATOM      1  C   UNL     1      -6.610  -1.381 124.746  0.00  0.00    +0.000 C 
ATOM      2  C   UNL     1      -5.447  -2.185 124.874  0.00  0.00    +0.000 C 
ATOM      3  C   UNL     1      -6.444  -2.267 125.962  0.00  0.00    +0.000 C 
ATOM      4  C   UNL     1      -8.323  -1.456 125.462  0.00  0.00    +0.000 C 
ATOM      5  C   UNL     1      -7.789  -2.740 125.332  0.00  0.00    +0.000 C 
ATOM      6  C   UNL     1      -8.111  -3.799 124.366  0.00  0.00    +0.000 C 
ATOM      7  C   UNL     1      -8.121  -2.910 127.167  0.00  0.00    +0.000 C 
ATOM      8  C   UNL     1      -7.929  -1.395 127.976  0.00  0.00    +0.000 C 
ATOM      9  C   UNL     1      -6.672  -0.403 127.617  0.00  0.00    +0.000 C 
ATOM     10  C   UNL     1      -6.598   0.012 125.928  0.00  0.00    +0.000 C 
ATOM     11  C   UNL     1      -5.438   0.859 125.587  0.00  0.00    +0.000 C 
ATOM     12  C   UNL     1      -4.711   1.472 126.520  0.00  0.00    +0.000 C 
ATOM     13  C   UNL     1      -5.058   1.510 127.928  0.00  0.00    +0.000 C 
ATOM     14  C   UNL     1      -4.249   2.144 128.785  0.00  0.00    +0.000 C 
ATOM     15  C   UNL     1      -4.832   2.312 130.117  0.00  0.00    +0.000 C 
ATOM     16  O   UNL     1      -5.752   3.075 130.402  0.00  0.00    +0.000 OA
ATOM     17  C   UNL     1      -4.616   1.157 130.953  0.00  0.00    +0.000 C 
ATOM     18  C   UNL     1      -5.923   0.392 130.157  0.00  0.00    +0.000 C 
ATOM     19  C   UNL     1      -6.332   0.846 128.493  0.00  0.00    +0.000 C 
ATOM     20  C   UNL     1      -7.528   1.787 128.207  0.00  0.00    +0.000 C 
ENDROOT
BRANCH   4  21
ATOM     21  O   UNL     1      -9.700  -1.963 125.706  0.00  0.00    +0.000 OA
ATOM     22  H   UNL     1     -10.440  -1.361 125.866  0.00  0.00    +0.000 HD
ENDBRANCH   4  21
BRANCH   4  23
ATOM     23  C   UNL     1      -8.899  -0.944 123.865  0.00  0.00    +0.000 C 
BRANCH  23  24
ATOM     24  C   UNL     1      -8.962   0.567 123.425  0.00  0.00    +0.000 C 
BRANCH  24  25
ATOM     25  C   UNL     1     -10.051   1.428 124.121  0.00  0.00    +0.000 C 
ATOM     26  O   UNL     1     -11.246   1.156 124.059  0.00  0.00    +0.000 OA
BRANCH  25  27
ATOM     27  O   UNL     1      -9.659   2.523 124.804  0.00  0.00    +0.000 OA
ATOM     28  H   UNL     1      -9.443   3.325 124.301  0.00  0.00    +0.000 HD
ENDBRANCH  25  27
ENDBRANCH  24  25
ENDBRANCH  23  24
ENDBRANCH   4  23
TORSDOF 5
ENDMDL
MODEL 5
REMARK VINA RESULT:      -7.5      5.986      9.203
REMARK  Name = Canrenoic acid
REMARK  7 active torsions:
REMARK  status: ('A' for Active; 'I' for Inactive)
REMARK    1  A    between atoms: C_5  and  O_6
REMARK    2  A    between atoms: C_5  and  C_7
REMARK    3  A    between atoms: C_7  and  C_8
REMARK    4  A    between atoms: C_8  and  C_9
REMARK    5  A    between atoms: C_9  and  O_10
REMARK    6  A    between atoms: C_12  and  C_13
REMARK    7  A    between atoms: C_28  and  C_29
REMARK                            x       y       z     vdW  Elec       q    Type
REMARK                         _______ _______ _______ _____ _____    ______ ____
ROOT
ATOM      1  C   UNL     1      -7.410   3.403 130.775  0.00  0.00    +0.000 C 
ATOM      2  C   UNL     1      -7.602   2.950 132.107  0.00  0.00    +0.000 C 
ATOM      3  C   UNL     1      -7.564   4.412 131.894  0.00  0.00    +0.000 C 
ATOM      4  C   UNL     1      -7.786   4.987 129.879  0.00  0.00    +0.000 C 
ATOM      5  C   UNL     1      -8.712   4.771 130.902  0.00  0.00    +0.000 C 
ATOM      6  C   UNL     1     -10.118   4.355 130.824  0.00  0.00    +0.000 C 
ATOM      7  C   UNL     1      -8.188   6.452 131.539  0.00  0.00    +0.000 C 
ATOM      8  C   UNL     1      -6.517   6.748 131.210  0.00  0.00    +0.000 C 
ATOM      9  C   UNL     1      -5.394   5.573 131.434  0.00  0.00    +0.000 C 
ATOM     10  C   UNL     1      -5.746   4.120 130.540  0.00  0.00    +0.000 C 
ATOM     11  C   UNL     1      -4.771   3.038 130.781  0.00  0.00    +0.000 C 
ATOM     12  C   UNL     1      -3.602   3.260 131.379  0.00  0.00    +0.000 C 
ATOM     13  C   UNL     1      -3.093   4.577 131.710  0.00  0.00    +0.000 C 
ATOM     14  C   UNL     1      -1.909   4.687 132.323  0.00  0.00    +0.000 C 
ATOM     15  C   UNL     1      -1.410   6.063 132.380  0.00  0.00    +0.000 C 
ATOM     16  O   UNL     1      -0.989   6.709 131.424  0.00  0.00    +0.000 OA
ATOM     17  C   UNL     1      -1.932   6.782 133.517  0.00  0.00    +0.000 C 
ATOM     18  C   UNL     1      -3.379   7.031 132.639  0.00  0.00    +0.000 C 
ATOM     19  C   UNL     1      -3.862   5.876 131.384  0.00  0.00    +0.000 C 
ATOM     20  C   UNL     1      -3.637   6.202 129.888  0.00  0.00    +0.000 C 
ENDROOT
BRANCH   4  21
ATOM     21  O   UNL     1      -8.599   6.066 129.257  0.00  0.00    +0.000 OA
ATOM     22  H   UNL     1      -8.894   6.012 128.338  0.00  0.00    +0.000 HD
ENDBRANCH   4  21
BRANCH   4  23
ATOM     23  C   UNL     1      -8.252   3.974 128.501  0.00  0.00    +0.000 C 
BRANCH  23  24
ATOM     24  C   UNL     1      -7.523   4.040 127.107  0.00  0.00    +0.000 C 
BRANCH  24  25
ATOM     25  C   UNL     1      -8.270   4.822 125.992  0.00  0.00    +0.000 C 
ATOM     26  O   UNL     1      -9.039   5.746 126.235  0.00  0.00    +0.000 OA
BRANCH  25  27
ATOM     27  O   UNL     1      -8.069   4.451 124.710  0.00  0.00    +0.000 OA
ATOM     28  H   UNL     1      -8.609   3.727 124.352  0.00  0.00    +0.000 HD
ENDBRANCH  25  27
ENDBRANCH  24  25
ENDBRANCH  23  24
ENDBRANCH   4  23
TORSDOF 5
ENDMDL
MODEL 6
REMARK VINA RESULT:      -7.5      3.832      5.210
REMARK  Name = Canrenoic acid
REMARK  7 active torsions:
REMARK  status: ('A' for Active; 'I' for Inactive)
REMARK    1  A    between atoms: C_5  and  O_6
REMARK    2  A    between atoms: C_5  and  C_7
REMARK    3  A    between atoms: C_7  and  C_8
REMARK    4  A    between atoms: C_8  and  C_9
REMARK    5  A    between atoms: C_9  and  O_10
REMARK    6  A    between atoms: C_12  and  C_13
REMARK    7  A    between atoms: C_28  and  C_29
REMARK                            x       y       z     vdW  Elec       q    Type
REMARK                         _______ _______ _______ _____ _____    ______ ____
ROOT
ATOM      1  C   UNL     1      -4.712   2.749 127.615  0.00  0.00    +0.000 C 
ATOM      2  C   UNL     1      -3.391   2.495 127.163  0.00  0.00    +0.000 C 
ATOM      3  C   UNL     1      -4.368   2.956 126.155  0.00  0.00    +0.000 C 
ATOM      4  C   UNL     1      -6.122   3.780 126.981  0.00  0.00    +0.000 C 
ATOM      5  C   UNL     1      -4.898   4.347 126.618  0.00  0.00    +0.000 C 
ATOM      6  C   UNL     1      -4.221   5.538 127.146  0.00  0.00    +0.000 C 
ATOM      7  C   UNL     1      -5.531   4.238 124.860  0.00  0.00    +0.000 C 
ATOM      8  C   UNL     1      -6.545   2.855 124.648  0.00  0.00    +0.000 C 
ATOM      9  C   UNL     1      -6.135   1.405 125.297  0.00  0.00    +0.000 C 
ATOM     10  C   UNL     1      -5.883   1.480 127.018  0.00  0.00    +0.000 C 
ATOM     11  C   UNL     1      -5.460   0.192 127.601  0.00  0.00    +0.000 C 
ATOM     12  C   UNL     1      -5.553  -0.954 126.929  0.00  0.00    +0.000 C 
ATOM     13  C   UNL     1      -6.211  -1.092 125.644  0.00  0.00    +0.000 C 
ATOM     14  C   UNL     1      -6.237  -2.290 125.046  0.00  0.00    +0.000 C 
ATOM     15  C   UNL     1      -7.130  -2.341 123.887  0.00  0.00    +0.000 C 
ATOM     16  O   UNL     1      -8.357  -2.322 123.931  0.00  0.00    +0.000 OA
ATOM     17  C   UNL     1      -6.480  -1.886 122.682  0.00  0.00    +0.000 C 
ATOM     18  C   UNL     1      -6.757  -0.277 123.193  0.00  0.00    +0.000 C 
ATOM     19  C   UNL     1      -6.893   0.090 124.922  0.00  0.00    +0.000 C 
ATOM     20  C   UNL     1      -8.281   0.310 125.571  0.00  0.00    +0.000 C 
ENDROOT
BRANCH   4  21
ATOM     21  O   UNL     1      -6.891   5.001 126.620  0.00  0.00    +0.000 OA
ATOM     22  H   UNL     1      -6.610   5.582 125.900  0.00  0.00    +0.000 HD
ENDBRANCH   4  21
BRANCH   4  23
ATOM     23  C   UNL     1      -6.435   4.203 128.675  0.00  0.00    +0.000 C 
BRANCH  23  24
ATOM     24  C   UNL     1      -7.680   3.663 129.473  0.00  0.00    +0.000 C 
BRANCH  24  25
ATOM     25  C   UNL     1      -9.002   4.457 129.278  0.00  0.00    +0.000 C 
ATOM     26  O   UNL     1      -9.063   5.482 128.608  0.00  0.00    +0.000 OA
BRANCH  25  27
ATOM     27  O   UNL     1     -10.115   4.001 129.888  0.00  0.00    +0.000 OA
ATOM     28  H   UNL     1     -10.124   3.080 130.198  0.00  0.00    +0.000 HD
ENDBRANCH  25  27
ENDBRANCH  24  25
ENDBRANCH  23  24
ENDBRANCH   4  23
TORSDOF 5
ENDMDL
MODEL 7
REMARK VINA RESULT:      -7.4      5.157      8.106
REMARK  Name = Canrenoic acid
REMARK  7 active torsions:
REMARK  status: ('A' for Active; 'I' for Inactive)
REMARK    1  A    between atoms: C_5  and  O_6
REMARK    2  A    between atoms: C_5  and  C_7
REMARK    3  A    between atoms: C_7  and  C_8
REMARK    4  A    between atoms: C_8  and  C_9
REMARK    5  A    between atoms: C_9  and  O_10
REMARK    6  A    between atoms: C_12  and  C_13
REMARK    7  A    between atoms: C_28  and  C_29
REMARK                            x       y       z     vdW  Elec       q    Type
REMARK                         _______ _______ _______ _____ _____    ______ ____
ROOT
ATOM      1  C   UNL     1      -8.072   2.732 130.255  0.00  0.00    +0.000 C 
ATOM      2  C   UNL     1      -7.381   1.538 129.921  0.00  0.00    +0.000 C 
ATOM      3  C   UNL     1      -7.260   2.016 131.314  0.00  0.00    +0.000 C 
ATOM      4  C   UNL     1      -8.689   3.469 131.846  0.00  0.00    +0.000 C 
ATOM      5  C   UNL     1      -8.695   2.075 131.917  0.00  0.00    +0.000 C 
ATOM      6  C   UNL     1      -9.825   1.137 131.875  0.00  0.00    +0.000 C 
ATOM      7  C   UNL     1      -7.613   2.288 133.429  0.00  0.00    +0.000 C 
ATOM      8  C   UNL     1      -6.589   3.671 133.271  0.00  0.00    +0.000 C 
ATOM      9  C   UNL     1      -5.824   3.995 131.856  0.00  0.00    +0.000 C 
ATOM     10  C   UNL     1      -6.920   4.128 130.509  0.00  0.00    +0.000 C 
ATOM     11  C   UNL     1      -6.235   4.362 129.222  0.00  0.00    +0.000 C 
ATOM     12  C   UNL     1      -4.955   4.725 129.158  0.00  0.00    +0.000 C 
ATOM     13  C   UNL     1      -4.150   5.079 130.312  0.00  0.00    +0.000 C 
ATOM     14  C   UNL     1      -2.867   5.417 130.137  0.00  0.00    +0.000 C 
ATOM     15  C   UNL     1      -2.246   5.978 131.338  0.00  0.00    +0.000 C 
ATOM     16  O   UNL     1      -2.486   7.084 131.816  0.00  0.00    +0.000 OA
ATOM     17  C   UNL     1      -1.732   4.951 132.212  0.00  0.00    +0.000 C 
ATOM     18  C   UNL     1      -3.324   4.711 132.792  0.00  0.00    +0.000 C 
ATOM     19  C   UNL     1      -4.710   5.085 131.751  0.00  0.00    +0.000 C 
ATOM     20  C   UNL     1      -5.509   6.396 131.948  0.00  0.00    +0.000 C 
ENDROOT
BRANCH   4  21
ATOM     21  O   UNL     1      -9.517   3.620 133.072  0.00  0.00    +0.000 OA
ATOM     22  H   UNL     1      -9.696   2.872 133.657  0.00  0.00    +0.000 HD
ENDBRANCH   4  21
BRANCH   4  23
ATOM     23  C   UNL     1     -10.123   3.974 130.933  0.00  0.00    +0.000 C 
BRANCH  23  24
ATOM     24  C   UNL     1     -10.470   5.484 130.655  0.00  0.00    +0.000 C 
BRANCH  24  25
ATOM     25  C   UNL     1     -11.189   6.235 131.809  0.00  0.00    +0.000 C 
ATOM     26  O   UNL     1     -12.357   6.602 131.731  0.00  0.00    +0.000 OA
BRANCH  25  27
ATOM     27  O   UNL     1     -10.487   6.503 132.930  0.00  0.00    +0.000 OA
ATOM     28  H   UNL     1     -10.276   7.429 133.128  0.00  0.00    +0.000 HD
ENDBRANCH  25  27
ENDBRANCH  24  25
ENDBRANCH  23  24
ENDBRANCH   4  23
TORSDOF 5
ENDMDL
MODEL 8
REMARK VINA RESULT:      -7.4      5.490      8.910
REMARK  Name = Canrenoic acid
REMARK  7 active torsions:
REMARK  status: ('A' for Active; 'I' for Inactive)
REMARK    1  A    between atoms: C_5  and  O_6
REMARK    2  A    between atoms: C_5  and  C_7
REMARK    3  A    between atoms: C_7  and  C_8
REMARK    4  A    between atoms: C_8  and  C_9
REMARK    5  A    between atoms: C_9  and  O_10
REMARK    6  A    between atoms: C_12  and  C_13
REMARK    7  A    between atoms: C_28  and  C_29
REMARK                            x       y       z     vdW  Elec       q    Type
REMARK                         _______ _______ _______ _____ _____    ______ ____
ROOT
ATOM      1  C   UNL     1      -8.263   3.858 131.995  0.00  0.00    +0.000 C 
ATOM      2  C   UNL     1      -9.230   2.838 132.189  0.00  0.00    +0.000 C 
ATOM      3  C   UNL     1      -8.939   3.231 130.794  0.00  0.00    +0.000 C 
ATOM      4  C   UNL     1      -7.171   4.356 130.576  0.00  0.00    +0.000 C 
ATOM      5  C   UNL     1      -7.421   2.982 130.544  0.00  0.00    +0.000 C 
ATOM      6  C   UNL     1      -6.535   1.858 130.874  0.00  0.00    +0.000 C 
ATOM      7  C   UNL     1      -8.072   3.284 128.815  0.00  0.00    +0.000 C 
ATOM      8  C   UNL     1      -8.814   4.840 128.693  0.00  0.00    +0.000 C 
ATOM      9  C   UNL     1      -9.800   5.397 129.880  0.00  0.00    +0.000 C 
ATOM     10  C   UNL     1      -9.032   5.420 131.443  0.00  0.00    +0.000 C 
ATOM     11  C   UNL     1      -9.931   5.867 132.526  0.00  0.00    +0.000 C 
ATOM     12  C   UNL     1     -11.096   6.462 132.278  0.00  0.00    +0.000 C 
ATOM     13  C   UNL     1     -11.535   6.876 130.959  0.00  0.00    +0.000 C 
ATOM     14  C   UNL     1     -12.733   7.457 130.819  0.00  0.00    +0.000 C 
ATOM     15  C   UNL     1     -12.945   8.036 129.491  0.00  0.00    +0.000 C 
ATOM     16  O   UNL     1     -12.392   9.043 129.056  0.00  0.00    +0.000 OA
ATOM     17  C   UNL     1     -13.439   7.063 128.548  0.00  0.00    +0.000 C 
ATOM     18  C   UNL     1     -11.836   6.493 128.365  0.00  0.00    +0.000 C 
ATOM     19  C   UNL     1     -10.675   6.678 129.692  0.00  0.00    +0.000 C 
ATOM     20  C   UNL     1      -9.612   7.803 129.655  0.00  0.00    +0.000 C 
ENDROOT
BRANCH   4  21
ATOM     21  O   UNL     1      -6.075   4.265 129.575  0.00  0.00    +0.000 OA
ATOM     22  H   UNL     1      -5.263   3.774 129.756  0.00  0.00    +0.000 HD
ENDBRANCH   4  21
BRANCH   4  23
ATOM     23  C   UNL     1      -5.910   4.650 131.787  0.00  0.00    +0.000 C 
BRANCH  23  24
ATOM     24  C   UNL     1      -5.435   6.096 132.189  0.00  0.00    +0.000 C 
BRANCH  24  25
ATOM     25  C   UNL     1      -4.193   6.635 131.427  0.00  0.00    +0.000 C 
ATOM     26  O   UNL     1      -3.757   6.099 130.414  0.00  0.00    +0.000 OA
BRANCH  25  27
ATOM     27  O   UNL     1      -3.568   7.726 131.916  0.00  0.00    +0.000 OA
ATOM     28  H   UNL     1      -3.621   7.896 132.871  0.00  0.00    +0.000 HD
ENDBRANCH  25  27
ENDBRANCH  24  25
ENDBRANCH  23  24
ENDBRANCH   4  23
TORSDOF 5
ENDMDL
MODEL 9
REMARK VINA RESULT:      -7.4      2.001      2.636
REMARK  Name = Canrenoic acid
REMARK  7 active torsions:
REMARK  status: ('A' for Active; 'I' for Inactive)
REMARK    1  A    between atoms: C_5  and  O_6
REMARK    2  A    between atoms: C_5  and  C_7
REMARK    3  A    between atoms: C_7  and  C_8
REMARK    4  A    between atoms: C_8  and  C_9
REMARK    5  A    between atoms: C_9  and  O_10
REMARK    6  A    between atoms: C_12  and  C_13
REMARK    7  A    between atoms: C_28  and  C_29
REMARK                            x       y       z     vdW  Elec       q    Type
REMARK                         _______ _______ _______ _____ _____    ______ ____
ROOT
ATOM      1  C   UNL     1      -6.165  -0.060 129.777  0.00  0.00    +0.000 C 
ATOM      2  C   UNL     1      -5.034  -0.917 129.786  0.00  0.00    +0.000 C 
ATOM      3  C   UNL     1      -5.185  -0.017 128.624  0.00  0.00    +0.000 C 
ATOM      4  C   UNL     1      -6.571   1.540 128.924  0.00  0.00    +0.000 C 
ATOM      5  C   UNL     1      -5.198   1.446 129.162  0.00  0.00    +0.000 C 
ATOM      6  C   UNL     1      -4.364   2.145 130.148  0.00  0.00    +0.000 C 
ATOM      7  C   UNL     1      -5.006   1.696 127.316  0.00  0.00    +0.000 C 
ATOM      8  C   UNL     1      -6.324   0.987 126.452  0.00  0.00    +0.000 C 
ATOM      9  C   UNL     1      -6.903  -0.492 126.866  0.00  0.00    +0.000 C 
ATOM     10  C   UNL     1      -7.397  -0.584 128.533  0.00  0.00    +0.000 C 
ATOM     11  C   UNL     1      -7.865  -1.927 128.928  0.00  0.00    +0.000 C 
ATOM     12  C   UNL     1      -8.154  -2.868 128.030  0.00  0.00    +0.000 C 
ATOM     13  C   UNL     1      -8.194  -2.642 126.598  0.00  0.00    +0.000 C 
ATOM     14  C   UNL     1      -8.483  -3.662 125.781  0.00  0.00    +0.000 C 
ATOM     15  C   UNL     1      -8.726  -3.248 124.398  0.00  0.00    +0.000 C 
ATOM     16  O   UNL     1      -9.713  -2.634 124.000  0.00  0.00    +0.000 OA
ATOM     17  C   UNL     1      -7.502  -3.144 123.641  0.00  0.00    +0.000 C 
ATOM     18  C   UNL     1      -7.239  -1.615 124.362  0.00  0.00    +0.000 C 
ATOM     19  C   UNL     1      -7.918  -1.262 125.962  0.00  0.00    +0.000 C 
ATOM     20  C   UNL     1      -9.201  -0.407 126.099  0.00  0.00    +0.000 C 
ENDROOT
BRANCH   4  21
ATOM     21  O   UNL     1      -6.499   2.988 128.591  0.00  0.00    +0.000 OA
ATOM     22  H   UNL     1      -6.124   3.632 129.207  0.00  0.00    +0.000 HD
ENDBRANCH   4  21
BRANCH   4  23
ATOM     23  C   UNL     1      -7.352   2.028 130.440  0.00  0.00    +0.000 C 
BRANCH  23  24
ATOM     24  C   UNL     1      -8.906   1.931 130.669  0.00  0.00    +0.000 C 
BRANCH  24  25
ATOM     25  C   UNL     1      -9.731   3.174 130.234  0.00  0.00    +0.000 C 
ATOM     26  O   UNL     1      -9.375   3.917 129.324  0.00  0.00    +0.000 OA
BRANCH  25  27
ATOM     27  O   UNL     1     -10.872   3.447 130.899  0.00  0.00    +0.000 OA
ATOM     28  H   UNL     1     -11.293   2.731 131.402  0.00  0.00    +0.000 HD
ENDBRANCH  25  27
ENDBRANCH  24  25
ENDBRANCH  23  24
ENDBRANCH   4  23
TORSDOF 5
ENDMDL
