MODEL 1
REMARK VINA RESULT:      -6.2      0.000      0.000
REMARK  Name = Cantharidin
REMARK  2 active torsions:
REMARK  status: ('A' for Active; 'I' for Inactive)
REMARK    1  A    between atoms: C_8  and  C_9
REMARK    2  A    between atoms: C_15  and  C_16
REMARK                            x       y       z     vdW  Elec       q    Type
REMARK                         _______ _______ _______ _____ _____    ______ ____
ROOT
ATOM      1  C   UNL     1     -12.138   7.050 129.542  0.00  0.00    +0.000 C 
ATOM      2  C   UNL     1     -12.208   6.997 128.019  0.00  0.00    +0.000 C 
ATOM      3  C   UNL     1     -10.959   7.771 127.587  0.00  0.00    +0.000 C 
ATOM      4  C   UNL     1     -10.276   8.034 128.934  0.00  0.00    +0.000 C 
ATOM      5  O   UNL     1     -11.459   8.349 129.711  0.00  0.00    +0.000 OA
ATOM      6  C   UNL     1      -9.795   6.785 129.693  0.00  0.00    +0.000 C 
ATOM      7  C   UNL     1      -8.857   7.059 130.872  0.00  0.00    +0.000 C 
ATOM      8  C   UNL     1      -9.354   5.659 128.782  0.00  0.00    +0.000 C 
ATOM      9  O   UNL     1      -9.277   5.600 127.568  0.00  0.00    +0.000 OA
ATOM     10  O   UNL     1      -9.510   4.541 129.505  0.00  0.00    +0.000 OA
ATOM     11  C   UNL     1     -10.787   4.653 129.947  0.00  0.00    +0.000 C 
ATOM     12  O   UNL     1     -11.468   3.670 130.212  0.00  0.00    +0.000 OA
ATOM     13  C   UNL     1     -11.105   6.131 130.223  0.00  0.00    +0.000 C 
ATOM     14  C   UNL     1     -11.376   6.154 131.741  0.00  0.00    +0.000 C 
ENDROOT
TORSDOF 0
ENDMDL
MODEL 2
REMARK VINA RESULT:      -6.2      1.756      3.228
REMARK  Name = Cantharidin
REMARK  2 active torsions:
REMARK  status: ('A' for Active; 'I' for Inactive)
REMARK    1  A    between atoms: C_8  and  C_9
REMARK    2  A    between atoms: C_15  and  C_16
REMARK                            x       y       z     vdW  Elec       q    Type
REMARK                         _______ _______ _______ _____ _____    ______ ____
ROOT
ATOM      1  C   UNL     1     -10.622   7.233 128.651  0.00  0.00    +0.000 C 
ATOM      2  C   UNL     1     -11.526   8.399 129.039  0.00  0.00    +0.000 C 
ATOM      3  C   UNL     1     -12.887   7.728 129.247  0.00  0.00    +0.000 C 
ATOM      4  C   UNL     1     -12.530   6.246 129.084  0.00  0.00    +0.000 C 
ATOM      5  O   UNL     1     -11.609   6.373 127.971  0.00  0.00    +0.000 OA
ATOM      6  C   UNL     1     -11.575   5.671 130.144  0.00  0.00    +0.000 C 
ATOM      7  C   UNL     1     -11.462   4.143 130.159  0.00  0.00    +0.000 C 
ATOM      8  C   UNL     1     -11.734   6.307 131.508  0.00  0.00    +0.000 C 
ATOM      9  O   UNL     1     -12.514   7.154 131.906  0.00  0.00    +0.000 OA
ATOM     10  O   UNL     1     -10.551   6.139 132.115  0.00  0.00    +0.000 OA
ATOM     11  C   UNL     1      -9.679   6.617 131.194  0.00  0.00    +0.000 C 
ATOM     12  O   UNL     1      -8.596   7.090 131.514  0.00  0.00    +0.000 OA
ATOM     13  C   UNL     1     -10.189   6.282 129.783  0.00  0.00    +0.000 C 
ATOM     14  C   UNL     1      -9.096   5.347 129.227  0.00  0.00    +0.000 C 
ENDROOT
TORSDOF 0
ENDMDL
MODEL 3
REMARK VINA RESULT:      -5.8      8.940     10.505
REMARK  Name = Cantharidin
REMARK  2 active torsions:
REMARK  status: ('A' for Active; 'I' for Inactive)
REMARK    1  A    between atoms: C_8  and  C_9
REMARK    2  A    between atoms: C_15  and  C_16
REMARK                            x       y       z     vdW  Elec       q    Type
REMARK                         _______ _______ _______ _____ _____    ______ ____
ROOT
ATOM      1  C   UNL     1      -7.737  -2.083 126.111  0.00  0.00    +0.000 C 
ATOM      2  C   UNL     1      -7.834  -0.565 126.232  0.00  0.00    +0.000 C 
ATOM      3  C   UNL     1      -6.421  -0.098 125.870  0.00  0.00    +0.000 C 
ATOM      4  C   UNL     1      -5.755  -1.414 125.455  0.00  0.00    +0.000 C 
ATOM      5  O   UNL     1      -6.321  -2.268 126.482  0.00  0.00    +0.000 OA
ATOM      6  C   UNL     1      -6.341  -2.093 124.205  0.00  0.00    +0.000 C 
ATOM      7  C   UNL     1      -5.496  -3.229 123.622  0.00  0.00    +0.000 C 
ATOM      8  C   UNL     1      -6.876  -1.113 123.182  0.00  0.00    +0.000 C 
ATOM      9  O   UNL     1      -6.875   0.105 123.169  0.00  0.00    +0.000 OA
ATOM     10  O   UNL     1      -7.798  -1.796 122.489  0.00  0.00    +0.000 OA
ATOM     11  C   UNL     1      -8.578  -2.312 123.470  0.00  0.00    +0.000 C 
ATOM     12  O   UNL     1      -9.761  -2.572 123.285  0.00  0.00    +0.000 OA
ATOM     13  C   UNL     1      -7.707  -2.667 124.685  0.00  0.00    +0.000 C 
ATOM     14  C   UNL     1      -7.863  -4.197 124.795  0.00  0.00    +0.000 C 
ENDROOT
TORSDOF 0
ENDMDL
MODEL 4
REMARK VINA RESULT:      -5.8      8.935     10.537
REMARK  Name = Cantharidin
REMARK  2 active torsions:
REMARK  status: ('A' for Active; 'I' for Inactive)
REMARK    1  A    between atoms: C_8  and  C_9
REMARK    2  A    between atoms: C_15  and  C_16
REMARK                            x       y       z     vdW  Elec       q    Type
REMARK                         _______ _______ _______ _____ _____    ______ ____
ROOT
ATOM      1  C   UNL     1      -6.360  -1.097 123.757  0.00  0.00    +0.000 C 
ATOM      2  C   UNL     1      -5.888  -2.400 123.116  0.00  0.00    +0.000 C 
ATOM      3  C   UNL     1      -5.537  -3.273 124.325  0.00  0.00    +0.000 C 
ATOM      4  C   UNL     1      -5.995  -2.388 125.490  0.00  0.00    +0.000 C 
ATOM      5  O   UNL     1      -5.534  -1.112 124.979  0.00  0.00    +0.000 OA
ATOM      6  C   UNL     1      -7.506  -2.107 125.559  0.00  0.00    +0.000 C 
ATOM      7  C   UNL     1      -7.995  -1.487 126.872  0.00  0.00    +0.000 C 
ATOM      8  C   UNL     1      -8.356  -3.247 125.042  0.00  0.00    +0.000 C 
ATOM      9  O   UNL     1      -8.045  -4.350 124.631  0.00  0.00    +0.000 OA
ATOM     10  O   UNL     1      -9.506  -2.680 124.652  0.00  0.00    +0.000 OA
ATOM     11  C   UNL     1      -9.079  -1.677 123.846  0.00  0.00    +0.000 C 
ATOM     12  O   UNL     1      -9.769  -1.244 122.931  0.00  0.00    +0.000 OA
ATOM     13  C   UNL     1      -7.763  -1.104 124.395  0.00  0.00    +0.000 C 
ATOM     14  C   UNL     1      -8.132   0.351 124.746  0.00  0.00    +0.000 C 
ENDROOT
TORSDOF 0
ENDMDL
MODEL 5
REMARK VINA RESULT:      -5.7      8.412     10.080
REMARK  Name = Cantharidin
REMARK  2 active torsions:
REMARK  status: ('A' for Active; 'I' for Inactive)
REMARK    1  A    between atoms: C_8  and  C_9
REMARK    2  A    between atoms: C_15  and  C_16
REMARK                            x       y       z     vdW  Elec       q    Type
REMARK                         _______ _______ _______ _____ _____    ______ ____
ROOT
ATOM      1  C   UNL     1      -8.721  -1.836 125.821  0.00  0.00    +0.000 C 
ATOM      2  C   UNL     1      -7.692  -2.962 125.789  0.00  0.00    +0.000 C 
ATOM      3  C   UNL     1      -8.039  -3.711 124.498  0.00  0.00    +0.000 C 
ATOM      4  C   UNL     1      -9.132  -2.815 123.904  0.00  0.00    +0.000 C 
ATOM      5  O   UNL     1      -9.840  -2.505 125.131  0.00  0.00    +0.000 OA
ATOM      6  C   UNL     1      -8.686  -1.399 123.500  0.00  0.00    +0.000 C 
ATOM      7  C   UNL     1      -9.686  -0.621 122.640  0.00  0.00    +0.000 C 
ATOM      8  C   UNL     1      -7.252  -1.333 123.020  0.00  0.00    +0.000 C 
ATOM      9  O   UNL     1      -6.423  -2.211 122.861  0.00  0.00    +0.000 OA
ATOM     10  O   UNL     1      -6.864  -0.069 123.245  0.00  0.00    +0.000 OA
ATOM     11  C   UNL     1      -7.198   0.111 124.547  0.00  0.00    +0.000 C 
ATOM     12  O   UNL     1      -6.600   0.905 125.263  0.00  0.00    +0.000 OA
ATOM     13  C   UNL     1      -8.493  -0.657 124.855  0.00  0.00    +0.000 C 
ATOM     14  C   UNL     1      -9.485   0.463 125.228  0.00  0.00    +0.000 C 
ENDROOT
TORSDOF 0
ENDMDL
MODEL 6
REMARK VINA RESULT:      -5.5      8.612      9.997
REMARK  Name = Cantharidin
REMARK  2 active torsions:
REMARK  status: ('A' for Active; 'I' for Inactive)
REMARK    1  A    between atoms: C_8  and  C_9
REMARK    2  A    between atoms: C_15  and  C_16
REMARK                            x       y       z     vdW  Elec       q    Type
REMARK                         _______ _______ _______ _____ _____    ______ ____
ROOT
ATOM      1  C   UNL     1      -7.558  -0.602 125.596  0.00  0.00    +0.000 C 
ATOM      2  C   UNL     1      -8.927   0.069 125.551  0.00  0.00    +0.000 C 
ATOM      3  C   UNL     1      -8.948   0.722 124.165  0.00  0.00    +0.000 C 
ATOM      4  C   UNL     1      -7.637   0.207 123.560  0.00  0.00    +0.000 C 
ATOM      5  O   UNL     1      -6.800   0.329 124.738  0.00  0.00    +0.000 OA
ATOM      6  C   UNL     1      -7.555  -1.314 123.343  0.00  0.00    +0.000 C 
ATOM      7  C   UNL     1      -6.387  -1.787 122.473  0.00  0.00    +0.000 C 
ATOM      8  C   UNL     1      -8.889  -1.949 123.012  0.00  0.00    +0.000 C 
ATOM      9  O   UNL     1      -9.988  -1.452 122.848  0.00  0.00    +0.000 OA
ATOM     10  O   UNL     1      -8.775  -3.228 123.398  0.00  0.00    +0.000 OA
ATOM     11  C   UNL     1      -8.330  -3.110 124.673  0.00  0.00    +0.000 C 
ATOM     12  O   UNL     1      -8.557  -3.966 125.519  0.00  0.00    +0.000 OA
ATOM     13  C   UNL     1      -7.391  -1.898 124.778  0.00  0.00    +0.000 C 
ATOM     14  C   UNL     1      -6.039  -2.532 125.163  0.00  0.00    +0.000 C 
ENDROOT
TORSDOF 0
ENDMDL
MODEL 7
REMARK VINA RESULT:      -5.4      8.816     10.175
REMARK  Name = Cantharidin
REMARK  2 active torsions:
REMARK  status: ('A' for Active; 'I' for Inactive)
REMARK    1  A    between atoms: C_8  and  C_9
REMARK    2  A    between atoms: C_15  and  C_16
REMARK                            x       y       z     vdW  Elec       q    Type
REMARK                         _______ _______ _______ _____ _____    ______ ____
ROOT
ATOM      1  C   UNL     1      -7.682  -0.483 125.370  0.00  0.00    +0.000 C 
ATOM      2  C   UNL     1      -9.049  -0.136 124.789  0.00  0.00    +0.000 C 
ATOM      3  C   UNL     1      -8.894  -0.483 123.305  0.00  0.00    +0.000 C 
ATOM      4  C   UNL     1      -7.497  -1.114 123.279  0.00  0.00    +0.000 C 
ATOM      5  O   UNL     1      -6.837  -0.202 124.193  0.00  0.00    +0.000 OA
ATOM      6  C   UNL     1      -7.344  -2.426 124.069  0.00  0.00    +0.000 C 
ATOM      7  C   UNL     1      -6.053  -3.204 123.797  0.00  0.00    +0.000 C 
ATOM      8  C   UNL     1      -8.601  -3.270 124.085  0.00  0.00    +0.000 C 
ATOM      9  O   UNL     1      -9.680  -3.103 123.546  0.00  0.00    +0.000 OA
ATOM     10  O   UNL     1      -8.507  -4.017 125.194  0.00  0.00    +0.000 OA
ATOM     11  C   UNL     1      -8.248  -3.091 126.150  0.00  0.00    +0.000 C 
ATOM     12  O   UNL     1      -8.567  -3.264 127.320  0.00  0.00    +0.000 OA
ATOM     13  C   UNL     1      -7.366  -1.979 125.561  0.00  0.00    +0.000 C 
ATOM     14  C   UNL     1      -6.065  -2.090 126.381  0.00  0.00    +0.000 C 
ENDROOT
TORSDOF 0
ENDMDL
MODEL 8
REMARK VINA RESULT:      -5.4      7.761      9.570
REMARK  Name = Cantharidin
REMARK  2 active torsions:
REMARK  status: ('A' for Active; 'I' for Inactive)
REMARK    1  A    between atoms: C_8  and  C_9
REMARK    2  A    between atoms: C_15  and  C_16
REMARK                            x       y       z     vdW  Elec       q    Type
REMARK                         _______ _______ _______ _____ _____    ______ ____
ROOT
ATOM      1  C   UNL     1      -6.796  -1.165 123.853  0.00  0.00    +0.000 C 
ATOM      2  C   UNL     1      -7.384  -1.892 122.646  0.00  0.00    +0.000 C 
ATOM      3  C   UNL     1      -8.736  -2.390 123.166  0.00  0.00    +0.000 C 
ATOM      4  C   UNL     1      -8.788  -1.751 124.558  0.00  0.00    +0.000 C 
ATOM      5  O   UNL     1      -7.403  -1.960 124.937  0.00  0.00    +0.000 OA
ATOM      6  C   UNL     1      -8.831  -0.213 124.584  0.00  0.00    +0.000 C 
ATOM      7  C   UNL     1      -9.185   0.406 125.940  0.00  0.00    +0.000 C 
ATOM      8  C   UNL     1      -9.561   0.390 123.403  0.00  0.00    +0.000 C 
ATOM      9  O   UNL     1     -10.148  -0.138 122.475  0.00  0.00    +0.000 OA
ATOM     10  O   UNL     1      -9.052   1.623 123.268  0.00  0.00    +0.000 OA
ATOM     11  C   UNL     1      -7.718   1.388 123.247  0.00  0.00    +0.000 C 
ATOM     12  O   UNL     1      -6.939   2.136 122.669  0.00  0.00    +0.000 OA
ATOM     13  C   UNL     1      -7.388   0.218 124.187  0.00  0.00    +0.000 C 
ATOM     14  C   UNL     1      -6.494   0.870 125.261  0.00  0.00    +0.000 C 
ENDROOT
TORSDOF 0
ENDMDL
MODEL 9
REMARK VINA RESULT:      -5.4      8.658     10.155
REMARK  Name = Cantharidin
REMARK  2 active torsions:
REMARK  status: ('A' for Active; 'I' for Inactive)
REMARK    1  A    between atoms: C_8  and  C_9
REMARK    2  A    between atoms: C_15  and  C_16
REMARK                            x       y       z     vdW  Elec       q    Type
REMARK                         _______ _______ _______ _____ _____    ______ ____
ROOT
ATOM      1  C   UNL     1      -8.822  -1.691 125.875  0.00  0.00    +0.000 C 
ATOM      2  C   UNL     1      -8.946  -3.212 125.821  0.00  0.00    +0.000 C 
ATOM      3  C   UNL     1      -8.972  -3.504 124.317  0.00  0.00    +0.000 C 
ATOM      4  C   UNL     1      -8.715  -2.113 123.726  0.00  0.00    +0.000 C 
ATOM      5  O   UNL     1      -9.542  -1.343 124.636  0.00  0.00    +0.000 OA
ATOM      6  C   UNL     1      -7.341  -1.497 124.044  0.00  0.00    +0.000 C 
ATOM      7  C   UNL     1      -6.973  -0.263 123.216  0.00  0.00    +0.000 C 
ATOM      8  C   UNL     1      -6.237  -2.524 124.176  0.00  0.00    +0.000 C 
ATOM      9  O   UNL     1      -6.251  -3.733 124.029  0.00  0.00    +0.000 OA
ATOM     10  O   UNL     1      -5.314  -1.948 124.960  0.00  0.00    +0.000 OA
ATOM     11  C   UNL     1      -6.049  -1.539 126.024  0.00  0.00    +0.000 C 
ATOM     12  O   UNL     1      -5.558  -1.419 127.140  0.00  0.00    +0.000 OA
ATOM     13  C   UNL     1      -7.439  -1.094 125.545  0.00  0.00    +0.000 C 
ATOM     14  C   UNL     1      -7.472   0.405 125.903  0.00  0.00    +0.000 C 
ENDROOT
TORSDOF 0
ENDMDL
