MODEL 1
REMARK VINA RESULT:      -6.9      0.000      0.000
REMARK  Name = Capecitabine
REMARK  10 active torsions:
REMARK  status: ('A' for Active; 'I' for Inactive)
REMARK    1  A    between atoms: C_1  and  C_2
REMARK    2  A    between atoms: C_2  and  C_3
REMARK    3  A    between atoms: C_3  and  C_4
REMARK    4  A    between atoms: C_4  and  C_5
REMARK    5  A    between atoms: C_5  and  O_6
REMARK    6  A    between atoms: O_6  and  C_7
REMARK    7  A    between atoms: N_14  and  C_18
REMARK    8  A    between atoms: C_20  and  C_21
REMARK    9  A    between atoms: C_22  and  O_23
REMARK   10  A    between atoms: C_24  and  O_25
REMARK                            x       y       z     vdW  Elec       q    Type
REMARK                         _______ _______ _______ _____ _____    ______ ____
ROOT
ATOM      1  C   UNL     1      -5.659   4.324 125.881  0.00  0.00    +0.000 C 
ATOM      2  O   UNL     1      -4.958   3.769 125.043  0.00  0.00    +0.000 OA
ATOM      3  N   UNL     1      -6.878   3.824 126.334  0.00  0.00    +0.000 N 
ATOM      4  C   UNL     1      -7.426   2.591 125.983  0.00  0.00    +0.000 A 
ATOM      5  N   UNL     1      -8.707   2.470 125.809  0.00  0.00    +0.000 NA
ATOM      6  C   UNL     1      -9.221   1.238 125.393  0.00  0.00    +0.000 A 
ATOM      7  O   UNL     1     -10.415   1.127 125.092  0.00  0.00    +0.000 OA
ATOM      8  N   UNL     1      -8.365   0.123 125.319  0.00  0.00    +0.000 N 
ATOM      9  C   UNL     1      -7.020   0.266 125.592  0.00  0.00    +0.000 A 
ATOM     10  C   UNL     1      -6.498   1.450 125.886  0.00  0.00    +0.000 A 
ATOM     11  F   UNL     1      -5.220   1.591 126.273  0.00  0.00    +0.000 F 
ATOM     12  H   UNL     1      -7.501   4.500 126.752  0.00  0.00    +0.000 HD
ENDROOT
BRANCH   8  13
ATOM     13  C   UNL     1      -8.890  -1.191 124.898  0.00  0.00    +0.000 C 
ATOM     14  O   UNL     1      -8.090  -2.264 125.459  0.00  0.00    +0.000 OA
ATOM     15  C   UNL     1      -8.082  -3.381 124.531  0.00  0.00    +0.000 C 
ATOM     16  C   UNL     1      -6.639  -3.726 124.173  0.00  0.00    +0.000 C 
ATOM     17  C   UNL     1      -8.902  -2.960 123.306  0.00  0.00    +0.000 C 
ATOM     18  C   UNL     1      -8.860  -1.439 123.379  0.00  0.00    +0.000 C 
BRANCH  17  19
ATOM     19  O   UNL     1     -10.255  -3.429 123.393  0.00  0.00    +0.000 OA
ATOM     20  H   UNL     1     -10.849  -2.806 122.939  0.00  0.00    +0.000 HD
ENDBRANCH  17  19
BRANCH  18  21
ATOM     21  O   UNL     1      -9.910  -0.807 122.662  0.00  0.00    +0.000 OA
ATOM     22  H   UNL     1      -9.939  -1.198 121.769  0.00  0.00    +0.000 HD
ENDBRANCH  18  21
ENDBRANCH   8  13
BRANCH   1  23
ATOM     23  O   UNL     1      -5.341   5.557 126.408  0.00  0.00    +0.000 OA
BRANCH  23  24
ATOM     24  C   UNL     1      -4.739   5.482 127.733  0.00  0.00    +0.000 C 
BRANCH  24  25
ATOM     25  C   UNL     1      -3.204   5.562 127.679  0.00  0.00    +0.000 C 
BRANCH  25  26
ATOM     26  C   UNL     1      -2.527   4.389 128.411  0.00  0.00    +0.000 C 
BRANCH  26  28
ATOM     27  C   UNL     1      -1.639   3.063 126.452  0.00  0.00    +0.000 C 
ATOM     28  C   UNL     1      -2.623   3.084 127.613  0.00  0.00    +0.000 C 
ENDBRANCH  26  28
ENDBRANCH  25  26
ENDBRANCH  24  25
ENDBRANCH  23  24
ENDBRANCH   1  23
TORSDOF 8
ENDMDL
MODEL 2
REMARK VINA RESULT:      -6.8      1.631      7.464
REMARK  Name = Capecitabine
REMARK  10 active torsions:
REMARK  status: ('A' for Active; 'I' for Inactive)
REMARK    1  A    between atoms: C_1  and  C_2
REMARK    2  A    between atoms: C_2  and  C_3
REMARK    3  A    between atoms: C_3  and  C_4
REMARK    4  A    between atoms: C_4  and  C_5
REMARK    5  A    between atoms: C_5  and  O_6
REMARK    6  A    between atoms: O_6  and  C_7
REMARK    7  A    between atoms: N_14  and  C_18
REMARK    8  A    between atoms: C_20  and  C_21
REMARK    9  A    between atoms: C_22  and  O_23
REMARK   10  A    between atoms: C_24  and  O_25
REMARK                            x       y       z     vdW  Elec       q    Type
REMARK                         _______ _______ _______ _____ _____    ______ ____
ROOT
ATOM      1  C   UNL     1      -9.330  -0.216 123.725  0.00  0.00    +0.000 C 
ATOM      2  O   UNL     1      -9.776   0.053 124.835  0.00  0.00    +0.000 OA
ATOM      3  N   UNL     1      -8.241   0.429 123.144  0.00  0.00    +0.000 N 
ATOM      4  C   UNL     1      -7.445   1.391 123.765  0.00  0.00    +0.000 A 
ATOM      5  N   UNL     1      -6.987   2.398 123.087  0.00  0.00    +0.000 NA
ATOM      6  C   UNL     1      -6.248   3.382 123.751  0.00  0.00    +0.000 A 
ATOM      7  O   UNL     1      -5.913   4.416 123.163  0.00  0.00    +0.000 OA
ATOM      8  N   UNL     1      -5.889   3.184 125.098  0.00  0.00    +0.000 N 
ATOM      9  C   UNL     1      -6.322   2.059 125.768  0.00  0.00    +0.000 A 
ATOM     10  C   UNL     1      -7.112   1.167 125.183  0.00  0.00    +0.000 A 
ATOM     11  F   UNL     1      -7.444   0.010 125.776  0.00  0.00    +0.000 F 
ATOM     12  H   UNL     1      -8.177   0.361 122.138  0.00  0.00    +0.000 HD
ENDROOT
BRANCH   8  13
ATOM     13  C   UNL     1      -5.094   4.202 125.812  0.00  0.00    +0.000 C 
ATOM     14  O   UNL     1      -3.674   3.955 125.638  0.00  0.00    +0.000 OA
ATOM     15  C   UNL     1      -2.970   4.388 126.833  0.00  0.00    +0.000 C 
ATOM     16  C   UNL     1      -2.171   3.216 127.396  0.00  0.00    +0.000 C 
ATOM     17  C   UNL     1      -4.025   4.904 127.819  0.00  0.00    +0.000 C 
ATOM     18  C   UNL     1      -5.299   4.222 127.338  0.00  0.00    +0.000 C 
BRANCH  17  19
ATOM     19  O   UNL     1      -4.160   6.331 127.745  0.00  0.00    +0.000 OA
ATOM     20  H   UNL     1      -3.950   6.727 128.608  0.00  0.00    +0.000 HD
ENDBRANCH  17  19
BRANCH  18  21
ATOM     21  O   UNL     1      -6.486   4.875 127.760  0.00  0.00    +0.000 OA
ATOM     22  H   UNL     1      -6.743   4.500 128.623  0.00  0.00    +0.000 HD
ENDBRANCH  18  21
ENDBRANCH   8  13
BRANCH   1  23
ATOM     23  O   UNL     1      -9.924  -1.146 122.899  0.00  0.00    +0.000 OA
BRANCH  23  24
ATOM     24  C   UNL     1      -9.145  -2.370 122.752  0.00  0.00    +0.000 C 
BRANCH  24  25
ATOM     25  C   UNL     1      -9.262  -3.283 123.983  0.00  0.00    +0.000 C 
BRANCH  25  26
ATOM     26  C   UNL     1      -7.889  -3.642 124.582  0.00  0.00    +0.000 C 
BRANCH  26  28
ATOM     27  C   UNL     1      -5.599  -2.612 124.869  0.00  0.00    +0.000 C 
ATOM     28  C   UNL     1      -6.750  -2.870 123.906  0.00  0.00    +0.000 C 
ENDBRANCH  26  28
ENDBRANCH  25  26
ENDBRANCH  24  25
ENDBRANCH  23  24
ENDBRANCH   1  23
TORSDOF 8
ENDMDL
MODEL 3
REMARK VINA RESULT:      -6.7      5.742      8.413
REMARK  Name = Capecitabine
REMARK  10 active torsions:
REMARK  status: ('A' for Active; 'I' for Inactive)
REMARK    1  A    between atoms: C_1  and  C_2
REMARK    2  A    between atoms: C_2  and  C_3
REMARK    3  A    between atoms: C_3  and  C_4
REMARK    4  A    between atoms: C_4  and  C_5
REMARK    5  A    between atoms: C_5  and  O_6
REMARK    6  A    between atoms: O_6  and  C_7
REMARK    7  A    between atoms: N_14  and  C_18
REMARK    8  A    between atoms: C_20  and  C_21
REMARK    9  A    between atoms: C_22  and  O_23
REMARK   10  A    between atoms: C_24  and  O_25
REMARK                            x       y       z     vdW  Elec       q    Type
REMARK                         _______ _______ _______ _____ _____    ______ ____
ROOT
ATOM      1  C   UNL     1     -11.329   6.289 131.548  0.00  0.00    +0.000 C 
ATOM      2  O   UNL     1     -10.487   6.635 132.369  0.00  0.00    +0.000 OA
ATOM      3  N   UNL     1     -11.042   5.566 130.392  0.00  0.00    +0.000 N 
ATOM      4  C   UNL     1      -9.793   5.047 130.053  0.00  0.00    +0.000 A 
ATOM      5  N   UNL     1      -9.400   5.045 128.816  0.00  0.00    +0.000 NA
ATOM      6  C   UNL     1      -8.116   4.579 128.514  0.00  0.00    +0.000 A 
ATOM      7  O   UNL     1      -7.665   4.688 127.368  0.00  0.00    +0.000 OA
ATOM      8  N   UNL     1      -7.340   3.987 129.528  0.00  0.00    +0.000 N 
ATOM      9  C   UNL     1      -7.822   3.928 130.819  0.00  0.00    +0.000 A 
ATOM     10  C   UNL     1      -8.995   4.459 131.144  0.00  0.00    +0.000 A 
ATOM     11  F   UNL     1      -9.535   4.307 132.363  0.00  0.00    +0.000 F 
ATOM     12  H   UNL     1     -11.729   5.627 129.655  0.00  0.00    +0.000 HD
ENDROOT
BRANCH   8  13
ATOM     13  C   UNL     1      -5.990   3.474 129.227  0.00  0.00    +0.000 C 
ATOM     14  O   UNL     1      -5.611   2.445 130.178  0.00  0.00    +0.000 OA
ATOM     15  C   UNL     1      -4.174   2.497 130.381  0.00  0.00    +0.000 C 
ATOM     16  C   UNL     1      -3.883   2.690 131.867  0.00  0.00    +0.000 C 
ATOM     17  C   UNL     1      -3.635   3.651 129.527  0.00  0.00    +0.000 C 
ATOM     18  C   UNL     1      -4.867   4.524 129.324  0.00  0.00    +0.000 C 
BRANCH  17  19
ATOM     19  O   UNL     1      -3.139   3.183 128.264  0.00  0.00    +0.000 OA
ATOM     20  H   UNL     1      -2.168   3.240 128.251  0.00  0.00    +0.000 HD
ENDBRANCH  17  19
BRANCH  18  21
ATOM     21  O   UNL     1      -4.774   5.385 128.200  0.00  0.00    +0.000 OA
ATOM     22  H   UNL     1      -3.830   5.581 128.052  0.00  0.00    +0.000 HD
ENDBRANCH  18  21
ENDBRANCH   8  13
BRANCH   1  23
ATOM     23  O   UNL     1     -12.653   6.659 131.650  0.00  0.00    +0.000 OA
BRANCH  23  24
ATOM     24  C   UNL     1     -13.195   7.213 130.415  0.00  0.00    +0.000 C 
BRANCH  24  25
ATOM     25  C   UNL     1     -12.711   8.650 130.162  0.00  0.00    +0.000 C 
BRANCH  25  26
ATOM     26  C   UNL     1     -12.412   8.917 128.675  0.00  0.00    +0.000 C 
BRANCH  26  28
ATOM     27  C   UNL     1     -10.973   7.750 126.957  0.00  0.00    +0.000 C 
ATOM     28  C   UNL     1     -10.993   8.485 128.289  0.00  0.00    +0.000 C 
ENDBRANCH  26  28
ENDBRANCH  25  26
ENDBRANCH  24  25
ENDBRANCH  23  24
ENDBRANCH   1  23
TORSDOF 8
ENDMDL
MODEL 4
REMARK VINA RESULT:      -6.7      8.053     10.268
REMARK  Name = Capecitabine
REMARK  10 active torsions:
REMARK  status: ('A' for Active; 'I' for Inactive)
REMARK    1  A    between atoms: C_1  and  C_2
REMARK    2  A    between atoms: C_2  and  C_3
REMARK    3  A    between atoms: C_3  and  C_4
REMARK    4  A    between atoms: C_4  and  C_5
REMARK    5  A    between atoms: C_5  and  O_6
REMARK    6  A    between atoms: O_6  and  C_7
REMARK    7  A    between atoms: N_14  and  C_18
REMARK    8  A    between atoms: C_20  and  C_21
REMARK    9  A    between atoms: C_22  and  O_23
REMARK   10  A    between atoms: C_24  and  O_25
REMARK                            x       y       z     vdW  Elec       q    Type
REMARK                         _______ _______ _______ _____ _____    ______ ____
ROOT
ATOM      1  C   UNL     1     -11.051   6.145 131.179  0.00  0.00    +0.000 C 
ATOM      2  O   UNL     1     -10.643   5.846 130.062  0.00  0.00    +0.000 OA
ATOM      3  N   UNL     1     -10.233   6.284 132.298  0.00  0.00    +0.000 N 
ATOM      4  C   UNL     1      -8.840   6.206 132.296  0.00  0.00    +0.000 A 
ATOM      5  N   UNL     1      -8.215   5.648 133.287  0.00  0.00    +0.000 NA
ATOM      6  C   UNL     1      -6.824   5.524 133.228  0.00  0.00    +0.000 A 
ATOM      7  O   UNL     1      -6.215   4.882 134.091  0.00  0.00    +0.000 OA
ATOM      8  N   UNL     1      -6.121   6.137 132.173  0.00  0.00    +0.000 N 
ATOM      9  C   UNL     1      -6.811   6.796 131.176  0.00  0.00    +0.000 A 
ATOM     10  C   UNL     1      -8.138   6.833 131.162  0.00  0.00    +0.000 A 
ATOM     11  F   UNL     1      -8.822   7.569 130.273  0.00  0.00    +0.000 F 
ATOM     12  H   UNL     1     -10.695   6.203 133.192  0.00  0.00    +0.000 HD
ENDROOT
BRANCH   8  13
ATOM     13  C   UNL     1      -4.651   6.033 132.099  0.00  0.00    +0.000 C 
ATOM     14  O   UNL     1      -4.096   7.153 131.363  0.00  0.00    +0.000 OA
ATOM     15  C   UNL     1      -2.901   6.713 130.664  0.00  0.00    +0.000 C 
ATOM     16  C   UNL     1      -3.061   6.994 129.172  0.00  0.00    +0.000 C 
ATOM     17  C   UNL     1      -2.726   5.219 130.961  0.00  0.00    +0.000 C 
ATOM     18  C   UNL     1      -4.131   4.787 131.359  0.00  0.00    +0.000 C 
BRANCH  17  19
ATOM     19  O   UNL     1      -1.809   5.004 132.044  0.00  0.00    +0.000 OA
ATOM     20  H   UNL     1      -0.897   5.148 131.737  0.00  0.00    +0.000 HD
ENDBRANCH  17  19
BRANCH  18  21
ATOM     21  O   UNL     1      -4.162   3.594 132.127  0.00  0.00    +0.000 OA
ATOM     22  H   UNL     1      -4.615   2.910 131.600  0.00  0.00    +0.000 HD
ENDBRANCH  18  21
ENDBRANCH   8  13
BRANCH   1  23
ATOM     23  O   UNL     1     -12.392   6.297 131.457  0.00  0.00    +0.000 OA
BRANCH  23  24
ATOM     24  C   UNL     1     -13.104   7.084 130.457  0.00  0.00    +0.000 C 
BRANCH  24  25
ATOM     25  C   UNL     1     -12.760   8.580 130.545  0.00  0.00    +0.000 C 
BRANCH  25  26
ATOM     26  C   UNL     1     -12.680   9.249 129.160  0.00  0.00    +0.000 C 
BRANCH  26  28
ATOM     27  C   UNL     1     -10.837   8.361 127.678  0.00  0.00    +0.000 C 
ATOM     28  C   UNL     1     -12.305   8.248 128.062  0.00  0.00    +0.000 C 
ENDBRANCH  26  28
ENDBRANCH  25  26
ENDBRANCH  24  25
ENDBRANCH  23  24
ENDBRANCH   1  23
TORSDOF 8
ENDMDL
MODEL 5
REMARK VINA RESULT:      -6.6      4.843      6.913
REMARK  Name = Capecitabine
REMARK  10 active torsions:
REMARK  status: ('A' for Active; 'I' for Inactive)
REMARK    1  A    between atoms: C_1  and  C_2
REMARK    2  A    between atoms: C_2  and  C_3
REMARK    3  A    between atoms: C_3  and  C_4
REMARK    4  A    between atoms: C_4  and  C_5
REMARK    5  A    between atoms: C_5  and  O_6
REMARK    6  A    between atoms: O_6  and  C_7
REMARK    7  A    between atoms: N_14  and  C_18
REMARK    8  A    between atoms: C_20  and  C_21
REMARK    9  A    between atoms: C_22  and  O_23
REMARK   10  A    between atoms: C_24  and  O_25
REMARK                            x       y       z     vdW  Elec       q    Type
REMARK                         _______ _______ _______ _____ _____    ______ ____
ROOT
ATOM      1  C   UNL     1      -8.324   3.033 124.203  0.00  0.00    +0.000 C 
ATOM      2  O   UNL     1      -9.077   2.098 124.450  0.00  0.00    +0.000 OA
ATOM      3  N   UNL     1      -7.801   3.891 125.168  0.00  0.00    +0.000 N 
ATOM      4  C   UNL     1      -7.971   3.757 126.546  0.00  0.00    +0.000 A 
ATOM      5  N   UNL     1      -8.122   4.810 127.291  0.00  0.00    +0.000 NA
ATOM      6  C   UNL     1      -8.357   4.643 128.659  0.00  0.00    +0.000 A 
ATOM      7  O   UNL     1      -8.636   5.616 129.369  0.00  0.00    +0.000 OA
ATOM      8  N   UNL     1      -8.275   3.355 129.221  0.00  0.00    +0.000 N 
ATOM      9  C   UNL     1      -8.030   2.264 128.413  0.00  0.00    +0.000 A 
ATOM     10  C   UNL     1      -7.908   2.393 127.097  0.00  0.00    +0.000 A 
ATOM     11  F   UNL     1      -7.550   1.367 126.310  0.00  0.00    +0.000 F 
ATOM     12  H   UNL     1      -7.481   4.787 124.830  0.00  0.00    +0.000 HD
ENDROOT
BRANCH   8  13
ATOM     13  C   UNL     1      -8.503   3.159 130.666  0.00  0.00    +0.000 C 
ATOM     14  O   UNL     1      -7.763   2.007 131.148  0.00  0.00    +0.000 OA
ATOM     15  C   UNL     1      -8.508   1.386 132.229  0.00  0.00    +0.000 C 
ATOM     16  C   UNL     1      -8.768  -0.078 131.882  0.00  0.00    +0.000 C 
ATOM     17  C   UNL     1      -9.805   2.184 132.404  0.00  0.00    +0.000 C 
ATOM     18  C   UNL     1      -9.965   2.868 131.052  0.00  0.00    +0.000 C 
BRANCH  17  19
ATOM     19  O   UNL     1      -9.684   3.160 133.449  0.00  0.00    +0.000 OA
ATOM     20  H   UNL     1      -8.994   3.805 133.218  0.00  0.00    +0.000 HD
ENDBRANCH  17  19
BRANCH  18  21
ATOM     21  O   UNL     1     -10.799   4.016 131.093  0.00  0.00    +0.000 OA
ATOM     22  H   UNL     1     -11.676   3.737 131.417  0.00  0.00    +0.000 HD
ENDBRANCH  18  21
ENDBRANCH   8  13
BRANCH   1  23
ATOM     23  O   UNL     1      -7.979   3.379 122.915  0.00  0.00    +0.000 OA
BRANCH  23  24
ATOM     24  C   UNL     1      -6.705   2.814 122.485  0.00  0.00    +0.000 C 
BRANCH  24  25
ATOM     25  C   UNL     1      -5.787   3.870 121.849  0.00  0.00    +0.000 C 
BRANCH  25  26
ATOM     26  C   UNL     1      -6.085   4.084 120.353  0.00  0.00    +0.000 C 
BRANCH  26  28
ATOM     27  C   UNL     1      -5.944   5.771 118.477  0.00  0.00    +0.000 C 
ATOM     28  C   UNL     1      -5.332   5.293 119.786  0.00  0.00    +0.000 C 
ENDBRANCH  26  28
ENDBRANCH  25  26
ENDBRANCH  24  25
ENDBRANCH  23  24
ENDBRANCH   1  23
TORSDOF 8
ENDMDL
MODEL 6
REMARK VINA RESULT:      -6.5      1.179      1.671
REMARK  Name = Capecitabine
REMARK  10 active torsions:
REMARK  status: ('A' for Active; 'I' for Inactive)
REMARK    1  A    between atoms: C_1  and  C_2
REMARK    2  A    between atoms: C_2  and  C_3
REMARK    3  A    between atoms: C_3  and  C_4
REMARK    4  A    between atoms: C_4  and  C_5
REMARK    5  A    between atoms: C_5  and  O_6
REMARK    6  A    between atoms: O_6  and  C_7
REMARK    7  A    between atoms: N_14  and  C_18
REMARK    8  A    between atoms: C_20  and  C_21
REMARK    9  A    between atoms: C_22  and  O_23
REMARK   10  A    between atoms: C_24  and  O_25
REMARK                            x       y       z     vdW  Elec       q    Type
REMARK                         _______ _______ _______ _____ _____    ______ ____
ROOT
ATOM      1  C   UNL     1      -5.382   4.242 126.217  0.00  0.00    +0.000 C 
ATOM      2  O   UNL     1      -4.757   3.768 125.275  0.00  0.00    +0.000 OA
ATOM      3  N   UNL     1      -6.550   3.690 126.737  0.00  0.00    +0.000 N 
ATOM      4  C   UNL     1      -7.119   2.481 126.338  0.00  0.00    +0.000 A 
ATOM      5  N   UNL     1      -8.410   2.356 126.274  0.00  0.00    +0.000 NA
ATOM      6  C   UNL     1      -8.952   1.154 125.807  0.00  0.00    +0.000 A 
ATOM      7  O   UNL     1     -10.168   1.051 125.609  0.00  0.00    +0.000 OA
ATOM      8  N   UNL     1      -8.099   0.061 125.563  0.00  0.00    +0.000 N 
ATOM      9  C   UNL     1      -6.735   0.202 125.722  0.00  0.00    +0.000 A 
ATOM     10  C   UNL     1      -6.196   1.366 126.063  0.00  0.00    +0.000 A 
ATOM     11  F   UNL     1      -4.889   1.493 126.340  0.00  0.00    +0.000 F 
ATOM     12  H   UNL     1      -7.135   4.320 127.266  0.00  0.00    +0.000 HD
ENDROOT
BRANCH   8  13
ATOM     13  C   UNL     1      -8.651  -1.221 125.086  0.00  0.00    +0.000 C 
ATOM     14  O   UNL     1      -7.828  -2.329 125.533  0.00  0.00    +0.000 OA
ATOM     15  C   UNL     1      -7.874  -3.384 124.535  0.00  0.00    +0.000 C 
ATOM     16  C   UNL     1      -6.453  -3.707 124.081  0.00  0.00    +0.000 C 
ATOM     17  C   UNL     1      -8.755  -2.882 123.384  0.00  0.00    +0.000 C 
ATOM     18  C   UNL     1      -8.702  -1.369 123.554  0.00  0.00    +0.000 C 
BRANCH  17  19
ATOM     19  O   UNL     1     -10.104  -3.354 123.512  0.00  0.00    +0.000 OA
ATOM     20  H   UNL     1     -10.104  -4.316 123.658  0.00  0.00    +0.000 HD
ENDBRANCH  17  19
BRANCH  18  21
ATOM     21  O   UNL     1      -9.784  -0.691 122.936  0.00  0.00    +0.000 OA
ATOM     22  H   UNL     1     -10.575  -1.257 123.015  0.00  0.00    +0.000 HD
ENDBRANCH  18  21
ENDBRANCH   8  13
BRANCH   1  23
ATOM     23  O   UNL     1      -5.025   5.433 126.812  0.00  0.00    +0.000 OA
BRANCH  23  24
ATOM     24  C   UNL     1      -3.708   5.395 127.438  0.00  0.00    +0.000 C 
BRANCH  24  25
ATOM     25  C   UNL     1      -3.460   6.614 128.341  0.00  0.00    +0.000 C 
BRANCH  25  26
ATOM     26  C   UNL     1      -2.173   6.476 129.175  0.00  0.00    +0.000 C 
BRANCH  26  28
ATOM     27  C   UNL     1      -1.168   6.496 131.494  0.00  0.00    +0.000 C 
ATOM     28  C   UNL     1      -2.453   6.566 130.680  0.00  0.00    +0.000 C 
ENDBRANCH  26  28
ENDBRANCH  25  26
ENDBRANCH  24  25
ENDBRANCH  23  24
ENDBRANCH   1  23
TORSDOF 8
ENDMDL
MODEL 7
REMARK VINA RESULT:      -6.4      3.848      7.495
REMARK  Name = Capecitabine
REMARK  10 active torsions:
REMARK  status: ('A' for Active; 'I' for Inactive)
REMARK    1  A    between atoms: C_1  and  C_2
REMARK    2  A    between atoms: C_2  and  C_3
REMARK    3  A    between atoms: C_3  and  C_4
REMARK    4  A    between atoms: C_4  and  C_5
REMARK    5  A    between atoms: C_5  and  O_6
REMARK    6  A    between atoms: O_6  and  C_7
REMARK    7  A    between atoms: N_14  and  C_18
REMARK    8  A    between atoms: C_20  and  C_21
REMARK    9  A    between atoms: C_22  and  O_23
REMARK   10  A    between atoms: C_24  and  O_25
REMARK                            x       y       z     vdW  Elec       q    Type
REMARK                         _______ _______ _______ _____ _____    ______ ____
ROOT
ATOM      1  C   UNL     1      -8.867  -0.072 124.851  0.00  0.00    +0.000 C 
ATOM      2  O   UNL     1      -9.728  -0.508 125.607  0.00  0.00    +0.000 OA
ATOM      3  N   UNL     1      -8.137   1.092 125.087  0.00  0.00    +0.000 N 
ATOM      4  C   UNL     1      -8.203   1.866 126.245  0.00  0.00    +0.000 A 
ATOM      5  N   UNL     1      -8.127   3.160 126.171  0.00  0.00    +0.000 NA
ATOM      6  C   UNL     1      -8.262   3.914 127.341  0.00  0.00    +0.000 A 
ATOM      7  O   UNL     1      -8.327   5.147 127.286  0.00  0.00    +0.000 OA
ATOM      8  N   UNL     1      -8.326   3.255 128.583  0.00  0.00    +0.000 N 
ATOM      9  C   UNL     1      -8.320   1.876 128.633  0.00  0.00    +0.000 A 
ATOM     10  C   UNL     1      -8.298   1.144 127.526  0.00  0.00    +0.000 A 
ATOM     11  F   UNL     1      -8.169  -0.191 127.555  0.00  0.00    +0.000 F 
ATOM     12  H   UNL     1      -7.716   1.517 124.273  0.00  0.00    +0.000 HD
ENDROOT
BRANCH   8  13
ATOM     13  C   UNL     1      -8.452   4.032 129.831  0.00  0.00    +0.000 C 
ATOM     14  O   UNL     1      -7.935   3.277 130.957  0.00  0.00    +0.000 OA
ATOM     15  C   UNL     1      -8.689   3.628 132.148  0.00  0.00    +0.000 C 
ATOM     16  C   UNL     1      -9.292   2.362 132.752  0.00  0.00    +0.000 C 
ATOM     17  C   UNL     1      -9.762   4.639 131.724  0.00  0.00    +0.000 C 
ATOM     18  C   UNL     1      -9.899   4.379 130.229  0.00  0.00    +0.000 C 
BRANCH  17  19
ATOM     19  O   UNL     1      -9.334   5.989 131.961  0.00  0.00    +0.000 OA
ATOM     20  H   UNL     1      -9.387   6.188 132.911  0.00  0.00    +0.000 HD
ENDBRANCH  17  19
BRANCH  18  21
ATOM     21  O   UNL     1     -10.457   5.469 129.512  0.00  0.00    +0.000 OA
ATOM     22  H   UNL     1      -9.738   6.097 129.315  0.00  0.00    +0.000 HD
ENDBRANCH  18  21
ENDBRANCH   8  13
BRANCH   1  23
ATOM     23  O   UNL     1      -8.589  -0.658 123.635  0.00  0.00    +0.000 OA
BRANCH  23  24
ATOM     24  C   UNL     1      -7.171  -0.640 123.295  0.00  0.00    +0.000 C 
BRANCH  24  25
ATOM     25  C   UNL     1      -6.640  -2.040 122.946  0.00  0.00    +0.000 C 
BRANCH  25  26
ATOM     26  C   UNL     1      -5.356  -2.392 123.719  0.00  0.00    +0.000 C 
BRANCH  26  28
ATOM     27  C   UNL     1      -4.195  -4.621 123.453  0.00  0.00    +0.000 C 
ATOM     28  C   UNL     1      -5.325  -3.866 124.139  0.00  0.00    +0.000 C 
ENDBRANCH  26  28
ENDBRANCH  25  26
ENDBRANCH  24  25
ENDBRANCH  23  24
ENDBRANCH   1  23
TORSDOF 8
ENDMDL
MODEL 8
REMARK VINA RESULT:      -6.3      5.756      8.034
REMARK  Name = Capecitabine
REMARK  10 active torsions:
REMARK  status: ('A' for Active; 'I' for Inactive)
REMARK    1  A    between atoms: C_1  and  C_2
REMARK    2  A    between atoms: C_2  and  C_3
REMARK    3  A    between atoms: C_3  and  C_4
REMARK    4  A    between atoms: C_4  and  C_5
REMARK    5  A    between atoms: C_5  and  O_6
REMARK    6  A    between atoms: O_6  and  C_7
REMARK    7  A    between atoms: N_14  and  C_18
REMARK    8  A    between atoms: C_20  and  C_21
REMARK    9  A    between atoms: C_22  and  O_23
REMARK   10  A    between atoms: C_24  and  O_25
REMARK                            x       y       z     vdW  Elec       q    Type
REMARK                         _______ _______ _______ _____ _____    ______ ____
ROOT
ATOM      1  C   UNL     1     -11.251   6.271 131.675  0.00  0.00    +0.000 C 
ATOM      2  O   UNL     1     -10.446   6.507 132.569  0.00  0.00    +0.000 OA
ATOM      3  N   UNL     1     -10.937   5.587 130.502  0.00  0.00    +0.000 N 
ATOM      4  C   UNL     1      -9.709   4.990 130.219  0.00  0.00    +0.000 A 
ATOM      5  N   UNL     1      -9.230   5.020 129.013  0.00  0.00    +0.000 NA
ATOM      6  C   UNL     1      -7.967   4.472 128.771  0.00  0.00    +0.000 A 
ATOM      7  O   UNL     1      -7.429   4.603 127.666  0.00  0.00    +0.000 OA
ATOM      8  N   UNL     1      -7.312   3.769 129.800  0.00  0.00    +0.000 N 
ATOM      9  C   UNL     1      -7.888   3.683 131.051  0.00  0.00    +0.000 A 
ATOM     10  C   UNL     1      -9.037   4.287 131.326  0.00  0.00    +0.000 A 
ATOM     11  F   UNL     1      -9.672   4.115 132.495  0.00  0.00    +0.000 F 
ATOM     12  H   UNL     1     -11.563   5.740 129.725  0.00  0.00    +0.000 HD
ENDROOT
BRANCH   8  13
ATOM     13  C   UNL     1      -5.985   3.168 129.562  0.00  0.00    +0.000 C 
ATOM     14  O   UNL     1      -5.011   4.193 129.236  0.00  0.00    +0.000 OA
ATOM     15  C   UNL     1      -4.030   3.638 128.321  0.00  0.00    +0.000 C 
ATOM     16  C   UNL     1      -3.988   4.489 127.054  0.00  0.00    +0.000 C 
ATOM     17  C   UNL     1      -4.443   2.189 128.036  0.00  0.00    +0.000 C 
ATOM     18  C   UNL     1      -5.928   2.189 128.375  0.00  0.00    +0.000 C 
BRANCH  17  19
ATOM     19  O   UNL     1      -3.736   1.267 128.879  0.00  0.00    +0.000 OA
ATOM     20  H   UNL     1      -3.435   1.722 129.685  0.00  0.00    +0.000 HD
ENDBRANCH  17  19
BRANCH  18  21
ATOM     21  O   UNL     1      -6.446   0.897 128.656  0.00  0.00    +0.000 OA
ATOM     22  H   UNL     1      -6.333   0.349 127.857  0.00  0.00    +0.000 HD
ENDBRANCH  18  21
ENDBRANCH   8  13
BRANCH   1  23
ATOM     23  O   UNL     1     -12.547   6.738 131.709  0.00  0.00    +0.000 OA
BRANCH  23  24
ATOM     24  C   UNL     1     -13.040   7.170 130.407  0.00  0.00    +0.000 C 
BRANCH  24  25
ATOM     25  C   UNL     1     -12.702   8.642 130.117  0.00  0.00    +0.000 C 
BRANCH  25  26
ATOM     26  C   UNL     1     -12.406   8.895 128.627  0.00  0.00    +0.000 C 
BRANCH  26  28
ATOM     27  C   UNL     1     -10.955   7.779 126.886  0.00  0.00    +0.000 C 
ATOM     28  C   UNL     1     -10.986   8.465 128.244  0.00  0.00    +0.000 C 
ENDBRANCH  26  28
ENDBRANCH  25  26
ENDBRANCH  24  25
ENDBRANCH  23  24
ENDBRANCH   1  23
TORSDOF 8
ENDMDL
MODEL 9
REMARK VINA RESULT:      -6.3      6.122      9.120
REMARK  Name = Capecitabine
REMARK  10 active torsions:
REMARK  status: ('A' for Active; 'I' for Inactive)
REMARK    1  A    between atoms: C_1  and  C_2
REMARK    2  A    between atoms: C_2  and  C_3
REMARK    3  A    between atoms: C_3  and  C_4
REMARK    4  A    between atoms: C_4  and  C_5
REMARK    5  A    between atoms: C_5  and  O_6
REMARK    6  A    between atoms: O_6  and  C_7
REMARK    7  A    between atoms: N_14  and  C_18
REMARK    8  A    between atoms: C_20  and  C_21
REMARK    9  A    between atoms: C_22  and  O_23
REMARK   10  A    between atoms: C_24  and  O_25
REMARK                            x       y       z     vdW  Elec       q    Type
REMARK                         _______ _______ _______ _____ _____    ______ ____
ROOT
ATOM      1  C   UNL     1      -8.425   0.332 132.199  0.00  0.00    +0.000 C 
ATOM      2  O   UNL     1      -9.603   0.286 131.861  0.00  0.00    +0.000 OA
ATOM      3  N   UNL     1      -7.599   1.436 132.003  0.00  0.00    +0.000 N 
ATOM      4  C   UNL     1      -8.005   2.670 131.494  0.00  0.00    +0.000 A 
ATOM      5  N   UNL     1      -7.222   3.342 130.706  0.00  0.00    +0.000 NA
ATOM      6  C   UNL     1      -7.682   4.543 130.158  0.00  0.00    +0.000 A 
ATOM      7  O   UNL     1      -7.015   5.137 129.303  0.00  0.00    +0.000 OA
ATOM      8  N   UNL     1      -8.914   5.071 130.589  0.00  0.00    +0.000 N 
ATOM      9  C   UNL     1      -9.686   4.371 131.493  0.00  0.00    +0.000 A 
ATOM     10  C   UNL     1      -9.313   3.179 131.943  0.00  0.00    +0.000 A 
ATOM     11  F   UNL     1      -9.985   2.539 132.912  0.00  0.00    +0.000 F 
ATOM     12  H   UNL     1      -6.607   1.248 132.012  0.00  0.00    +0.000 HD
ENDROOT
BRANCH   8  13
ATOM     13  C   UNL     1      -9.410   6.347 130.036  0.00  0.00    +0.000 C 
ATOM     14  O   UNL     1     -10.378   6.950 130.934  0.00  0.00    +0.000 OA
ATOM     15  C   UNL     1     -11.356   7.683 130.150  0.00  0.00    +0.000 C 
ATOM     16  C   UNL     1     -12.753   7.159 130.473  0.00  0.00    +0.000 C 
ATOM     17  C   UNL     1     -10.989   7.493 128.673  0.00  0.00    +0.000 C 
ATOM     18  C   UNL     1     -10.155   6.219 128.694  0.00  0.00    +0.000 C 
BRANCH  17  19
ATOM     19  O   UNL     1     -10.211   8.594 128.180  0.00  0.00    +0.000 OA
ATOM     20  H   UNL     1     -10.594   8.921 127.348  0.00  0.00    +0.000 HD
ENDBRANCH  17  19
BRANCH  18  21
ATOM     21  O   UNL     1      -9.305   6.078 127.565  0.00  0.00    +0.000 OA
ATOM     22  H   UNL     1      -9.749   5.485 126.930  0.00  0.00    +0.000 HD
ENDBRANCH  18  21
ENDBRANCH   8  13
BRANCH   1  23
ATOM     23  O   UNL     1      -7.773  -0.753 132.743  0.00  0.00    +0.000 OA
BRANCH  23  24
ATOM     24  C   UNL     1      -6.751  -1.313 131.866  0.00  0.00    +0.000 C 
BRANCH  24  25
ATOM     25  C   UNL     1      -6.558  -2.821 132.089  0.00  0.00    +0.000 C 
BRANCH  25  26
ATOM     26  C   UNL     1      -6.920  -3.652 130.843  0.00  0.00    +0.000 C 
BRANCH  26  28
ATOM     27  C   UNL     1      -8.445  -3.359 128.851  0.00  0.00    +0.000 C 
ATOM     28  C   UNL     1      -7.296  -2.764 129.653  0.00  0.00    +0.000 C 
ENDBRANCH  26  28
ENDBRANCH  25  26
ENDBRANCH  24  25
ENDBRANCH  23  24
ENDBRANCH   1  23
TORSDOF 8
ENDMDL
