MODEL 1
REMARK VINA RESULT:     -10.3      0.000      0.000
REMARK  Name = Capmatinib
REMARK  5 active torsions:
REMARK  status: ('A' for Active; 'I' for Inactive)
REMARK    1  A    between atoms: C_1  and  N_2
REMARK    2  A    between atoms: C_3  and  C_5
REMARK    3  A    between atoms: C_9  and  C_12
REMARK    4  A    between atoms: C_15  and  C_16
REMARK    5  A    between atoms: C_16  and  C_17
REMARK                            x       y       z     vdW  Elec       q    Type
REMARK                         _______ _______ _______ _____ _____    ______ ____
ROOT
ATOM      1  C   UNL     1      -8.272  -1.838 125.850  0.00  0.00    +0.000 A 
ATOM      2  N   UNL     1      -8.400  -0.566 125.567  0.00  0.00    +0.000 NA
ATOM      3  N   UNL     1      -9.030  -0.288 124.358  0.00  0.00    +0.000 N 
ATOM      4  C   UNL     1      -9.303   0.942 123.781  0.00  0.00    +0.000 A 
ATOM      5  C   UNL     1      -9.940   0.649 122.598  0.00  0.00    +0.000 A 
ATOM      6  N   UNL     1     -10.078  -0.688 122.425  0.00  0.00    +0.000 NA
ATOM      7  C   UNL     1      -9.524  -1.257 123.487  0.00  0.00    +0.000 A 
ATOM      8  N   UNL     1      -9.388  -2.587 123.806  0.00  0.00    +0.000 NA
ATOM      9  C   UNL     1      -8.792  -2.881 124.920  0.00  0.00    +0.000 A 
ENDROOT
BRANCH   1  14
ATOM     10  C   UNL     1      -6.320  -3.226 129.446  0.00  0.00    +0.000 A 
ATOM     11  C   UNL     1      -5.644  -2.527 128.472  0.00  0.00    +0.000 A 
ATOM     12  F   UNL     1      -4.348  -2.269 128.633  0.00  0.00    +0.000 F 
ATOM     13  C   UNL     1      -6.281  -2.069 127.321  0.00  0.00    +0.000 A 
ATOM     14  C   UNL     1      -7.629  -2.306 127.110  0.00  0.00    +0.000 A 
ATOM     15  C   UNL     1      -8.331  -3.016 128.070  0.00  0.00    +0.000 A 
ATOM     16  C   UNL     1      -7.673  -3.488 129.215  0.00  0.00    +0.000 A 
BRANCH  10  19
ATOM     17  C   UNL     1      -4.644  -3.222 132.929  0.00  0.00    +0.000 C 
ATOM     18  N   UNL     1      -5.328  -2.793 131.710  0.00  0.00    +0.000 N 
ATOM     19  C   UNL     1      -5.609  -3.708 130.681  0.00  0.00    +0.000 C 
ATOM     20  O   UNL     1      -5.310  -4.897 130.761  0.00  0.00    +0.000 OA
ATOM     21  H   UNL     1      -5.578  -1.812 131.642  0.00  0.00    +0.000 HD
ENDBRANCH  10  19
ENDBRANCH   1  14
BRANCH   4  22
ATOM     22  C   UNL     1      -8.991   2.298 124.299  0.00  0.00    +0.000 C 
BRANCH  22  23
ATOM     23  C   UNL     1      -8.041   3.045 123.386  0.00  0.00    +0.000 A 
ATOM     24  C   UNL     1      -8.277   3.129 122.011  0.00  0.00    +0.000 A 
ATOM     25  C   UNL     1      -7.360   3.836 121.090  0.00  0.00    +0.000 A 
ATOM     26  C   UNL     1      -6.153   4.121 121.636  0.00  0.00    +0.000 A 
ATOM     27  C   UNL     1      -5.854   3.822 122.921  0.00  0.00    +0.000 A 
ATOM     28  C   UNL     1      -6.873   3.613 123.829  0.00  0.00    +0.000 A 
ATOM     29  N   UNL     1      -5.213   4.739 120.965  0.00  0.00    +0.000 NA
ATOM     30  C   UNL     1      -5.573   5.028 119.767  0.00  0.00    +0.000 A 
ATOM     31  C   UNL     1      -5.887   5.334 118.553  0.00  0.00    +0.000 A 
ATOM     32  C   UNL     1      -7.255   4.390 119.601  0.00  0.00    +0.000 A 
ENDBRANCH  22  23
ENDBRANCH   4  22
TORSDOF 4
ENDMDL
MODEL 2
REMARK VINA RESULT:      -9.9      3.339      7.552
REMARK  Name = Capmatinib
REMARK  5 active torsions:
REMARK  status: ('A' for Active; 'I' for Inactive)
REMARK    1  A    between atoms: C_1  and  N_2
REMARK    2  A    between atoms: C_3  and  C_5
REMARK    3  A    between atoms: C_9  and  C_12
REMARK    4  A    between atoms: C_15  and  C_16
REMARK    5  A    between atoms: C_16  and  C_17
REMARK                            x       y       z     vdW  Elec       q    Type
REMARK                         _______ _______ _______ _____ _____    ______ ____
ROOT
ATOM      1  C   UNL     1      -7.320   1.740 124.354  0.00  0.00    +0.000 A 
ATOM      2  N   UNL     1      -7.323   0.447 124.150  0.00  0.00    +0.000 NA
ATOM      3  N   UNL     1      -8.439  -0.046 123.478  0.00  0.00    +0.000 N 
ATOM      4  C   UNL     1      -8.736  -1.352 123.126  0.00  0.00    +0.000 A 
ATOM      5  C   UNL     1      -9.948  -1.281 122.480  0.00  0.00    +0.000 A 
ATOM      6  N   UNL     1     -10.402  -0.006 122.412  0.00  0.00    +0.000 NA
ATOM      7  C   UNL     1      -9.492   0.743 123.020  0.00  0.00    +0.000 A 
ATOM      8  N   UNL     1      -9.466   2.100 123.236  0.00  0.00    +0.000 NA
ATOM      9  C   UNL     1      -8.447   2.589 123.872  0.00  0.00    +0.000 A 
ENDROOT
BRANCH   1  14
ATOM     10  C   UNL     1      -4.108   3.711 126.466  0.00  0.00    +0.000 A 
ATOM     11  C   UNL     1      -4.642   2.519 126.898  0.00  0.00    +0.000 A 
ATOM     12  F   UNL     1      -4.164   1.950 128.003  0.00  0.00    +0.000 F 
ATOM     13  C   UNL     1      -5.669   1.880 126.206  0.00  0.00    +0.000 A 
ATOM     14  C   UNL     1      -6.197   2.427 125.050  0.00  0.00    +0.000 A 
ATOM     15  C   UNL     1      -5.683   3.632 124.597  0.00  0.00    +0.000 A 
ATOM     16  C   UNL     1      -4.664   4.275 125.315  0.00  0.00    +0.000 A 
BRANCH  10  19
ATOM     17  C   UNL     1      -2.195   6.292 128.615  0.00  0.00    +0.000 C 
ATOM     18  N   UNL     1      -3.244   5.614 127.856  0.00  0.00    +0.000 N 
ATOM     19  C   UNL     1      -2.998   4.380 127.232  0.00  0.00    +0.000 C 
ATOM     20  O   UNL     1      -1.911   3.813 127.303  0.00  0.00    +0.000 OA
ATOM     21  H   UNL     1      -4.145   6.078 127.797  0.00  0.00    +0.000 HD
ENDBRANCH  10  19
ENDBRANCH   1  14
BRANCH   4  22
ATOM     22  C   UNL     1      -7.943  -2.582 123.374  0.00  0.00    +0.000 C 
BRANCH  22  23
ATOM     23  C   UNL     1      -7.439  -2.649 124.801  0.00  0.00    +0.000 A 
ATOM     24  C   UNL     1      -8.324  -2.781 125.874  0.00  0.00    +0.000 A 
ATOM     25  C   UNL     1      -7.866  -2.832 127.280  0.00  0.00    +0.000 A 
ATOM     26  C   UNL     1      -6.579  -2.443 127.447  0.00  0.00    +0.000 A 
ATOM     27  C   UNL     1      -5.789  -2.093 126.405  0.00  0.00    +0.000 A 
ATOM     28  C   UNL     1      -6.114  -2.514 125.131  0.00  0.00    +0.000 A 
ATOM     29  N   UNL     1      -6.005  -2.418 128.624  0.00  0.00    +0.000 NA
ATOM     30  C   UNL     1      -6.794  -2.799 129.563  0.00  0.00    +0.000 A 
ATOM     31  C   UNL     1      -7.552  -3.166 130.541  0.00  0.00    +0.000 A 
ATOM     32  C   UNL     1      -8.366  -3.167 128.753  0.00  0.00    +0.000 A 
ENDBRANCH  22  23
ENDBRANCH   4  22
TORSDOF 4
ENDMDL
MODEL 3
REMARK VINA RESULT:      -9.6      6.693      8.979
REMARK  Name = Capmatinib
REMARK  5 active torsions:
REMARK  status: ('A' for Active; 'I' for Inactive)
REMARK    1  A    between atoms: C_1  and  N_2
REMARK    2  A    between atoms: C_3  and  C_5
REMARK    3  A    between atoms: C_9  and  C_12
REMARK    4  A    between atoms: C_15  and  C_16
REMARK    5  A    between atoms: C_16  and  C_17
REMARK                            x       y       z     vdW  Elec       q    Type
REMARK                         _______ _______ _______ _____ _____    ______ ____
ROOT
ATOM      1  C   UNL     1      -7.912   1.954 130.910  0.00  0.00    +0.000 A 
ATOM      2  N   UNL     1      -7.947   3.260 130.993  0.00  0.00    +0.000 NA
ATOM      3  N   UNL     1      -7.857   3.776 132.283  0.00  0.00    +0.000 N 
ATOM      4  C   UNL     1      -7.876   5.099 132.694  0.00  0.00    +0.000 A 
ATOM      5  C   UNL     1      -7.751   5.049 134.063  0.00  0.00    +0.000 A 
ATOM      6  N   UNL     1      -7.650   3.773 134.508  0.00  0.00    +0.000 NA
ATOM      7  C   UNL     1      -7.719   3.000 133.432  0.00  0.00    +0.000 A 
ATOM      8  N   UNL     1      -7.674   1.632 133.324  0.00  0.00    +0.000 NA
ATOM      9  C   UNL     1      -7.770   1.118 132.137  0.00  0.00    +0.000 A 
ENDROOT
BRANCH   1  14
ATOM     10  C   UNL     1      -8.225  -0.060 127.102  0.00  0.00    +0.000 A 
ATOM     11  C   UNL     1      -8.564   1.264 127.257  0.00  0.00    +0.000 A 
ATOM     12  F   UNL     1      -9.007   1.953 126.206  0.00  0.00    +0.000 F 
ATOM     13  C   UNL     1      -8.448   1.913 128.484  0.00  0.00    +0.000 A 
ATOM     14  C   UNL     1      -7.987   1.243 129.604  0.00  0.00    +0.000 A 
ATOM     15  C   UNL     1      -7.648  -0.094 129.478  0.00  0.00    +0.000 A 
ATOM     16  C   UNL     1      -7.789  -0.741 128.241  0.00  0.00    +0.000 A 
BRANCH  10  19
ATOM     17  C   UNL     1      -7.317  -1.494 123.629  0.00  0.00    +0.000 C 
ATOM     18  N   UNL     1      -7.231  -0.838 124.932  0.00  0.00    +0.000 N 
ATOM     19  C   UNL     1      -8.359  -0.737 125.764  0.00  0.00    +0.000 C 
ATOM     20  O   UNL     1      -9.451  -1.200 125.447  0.00  0.00    +0.000 OA
ATOM     21  H   UNL     1      -6.329  -0.457 125.199  0.00  0.00    +0.000 HD
ENDBRANCH  10  19
ENDBRANCH   1  14
BRANCH   4  22
ATOM     22  C   UNL     1      -8.000   6.325 131.867  0.00  0.00    +0.000 C 
BRANCH  22  23
ATOM     23  C   UNL     1      -9.395   6.482 131.297  0.00  0.00    +0.000 A 
ATOM     24  C   UNL     1      -9.610   7.146 130.086  0.00  0.00    +0.000 A 
ATOM     25  C   UNL     1     -10.960   7.332 129.512  0.00  0.00    +0.000 A 
ATOM     26  C   UNL     1     -11.963   7.078 130.386  0.00  0.00    +0.000 A 
ATOM     27  C   UNL     1     -11.729   6.648 131.648  0.00  0.00    +0.000 A 
ATOM     28  C   UNL     1     -10.521   6.055 131.954  0.00  0.00    +0.000 A 
ATOM     29  N   UNL     1     -13.225   7.196 130.054  0.00  0.00    +0.000 NA
ATOM     30  C   UNL     1     -13.379   7.569 128.835  0.00  0.00    +0.000 A 
ATOM     31  C   UNL     1     -13.584   7.949 127.618  0.00  0.00    +0.000 A 
ATOM     32  C   UNL     1     -11.709   7.771 128.177  0.00  0.00    +0.000 A 
ENDBRANCH  22  23
ENDBRANCH   4  22
TORSDOF 4
ENDMDL
MODEL 4
REMARK VINA RESULT:      -9.5      5.229      8.563
REMARK  Name = Capmatinib
REMARK  5 active torsions:
REMARK  status: ('A' for Active; 'I' for Inactive)
REMARK    1  A    between atoms: C_1  and  N_2
REMARK    2  A    between atoms: C_3  and  C_5
REMARK    3  A    between atoms: C_9  and  C_12
REMARK    4  A    between atoms: C_15  and  C_16
REMARK    5  A    between atoms: C_16  and  C_17
REMARK                            x       y       z     vdW  Elec       q    Type
REMARK                         _______ _______ _______ _____ _____    ______ ____
ROOT
ATOM      1  C   UNL     1      -7.487   0.307 131.768  0.00  0.00    +0.000 A 
ATOM      2  N   UNL     1      -7.916  -0.664 131.001  0.00  0.00    +0.000 NA
ATOM      3  N   UNL     1      -7.187  -1.848 131.079  0.00  0.00    +0.000 N 
ATOM      4  C   UNL     1      -7.382  -3.036 130.394  0.00  0.00    +0.000 A 
ATOM      5  C   UNL     1      -6.391  -3.876 130.846  0.00  0.00    +0.000 A 
ATOM      6  N   UNL     1      -5.609  -3.269 131.772  0.00  0.00    +0.000 NA
ATOM      7  C   UNL     1      -6.086  -2.039 131.911  0.00  0.00    +0.000 A 
ATOM      8  N   UNL     1      -5.657  -1.011 132.715  0.00  0.00    +0.000 NA
ATOM      9  C   UNL     1      -6.306   0.110 132.655  0.00  0.00    +0.000 A 
ENDROOT
BRANCH   1  14
ATOM     10  C   UNL     1      -9.502   4.123 131.971  0.00  0.00    +0.000 A 
ATOM     11  C   UNL     1      -9.142   3.427 133.102  0.00  0.00    +0.000 A 
ATOM     12  F   UNL     1      -9.423   3.935 134.301  0.00  0.00    +0.000 F 
ATOM     13  C   UNL     1      -8.479   2.203 133.032  0.00  0.00    +0.000 A 
ATOM     14  C   UNL     1      -8.160   1.635 131.810  0.00  0.00    +0.000 A 
ATOM     15  C   UNL     1      -8.521   2.311 130.656  0.00  0.00    +0.000 A 
ATOM     16  C   UNL     1      -9.204   3.532 130.741  0.00  0.00    +0.000 A 
BRANCH  10  19
ATOM     17  C   UNL     1     -12.188   6.867 131.528  0.00  0.00    +0.000 C 
ATOM     18  N   UNL     1     -11.460   5.602 131.444  0.00  0.00    +0.000 N 
ATOM     19  C   UNL     1     -10.215   5.444 132.076  0.00  0.00    +0.000 C 
ATOM     20  O   UNL     1      -9.693   6.343 132.730  0.00  0.00    +0.000 OA
ATOM     21  H   UNL     1     -11.891   4.856 130.907  0.00  0.00    +0.000 HD
ENDBRANCH  10  19
ENDBRANCH   1  14
BRANCH   4  22
ATOM     22  C   UNL     1      -8.422  -3.366 129.388  0.00  0.00    +0.000 C 
BRANCH  22  23
ATOM     23  C   UNL     1      -8.029  -2.907 127.999  0.00  0.00    +0.000 A 
ATOM     24  C   UNL     1      -8.772  -3.284 126.876  0.00  0.00    +0.000 A 
ATOM     25  C   UNL     1      -8.405  -2.868 125.505  0.00  0.00    +0.000 A 
ATOM     26  C   UNL     1      -7.152  -2.361 125.408  0.00  0.00    +0.000 A 
ATOM     27  C   UNL     1      -6.347  -2.213 126.485  0.00  0.00    +0.000 A 
ATOM     28  C   UNL     1      -6.900  -2.169 127.750  0.00  0.00    +0.000 A 
ATOM     29  N   UNL     1      -6.654  -1.947 124.269  0.00  0.00    +0.000 NA
ATOM     30  C   UNL     1      -7.480  -2.079 123.294  0.00  0.00    +0.000 A 
ATOM     31  C   UNL     1      -8.273  -2.198 122.283  0.00  0.00    +0.000 A 
ATOM     32  C   UNL     1      -8.961  -2.820 124.015  0.00  0.00    +0.000 A 
ENDBRANCH  22  23
ENDBRANCH   4  22
TORSDOF 4
ENDMDL
MODEL 5
REMARK VINA RESULT:      -9.5      8.590     11.202
REMARK  Name = Capmatinib
REMARK  5 active torsions:
REMARK  status: ('A' for Active; 'I' for Inactive)
REMARK    1  A    between atoms: C_1  and  N_2
REMARK    2  A    between atoms: C_3  and  C_5
REMARK    3  A    between atoms: C_9  and  C_12
REMARK    4  A    between atoms: C_15  and  C_16
REMARK    5  A    between atoms: C_16  and  C_17
REMARK                            x       y       z     vdW  Elec       q    Type
REMARK                         _______ _______ _______ _____ _____    ______ ____
ROOT
ATOM      1  C   UNL     1      -7.795   5.674 132.860  0.00  0.00    +0.000 A 
ATOM      2  N   UNL     1      -6.581   6.120 132.660  0.00  0.00    +0.000 NA
ATOM      3  N   UNL     1      -5.606   5.585 133.498  0.00  0.00    +0.000 N 
ATOM      4  C   UNL     1      -4.249   5.858 133.541  0.00  0.00    +0.000 A 
ATOM      5  C   UNL     1      -3.754   5.058 134.544  0.00  0.00    +0.000 A 
ATOM      6  N   UNL     1      -4.730   4.307 135.109  0.00  0.00    +0.000 NA
ATOM      7  C   UNL     1      -5.854   4.628 134.481  0.00  0.00    +0.000 A 
ATOM      8  N   UNL     1      -7.133   4.165 134.669  0.00  0.00    +0.000 NA
ATOM      9  C   UNL     1      -8.067   4.655 133.914  0.00  0.00    +0.000 A 
ENDROOT
BRANCH   1  14
ATOM     10  C   UNL     1     -11.098   7.111 130.475  0.00  0.00    +0.000 A 
ATOM     11  C   UNL     1      -9.788   7.336 130.118  0.00  0.00    +0.000 A 
ATOM     12  F   UNL     1      -9.520   8.020 129.007  0.00  0.00    +0.000 F 
ATOM     13  C   UNL     1      -8.726   6.858 130.883  0.00  0.00    +0.000 A 
ATOM     14  C   UNL     1      -8.951   6.137 132.043  0.00  0.00    +0.000 A 
ATOM     15  C   UNL     1     -10.261   5.905 132.430  0.00  0.00    +0.000 A 
ATOM     16  C   UNL     1     -11.320   6.408 131.661  0.00  0.00    +0.000 A 
BRANCH  10  19
ATOM     17  C   UNL     1     -13.478   9.576 128.687  0.00  0.00    +0.000 C 
ATOM     18  N   UNL     1     -12.399   9.025 129.504  0.00  0.00    +0.000 N 
ATOM     19  C   UNL     1     -12.226   7.637 129.629  0.00  0.00    +0.000 C 
ATOM     20  O   UNL     1     -12.955   6.831 129.056  0.00  0.00    +0.000 OA
ATOM     21  H   UNL     1     -11.794   9.688 129.978  0.00  0.00    +0.000 HD
ENDBRANCH  10  19
ENDBRANCH   1  14
BRANCH   4  22
ATOM     22  C   UNL     1      -3.467   6.801 132.702  0.00  0.00    +0.000 C 
BRANCH  22  23
ATOM     23  C   UNL     1      -3.323   6.303 131.279  0.00  0.00    +0.000 A 
ATOM     24  C   UNL     1      -3.431   4.943 130.975  0.00  0.00    +0.000 A 
ATOM     25  C   UNL     1      -3.277   4.422 129.599  0.00  0.00    +0.000 A 
ATOM     26  C   UNL     1      -2.735   5.315 128.737  0.00  0.00    +0.000 A 
ATOM     27  C   UNL     1      -2.417   6.576 129.109  0.00  0.00    +0.000 A 
ATOM     28  C   UNL     1      -3.008   7.127 130.228  0.00  0.00    +0.000 A 
ATOM     29  N   UNL     1      -2.519   5.026 127.477  0.00  0.00    +0.000 NA
ATOM     30  C   UNL     1      -2.877   3.828 127.180  0.00  0.00    +0.000 A 
ATOM     31  C   UNL     1      -3.216   2.632 126.835  0.00  0.00    +0.000 A 
ATOM     32  C   UNL     1      -3.502   3.115 128.717  0.00  0.00    +0.000 A 
ENDBRANCH  22  23
ENDBRANCH   4  22
TORSDOF 4
ENDMDL
MODEL 6
REMARK VINA RESULT:      -9.5     10.291     12.003
REMARK  Name = Capmatinib
REMARK  5 active torsions:
REMARK  status: ('A' for Active; 'I' for Inactive)
REMARK    1  A    between atoms: C_1  and  N_2
REMARK    2  A    between atoms: C_3  and  C_5
REMARK    3  A    between atoms: C_9  and  C_12
REMARK    4  A    between atoms: C_15  and  C_16
REMARK    5  A    between atoms: C_16  and  C_17
REMARK                            x       y       z     vdW  Elec       q    Type
REMARK                         _______ _______ _______ _____ _____    ______ ____
ROOT
ATOM      1  C   UNL     1      -3.173   6.188 131.868  0.00  0.00    +0.000 A 
ATOM      2  N   UNL     1      -4.433   6.219 132.225  0.00  0.00    +0.000 NA
ATOM      3  N   UNL     1      -5.239   5.246 131.642  0.00  0.00    +0.000 N 
ATOM      4  C   UNL     1      -6.597   5.026 131.809  0.00  0.00    +0.000 A 
ATOM      5  C   UNL     1      -6.885   3.943 131.012  0.00  0.00    +0.000 A 
ATOM      6  N   UNL     1      -5.779   3.486 130.376  0.00  0.00    +0.000 NA
ATOM      7  C   UNL     1      -4.782   4.276 130.752  0.00  0.00    +0.000 A 
ATOM      8  N   UNL     1      -3.456   4.254 130.396  0.00  0.00    +0.000 NA
ATOM      9  C   UNL     1      -2.680   5.158 130.910  0.00  0.00    +0.000 A 
ENDROOT
BRANCH   1  14
ATOM     10  C   UNL     1      -0.316   9.063 133.361  0.00  0.00    +0.000 A 
ATOM     11  C   UNL     1      -1.619   9.407 133.083  0.00  0.00    +0.000 A 
ATOM     12  F   UNL     1      -2.020  10.662 133.275  0.00  0.00    +0.000 F 
ATOM     13  C   UNL     1      -2.541   8.473 132.616  0.00  0.00    +0.000 A 
ATOM     14  C   UNL     1      -2.176   7.154 132.406  0.00  0.00    +0.000 A 
ATOM     15  C   UNL     1      -0.866   6.784 132.668  0.00  0.00    +0.000 A 
ATOM     16  C   UNL     1       0.056   7.739 133.120  0.00  0.00    +0.000 A 
BRANCH  10  19
ATOM     17  C   UNL     1       2.124  12.061 133.425  0.00  0.00    +0.000 C 
ATOM     18  N   UNL     1       1.180  11.041 132.972  0.00  0.00    +0.000 N 
ATOM     19  C   UNL     1       0.659  10.092 133.867  0.00  0.00    +0.000 C 
ATOM     20  O   UNL     1       0.957  10.081 135.059  0.00  0.00    +0.000 OA
ATOM     21  H   UNL     1       0.930  11.048 131.988  0.00  0.00    +0.000 HD
ENDBRANCH  10  19
ENDBRANCH   1  14
BRANCH   4  22
ATOM     22  C   UNL     1      -7.559   5.775 132.656  0.00  0.00    +0.000 C 
BRANCH  22  23
ATOM     23  C   UNL     1      -8.827   6.117 131.900  0.00  0.00    +0.000 A 
ATOM     24  C   UNL     1      -8.801   6.967 130.791  0.00  0.00    +0.000 A 
ATOM     25  C   UNL     1     -10.022   7.334 130.043  0.00  0.00    +0.000 A 
ATOM     26  C   UNL     1     -11.171   7.030 130.693  0.00  0.00    +0.000 A 
ATOM     27  C   UNL     1     -11.177   6.403 131.892  0.00  0.00    +0.000 A 
ATOM     28  C   UNL     1     -10.069   5.683 132.292  0.00  0.00    +0.000 A 
ATOM     29  N   UNL     1     -12.350   7.288 130.185  0.00  0.00    +0.000 NA
ATOM     30  C   UNL     1     -12.276   7.847 129.030  0.00  0.00    +0.000 A 
ATOM     31  C   UNL     1     -12.251   8.416 127.872  0.00  0.00    +0.000 A 
ATOM     32  C   UNL     1     -10.510   8.020 128.691  0.00  0.00    +0.000 A 
ENDBRANCH  22  23
ENDBRANCH   4  22
TORSDOF 4
ENDMDL
MODEL 7
REMARK VINA RESULT:      -9.4      1.988      3.168
REMARK  Name = Capmatinib
REMARK  5 active torsions:
REMARK  status: ('A' for Active; 'I' for Inactive)
REMARK    1  A    between atoms: C_1  and  N_2
REMARK    2  A    between atoms: C_3  and  C_5
REMARK    3  A    between atoms: C_9  and  C_12
REMARK    4  A    between atoms: C_15  and  C_16
REMARK    5  A    between atoms: C_16  and  C_17
REMARK                            x       y       z     vdW  Elec       q    Type
REMARK                         _______ _______ _______ _____ _____    ______ ____
ROOT
ATOM      1  C   UNL     1      -8.424  -1.854 125.870  0.00  0.00    +0.000 A 
ATOM      2  N   UNL     1      -8.597  -0.569 125.685  0.00  0.00    +0.000 NA
ATOM      3  N   UNL     1      -9.143  -0.215 124.454  0.00  0.00    +0.000 N 
ATOM      4  C   UNL     1      -9.435   1.047 123.962  0.00  0.00    +0.000 A 
ATOM      5  C   UNL     1      -9.958   0.830 122.709  0.00  0.00    +0.000 A 
ATOM      6  N   UNL     1     -10.009  -0.492 122.413  0.00  0.00    +0.000 NA
ATOM      7  C   UNL     1      -9.512  -1.126 123.467  0.00  0.00    +0.000 A 
ATOM      8  N   UNL     1      -9.331  -2.470 123.683  0.00  0.00    +0.000 NA
ATOM      9  C   UNL     1      -8.810  -2.833 124.815  0.00  0.00    +0.000 A 
ENDROOT
BRANCH   1  14
ATOM     10  C   UNL     1      -6.695  -3.460 129.489  0.00  0.00    +0.000 A 
ATOM     11  C   UNL     1      -5.984  -2.643 128.640  0.00  0.00    +0.000 A 
ATOM     12  F   UNL     1      -4.721  -2.335 128.934  0.00  0.00    +0.000 F 
ATOM     13  C   UNL     1      -6.550  -2.115 127.482  0.00  0.00    +0.000 A 
ATOM     14  C   UNL     1      -7.860  -2.400 127.136  0.00  0.00    +0.000 A 
ATOM     15  C   UNL     1      -8.596  -3.229 127.967  0.00  0.00    +0.000 A 
ATOM     16  C   UNL     1      -8.007  -3.768 129.120  0.00  0.00    +0.000 A 
BRANCH  10  19
ATOM     17  C   UNL     1      -5.444  -3.737 133.135  0.00  0.00    +0.000 C 
ATOM     18  N   UNL     1      -6.045  -3.232 131.902  0.00  0.00    +0.000 N 
ATOM     19  C   UNL     1      -6.059  -4.014 130.735  0.00  0.00    +0.000 C 
ATOM     20  O   UNL     1      -5.587  -5.148 130.699  0.00  0.00    +0.000 OA
ATOM     21  H   UNL     1      -6.438  -2.297 131.929  0.00  0.00    +0.000 HD
ENDBRANCH  10  19
ENDBRANCH   1  14
BRANCH   4  22
ATOM     22  C   UNL     1      -9.239   2.364 124.617  0.00  0.00    +0.000 C 
BRANCH  22  23
ATOM     23  C   UNL     1      -7.772   2.679 124.824  0.00  0.00    +0.000 A 
ATOM     24  C   UNL     1      -7.158   2.481 126.064  0.00  0.00    +0.000 A 
ATOM     25  C   UNL     1      -5.733   2.795 126.304  0.00  0.00    +0.000 A 
ATOM     26  C   UNL     1      -5.172   3.554 125.332  0.00  0.00    +0.000 A 
ATOM     27  C   UNL     1      -5.857   3.937 124.229  0.00  0.00    +0.000 A 
ATOM     28  C   UNL     1      -6.984   3.236 123.849  0.00  0.00    +0.000 A 
ATOM     29  N   UNL     1      -3.919   3.934 125.380  0.00  0.00    +0.000 NA
ATOM     30  C   UNL     1      -3.316   3.507 126.430  0.00  0.00    +0.000 A 
ATOM     31  C   UNL     1      -2.669   3.106 127.473  0.00  0.00    +0.000 A 
ATOM     32  C   UNL     1      -4.558   2.580 127.357  0.00  0.00    +0.000 A 
ENDBRANCH  22  23
ENDBRANCH   4  22
TORSDOF 4
ENDMDL
MODEL 8
REMARK VINA RESULT:      -9.3      5.703      9.175
REMARK  Name = Capmatinib
REMARK  5 active torsions:
REMARK  status: ('A' for Active; 'I' for Inactive)
REMARK    1  A    between atoms: C_1  and  N_2
REMARK    2  A    between atoms: C_3  and  C_5
REMARK    3  A    between atoms: C_9  and  C_12
REMARK    4  A    between atoms: C_15  and  C_16
REMARK    5  A    between atoms: C_16  and  C_17
REMARK                            x       y       z     vdW  Elec       q    Type
REMARK                         _______ _______ _______ _____ _____    ______ ____
ROOT
ATOM      1  C   UNL     1      -7.467   2.358 130.727  0.00  0.00    +0.000 A 
ATOM      2  N   UNL     1      -7.741   1.084 130.598  0.00  0.00    +0.000 NA
ATOM      3  N   UNL     1      -6.638   0.234 130.625  0.00  0.00    +0.000 N 
ATOM      4  C   UNL     1      -6.600  -1.145 130.506  0.00  0.00    +0.000 A 
ATOM      5  C   UNL     1      -5.269  -1.476 130.604  0.00  0.00    +0.000 A 
ATOM      6  N   UNL     1      -4.495  -0.377 130.785  0.00  0.00    +0.000 NA
ATOM      7  C   UNL     1      -5.322   0.660 130.792  0.00  0.00    +0.000 A 
ATOM      8  N   UNL     1      -5.056   2.000 130.935  0.00  0.00    +0.000 NA
ATOM      9  C   UNL     1      -6.060   2.820 130.900  0.00  0.00    +0.000 A 
ENDROOT
BRANCH   1  14
ATOM     10  C   UNL     1     -10.523   5.410 130.828  0.00  0.00    +0.000 A 
ATOM     11  C   UNL     1      -9.228   5.660 131.224  0.00  0.00    +0.000 A 
ATOM     12  F   UNL     1      -8.899   6.876 131.656  0.00  0.00    +0.000 F 
ATOM     13  C   UNL     1      -8.243   4.676 131.175  0.00  0.00    +0.000 A 
ATOM     14  C   UNL     1      -8.533   3.399 130.729  0.00  0.00    +0.000 A 
ATOM     15  C   UNL     1      -9.831   3.117 130.334  0.00  0.00    +0.000 A 
ATOM     16  C   UNL     1     -10.817   4.112 130.406  0.00  0.00    +0.000 A 
BRANCH  10  19
ATOM     17  C   UNL     1     -12.635   8.503 129.872  0.00  0.00    +0.000 C 
ATOM     18  N   UNL     1     -11.631   7.441 129.855  0.00  0.00    +0.000 N 
ATOM     19  C   UNL     1     -11.568   6.492 130.888  0.00  0.00    +0.000 C 
ATOM     20  O   UNL     1     -12.349   6.500 131.836  0.00  0.00    +0.000 OA
ATOM     21  H   UNL     1     -10.984   7.429 129.072  0.00  0.00    +0.000 HD
ENDBRANCH  10  19
ENDBRANCH   1  14
BRANCH   4  22
ATOM     22  C   UNL     1      -7.729  -2.090 130.314  0.00  0.00    +0.000 C 
BRANCH  22  23
ATOM     23  C   UNL     1      -7.884  -2.495 128.863  0.00  0.00    +0.000 A 
ATOM     24  C   UNL     1      -7.517  -1.630 127.827  0.00  0.00    +0.000 A 
ATOM     25  C   UNL     1      -7.673  -1.988 126.401  0.00  0.00    +0.000 A 
ATOM     26  C   UNL     1      -8.463  -3.069 126.194  0.00  0.00    +0.000 A 
ATOM     27  C   UNL     1      -9.007  -3.771 127.215  0.00  0.00    +0.000 A 
ATOM     28  C   UNL     1      -8.453  -3.683 128.477  0.00  0.00    +0.000 A 
ATOM     29  N   UNL     1      -8.718  -3.527 124.994  0.00  0.00    +0.000 NA
ATOM     30  C   UNL     1      -8.141  -2.842 124.074  0.00  0.00    +0.000 A 
ATOM     31  C   UNL     1      -7.588  -2.179 123.114  0.00  0.00    +0.000 A 
ATOM     32  C   UNL     1      -7.253  -1.527 124.936  0.00  0.00    +0.000 A 
ENDBRANCH  22  23
ENDBRANCH   4  22
TORSDOF 4
ENDMDL
MODEL 9
REMARK VINA RESULT:      -9.1      3.705      8.242
REMARK  Name = Capmatinib
REMARK  5 active torsions:
REMARK  status: ('A' for Active; 'I' for Inactive)
REMARK    1  A    between atoms: C_1  and  N_2
REMARK    2  A    between atoms: C_3  and  C_5
REMARK    3  A    between atoms: C_9  and  C_12
REMARK    4  A    between atoms: C_15  and  C_16
REMARK    5  A    between atoms: C_16  and  C_17
REMARK                            x       y       z     vdW  Elec       q    Type
REMARK                         _______ _______ _______ _____ _____    ______ ____
ROOT
ATOM      1  C   UNL     1      -8.206   1.404 128.148  0.00  0.00    +0.000 A 
ATOM      2  N   UNL     1      -7.775   0.217 128.492  0.00  0.00    +0.000 NA
ATOM      3  N   UNL     1      -7.925  -0.102 129.839  0.00  0.00    +0.000 N 
ATOM      4  C   UNL     1      -7.563  -1.262 130.504  0.00  0.00    +0.000 A 
ATOM      5  C   UNL     1      -7.938  -1.057 131.811  0.00  0.00    +0.000 A 
ATOM      6  N   UNL     1      -8.515   0.159 131.978  0.00  0.00    +0.000 NA
ATOM      7  C   UNL     1      -8.503   0.740 130.786  0.00  0.00    +0.000 A 
ATOM      8  N   UNL     1      -8.958   1.979 130.404  0.00  0.00    +0.000 NA
ATOM      9  C   UNL     1      -8.820   2.313 129.158  0.00  0.00    +0.000 A 
ENDROOT
BRANCH   1  14
ATOM     10  C   UNL     1      -7.921   2.746 124.051  0.00  0.00    +0.000 A 
ATOM     11  C   UNL     1      -8.139   1.426 124.373  0.00  0.00    +0.000 A 
ATOM     12  F   UNL     1      -8.264   0.527 123.398  0.00  0.00    +0.000 F 
ATOM     13  C   UNL     1      -8.245   1.000 125.696  0.00  0.00    +0.000 A 
ATOM     14  C   UNL     1      -8.128   1.896 126.744  0.00  0.00    +0.000 A 
ATOM     15  C   UNL     1      -7.898   3.230 126.448  0.00  0.00    +0.000 A 
ATOM     16  C   UNL     1      -7.775   3.642 125.113  0.00  0.00    +0.000 A 
BRANCH  10  19
ATOM     17  C   UNL     1      -6.392   3.784 120.656  0.00  0.00    +0.000 C 
ATOM     18  N   UNL     1      -6.540   3.370 122.050  0.00  0.00    +0.000 N 
ATOM     19  C   UNL     1      -7.813   3.180 122.614  0.00  0.00    +0.000 C 
ATOM     20  O   UNL     1      -8.847   3.337 121.970  0.00  0.00    +0.000 OA
ATOM     21  H   UNL     1      -5.688   3.237 122.585  0.00  0.00    +0.000 HD
ENDBRANCH  10  19
ENDBRANCH   1  14
BRANCH   4  22
ATOM     22  C   UNL     1      -6.913  -2.480 129.957  0.00  0.00    +0.000 C 
BRANCH  22  23
ATOM     23  C   UNL     1      -7.134  -2.615 128.464  0.00  0.00    +0.000 A 
ATOM     24  C   UNL     1      -6.188  -2.145 127.548  0.00  0.00    +0.000 A 
ATOM     25  C   UNL     1      -6.382  -2.245 126.085  0.00  0.00    +0.000 A 
ATOM     26  C   UNL     1      -7.653  -2.544 125.724  0.00  0.00    +0.000 A 
ATOM     27  C   UNL     1      -8.628  -2.774 126.635  0.00  0.00    +0.000 A 
ATOM     28  C   UNL     1      -8.287  -3.128 127.925  0.00  0.00    +0.000 A 
ATOM     29  N   UNL     1      -8.012  -2.667 124.470  0.00  0.00    +0.000 NA
ATOM     30  C   UNL     1      -7.034  -2.475 123.659  0.00  0.00    +0.000 A 
ATOM     31  C   UNL     1      -6.085  -2.283 122.805  0.00  0.00    +0.000 A 
ATOM     32  C   UNL     1      -5.609  -2.095 124.702  0.00  0.00    +0.000 A 
ENDBRANCH  22  23
ENDBRANCH   4  22
TORSDOF 4
ENDMDL
