MODEL 1
REMARK VINA RESULT:      -7.0      0.000      0.000
REMARK  Name = Capsaicin
REMARK  13 active torsions:
REMARK  status: ('A' for Active; 'I' for Inactive)
REMARK    1  A    between atoms: C_1  and  O_2
REMARK    2  A    between atoms: O_2  and  C_3
REMARK    3  A    between atoms: C_4  and  O_5
REMARK    4  A    between atoms: C_8  and  C_9
REMARK    5  A    between atoms: C_9  and  N_10
REMARK    6  A    between atoms: C_11  and  C_13
REMARK    7  A    between atoms: C_13  and  C_14
REMARK    8  A    between atoms: C_14  and  C_15
REMARK    9  A    between atoms: C_15  and  C_16
REMARK   10  A    between atoms: C_16  and  C_17
REMARK   11  A    between atoms: C_18  and  C_19
REMARK   12  A    between atoms: C_19  and  C_20
REMARK   13  A    between atoms: C_19  and  C_21
REMARK                            x       y       z     vdW  Elec       q    Type
REMARK                         _______ _______ _______ _____ _____    ______ ____
ROOT
ATOM      1  N   UNL     1      -8.617   0.725 123.326  0.00  0.00    +0.000 N 
ATOM      2  C   UNL     1      -9.601  -0.111 122.869  0.00  0.00    +0.000 C 
ATOM      3  O   UNL     1     -10.675   0.304 122.441  0.00  0.00    +0.000 OA
ATOM      4  H   UNL     1      -7.770   0.298 123.658  0.00  0.00    +0.000 HD
ENDROOT
BRANCH   1   5
ATOM      5  C   UNL     1      -8.786   2.171 123.331  0.00  0.00    +0.000 C 
BRANCH   5  10
ATOM      6  C   UNL     1      -7.701   4.071 120.163  0.00  0.00    +0.000 A 
ATOM      7  C   UNL     1      -6.361   4.317 120.462  0.00  0.00    +0.000 A 
ATOM      8  C   UNL     1      -5.809   3.893 121.665  0.00  0.00    +0.000 A 
ATOM      9  C   UNL     1      -6.603   3.204 122.590  0.00  0.00    +0.000 A 
ATOM     10  C   UNL     1      -7.953   2.927 122.315  0.00  0.00    +0.000 A 
ATOM     11  C   UNL     1      -8.474   3.373 121.091  0.00  0.00    +0.000 A 
BRANCH   6  13
ATOM     12  C   UNL     1      -9.567   4.372 118.727  0.00  0.00    +0.000 C 
ATOM     13  O   UNL     1      -8.167   4.540 118.960  0.00  0.00    +0.000 OA
ENDBRANCH   6  13
BRANCH   7  14
ATOM     14  O   UNL     1      -5.554   4.979 119.580  0.00  0.00    +0.000 OA
ATOM     15  H   UNL     1      -6.116   5.176 118.806  0.00  0.00    +0.000 HD
ENDBRANCH   7  14
ENDBRANCH   5  10
ENDBRANCH   1   5
BRANCH   2  16
ATOM     16  C   UNL     1      -9.236  -1.587 122.946  0.00  0.00    +0.000 C 
BRANCH  16  17
ATOM     17  C   UNL     1      -7.731  -1.759 122.772  0.00  0.00    +0.000 C 
BRANCH  17  18
ATOM     18  C   UNL     1      -7.135  -2.741 123.771  0.00  0.00    +0.000 C 
BRANCH  18  19
ATOM     19  C   UNL     1      -6.811  -2.023 125.082  0.00  0.00    +0.000 C 
BRANCH  19  20
ATOM     20  C   UNL     1      -7.672  -2.533 126.194  0.00  0.00    +0.000 C 
ATOM     21  C   UNL     1      -7.326  -2.434 127.485  0.00  0.00    +0.000 C 
BRANCH  21  22
ATOM     22  C   UNL     1      -8.175  -2.987 128.602  0.00  0.00    +0.000 C 
ATOM     23  C   UNL     1      -9.077  -4.116 128.100  0.00  0.00    +0.000 C 
ATOM     24  C   UNL     1      -7.294  -3.498 129.742  0.00  0.00    +0.000 C 
ENDBRANCH  21  22
ENDBRANCH  19  20
ENDBRANCH  18  19
ENDBRANCH  17  18
ENDBRANCH  16  17
ENDBRANCH   2  16
TORSDOF 10
ENDMDL
MODEL 2
REMARK VINA RESULT:      -6.6      1.115      2.313
REMARK  Name = Capsaicin
REMARK  13 active torsions:
REMARK  status: ('A' for Active; 'I' for Inactive)
REMARK    1  A    between atoms: C_1  and  O_2
REMARK    2  A    between atoms: O_2  and  C_3
REMARK    3  A    between atoms: C_4  and  O_5
REMARK    4  A    between atoms: C_8  and  C_9
REMARK    5  A    between atoms: C_9  and  N_10
REMARK    6  A    between atoms: C_11  and  C_13
REMARK    7  A    between atoms: C_13  and  C_14
REMARK    8  A    between atoms: C_14  and  C_15
REMARK    9  A    between atoms: C_15  and  C_16
REMARK   10  A    between atoms: C_16  and  C_17
REMARK   11  A    between atoms: C_18  and  C_19
REMARK   12  A    between atoms: C_19  and  C_20
REMARK   13  A    between atoms: C_19  and  C_21
REMARK                            x       y       z     vdW  Elec       q    Type
REMARK                         _______ _______ _______ _____ _____    ______ ____
ROOT
ATOM      1  N   UNL     1      -7.971   0.324 123.501  0.00  0.00    +0.000 N 
ATOM      2  C   UNL     1      -8.880  -0.635 123.140  0.00  0.00    +0.000 C 
ATOM      3  O   UNL     1     -10.050  -0.371 122.876  0.00  0.00    +0.000 OA
ATOM      4  H   UNL     1      -7.035   0.017 123.699  0.00  0.00    +0.000 HD
ENDROOT
BRANCH   1   5
ATOM      5  C   UNL     1      -8.342   1.729 123.595  0.00  0.00    +0.000 C 
BRANCH   5  10
ATOM      6  C   UNL     1      -6.375   3.753 120.976  0.00  0.00    +0.000 A 
ATOM      7  C   UNL     1      -7.413   4.154 120.135  0.00  0.00    +0.000 A 
ATOM      8  C   UNL     1      -8.726   3.775 120.390  0.00  0.00    +0.000 A 
ATOM      9  C   UNL     1      -9.016   2.985 121.510  0.00  0.00    +0.000 A 
ATOM     10  C   UNL     1      -7.996   2.575 122.386  0.00  0.00    +0.000 A 
ATOM     11  C   UNL     1      -6.684   2.976 122.093  0.00  0.00    +0.000 A 
BRANCH   6  13
ATOM     12  C   UNL     1      -4.366   4.806 121.675  0.00  0.00    +0.000 C 
ATOM     13  O   UNL     1      -5.108   4.159 120.639  0.00  0.00    +0.000 OA
ENDBRANCH   6  13
BRANCH   7  14
ATOM     14  O   UNL     1      -7.168   4.931 119.038  0.00  0.00    +0.000 OA
ATOM     15  H   UNL     1      -6.570   5.640 119.345  0.00  0.00    +0.000 HD
ENDBRANCH   7  14
ENDBRANCH   5  10
ENDBRANCH   1   5
BRANCH   2  16
ATOM     16  C   UNL     1      -8.302  -2.043 123.099  0.00  0.00    +0.000 C 
BRANCH  16  17
ATOM     17  C   UNL     1      -9.228  -3.006 123.836  0.00  0.00    +0.000 C 
BRANCH  17  18
ATOM     18  C   UNL     1      -8.600  -3.566 125.104  0.00  0.00    +0.000 C 
BRANCH  18  19
ATOM     19  C   UNL     1      -8.908  -2.651 126.290  0.00  0.00    +0.000 C 
BRANCH  19  20
ATOM     20  C   UNL     1      -8.502  -3.294 127.577  0.00  0.00    +0.000 C 
ATOM     21  C   UNL     1      -8.165  -2.590 128.668  0.00  0.00    +0.000 C 
BRANCH  21  22
ATOM     22  C   UNL     1      -7.714  -3.239 129.952  0.00  0.00    +0.000 C 
ATOM     23  C   UNL     1      -6.348  -3.907 129.780  0.00  0.00    +0.000 C 
ATOM     24  C   UNL     1      -7.647  -2.208 131.078  0.00  0.00    +0.000 C 
ENDBRANCH  21  22
ENDBRANCH  19  20
ENDBRANCH  18  19
ENDBRANCH  17  18
ENDBRANCH  16  17
ENDBRANCH   2  16
TORSDOF 10
ENDMDL
MODEL 3
REMARK VINA RESULT:      -6.6     11.399     12.729
REMARK  Name = Capsaicin
REMARK  13 active torsions:
REMARK  status: ('A' for Active; 'I' for Inactive)
REMARK    1  A    between atoms: C_1  and  O_2
REMARK    2  A    between atoms: O_2  and  C_3
REMARK    3  A    between atoms: C_4  and  O_5
REMARK    4  A    between atoms: C_8  and  C_9
REMARK    5  A    between atoms: C_9  and  N_10
REMARK    6  A    between atoms: C_11  and  C_13
REMARK    7  A    between atoms: C_13  and  C_14
REMARK    8  A    between atoms: C_14  and  C_15
REMARK    9  A    between atoms: C_15  and  C_16
REMARK   10  A    between atoms: C_16  and  C_17
REMARK   11  A    between atoms: C_18  and  C_19
REMARK   12  A    between atoms: C_19  and  C_20
REMARK   13  A    between atoms: C_19  and  C_21
REMARK                            x       y       z     vdW  Elec       q    Type
REMARK                         _______ _______ _______ _____ _____    ______ ____
ROOT
ATOM      1  N   UNL     1      -9.839   5.985 132.820  0.00  0.00    +0.000 N 
ATOM      2  C   UNL     1      -8.605   5.508 132.466  0.00  0.00    +0.000 C 
ATOM      3  O   UNL     1      -8.427   4.806 131.474  0.00  0.00    +0.000 OA
ATOM      4  H   UNL     1      -9.891   6.552 133.648  0.00  0.00    +0.000 HD
ENDROOT
BRANCH   1   5
ATOM      5  C   UNL     1     -11.027   5.684 132.034  0.00  0.00    +0.000 C 
BRANCH   5  10
ATOM      6  C   UNL     1     -11.266   8.140 129.078  0.00  0.00    +0.000 A 
ATOM      7  C   UNL     1     -12.400   8.865 129.444  0.00  0.00    +0.000 A 
ATOM      8  C   UNL     1     -13.090   8.570 130.613  0.00  0.00    +0.000 A 
ATOM      9  C   UNL     1     -12.642   7.535 131.443  0.00  0.00    +0.000 A 
ATOM     10  C   UNL     1     -11.495   6.793 131.112  0.00  0.00    +0.000 A 
ATOM     11  C   UNL     1     -10.827   7.120 129.922  0.00  0.00    +0.000 A 
BRANCH   6  13
ATOM     12  C   UNL     1     -10.873   7.601 126.800  0.00  0.00    +0.000 C 
ATOM     13  O   UNL     1     -10.656   8.489 127.899  0.00  0.00    +0.000 OA
ENDBRANCH   6  13
BRANCH   7  14
ATOM     14  O   UNL     1     -12.862   9.888 128.662  0.00  0.00    +0.000 OA
ATOM     15  H   UNL     1     -13.792   9.666 128.462  0.00  0.00    +0.000 HD
ENDBRANCH   7  14
ENDBRANCH   5  10
ENDBRANCH   1   5
BRANCH   2  16
ATOM     16  C   UNL     1      -7.490   5.930 133.413  0.00  0.00    +0.000 C 
BRANCH  16  17
ATOM     17  C   UNL     1      -7.808   5.464 134.830  0.00  0.00    +0.000 C 
BRANCH  17  18
ATOM     18  C   UNL     1      -6.822   6.002 135.858  0.00  0.00    +0.000 C 
BRANCH  18  19
ATOM     19  C   UNL     1      -7.486   6.071 137.234  0.00  0.00    +0.000 C 
BRANCH  19  20
ATOM     20  C   UNL     1      -8.465   7.199 137.296  0.00  0.00    +0.000 C 
ATOM     21  C   UNL     1      -8.215   8.346 137.944  0.00  0.00    +0.000 C 
BRANCH  21  22
ATOM     22  C   UNL     1      -9.220   9.465 138.042  0.00  0.00    +0.000 C 
ATOM     23  C   UNL     1     -10.643   8.946 137.824  0.00  0.00    +0.000 C 
ATOM     24  C   UNL     1      -9.125  10.155 139.402  0.00  0.00    +0.000 C 
ENDBRANCH  21  22
ENDBRANCH  19  20
ENDBRANCH  18  19
ENDBRANCH  17  18
ENDBRANCH  16  17
ENDBRANCH   2  16
TORSDOF 10
ENDMDL
MODEL 4
REMARK VINA RESULT:      -6.5      3.112      5.122
REMARK  Name = Capsaicin
REMARK  13 active torsions:
REMARK  status: ('A' for Active; 'I' for Inactive)
REMARK    1  A    between atoms: C_1  and  O_2
REMARK    2  A    between atoms: O_2  and  C_3
REMARK    3  A    between atoms: C_4  and  O_5
REMARK    4  A    between atoms: C_8  and  C_9
REMARK    5  A    between atoms: C_9  and  N_10
REMARK    6  A    between atoms: C_11  and  C_13
REMARK    7  A    between atoms: C_13  and  C_14
REMARK    8  A    between atoms: C_14  and  C_15
REMARK    9  A    between atoms: C_15  and  C_16
REMARK   10  A    between atoms: C_16  and  C_17
REMARK   11  A    between atoms: C_18  and  C_19
REMARK   12  A    between atoms: C_19  and  C_20
REMARK   13  A    between atoms: C_19  and  C_21
REMARK                            x       y       z     vdW  Elec       q    Type
REMARK                         _______ _______ _______ _____ _____    ______ ____
ROOT
ATOM      1  N   UNL     1      -6.845  -1.290 127.165  0.00  0.00    +0.000 N 
ATOM      2  C   UNL     1      -6.846  -2.345 128.038  0.00  0.00    +0.000 C 
ATOM      3  O   UNL     1      -5.813  -2.816 128.507  0.00  0.00    +0.000 OA
ATOM      4  H   UNL     1      -7.737  -0.970 126.832  0.00  0.00    +0.000 HD
ENDROOT
BRANCH   1   5
ATOM      5  C   UNL     1      -5.607  -0.657 126.735  0.00  0.00    +0.000 C 
BRANCH   5  10
ATOM      6  C   UNL     1      -6.836   1.961 124.194  0.00  0.00    +0.000 A 
ATOM      7  C   UNL     1      -6.029   3.045 124.538  0.00  0.00    +0.000 A 
ATOM      8  C   UNL     1      -5.110   2.950 125.576  0.00  0.00    +0.000 A 
ATOM      9  C   UNL     1      -4.984   1.750 126.285  0.00  0.00    +0.000 A 
ATOM     10  C   UNL     1      -5.772   0.633 125.956  0.00  0.00    +0.000 A 
ATOM     11  C   UNL     1      -6.689   0.769 124.904  0.00  0.00    +0.000 A 
BRANCH   6  13
ATOM     12  C   UNL     1      -9.107   2.194 123.541  0.00  0.00    +0.000 C 
ATOM     13  O   UNL     1      -7.728   2.149 123.167  0.00  0.00    +0.000 OA
ENDBRANCH   6  13
BRANCH   7  14
ATOM     14  O   UNL     1      -6.119   4.230 123.862  0.00  0.00    +0.000 OA
ATOM     15  H   UNL     1      -5.331   4.265 123.286  0.00  0.00    +0.000 HD
ENDBRANCH   7  14
ENDBRANCH   5  10
ENDBRANCH   1   5
BRANCH   2  16
ATOM     16  C   UNL     1      -8.237  -2.869 128.366  0.00  0.00    +0.000 C 
BRANCH  16  17
ATOM     17  C   UNL     1      -8.745  -3.743 127.224  0.00  0.00    +0.000 C 
BRANCH  17  18
ATOM     18  C   UNL     1      -9.453  -2.940 126.143  0.00  0.00    +0.000 C 
BRANCH  18  19
ATOM     19  C   UNL     1      -9.160  -3.541 124.767  0.00  0.00    +0.000 C 
BRANCH  19  20
ATOM     20  C   UNL     1      -7.909  -2.960 124.189  0.00  0.00    +0.000 C 
ATOM     21  C   UNL     1      -6.708  -3.541 124.321  0.00  0.00    +0.000 C 
BRANCH  21  22
ATOM     22  C   UNL     1      -5.442  -2.933 123.775  0.00  0.00    +0.000 C 
ATOM     23  C   UNL     1      -4.396  -4.012 123.483  0.00  0.00    +0.000 C 
ATOM     24  C   UNL     1      -5.734  -2.140 122.502  0.00  0.00    +0.000 C 
ENDBRANCH  21  22
ENDBRANCH  19  20
ENDBRANCH  18  19
ENDBRANCH  17  18
ENDBRANCH  16  17
ENDBRANCH   2  16
TORSDOF 10
ENDMDL
MODEL 5
REMARK VINA RESULT:      -6.5      1.947      3.147
REMARK  Name = Capsaicin
REMARK  13 active torsions:
REMARK  status: ('A' for Active; 'I' for Inactive)
REMARK    1  A    between atoms: C_1  and  O_2
REMARK    2  A    between atoms: O_2  and  C_3
REMARK    3  A    between atoms: C_4  and  O_5
REMARK    4  A    between atoms: C_8  and  C_9
REMARK    5  A    between atoms: C_9  and  N_10
REMARK    6  A    between atoms: C_11  and  C_13
REMARK    7  A    between atoms: C_13  and  C_14
REMARK    8  A    between atoms: C_14  and  C_15
REMARK    9  A    between atoms: C_15  and  C_16
REMARK   10  A    between atoms: C_16  and  C_17
REMARK   11  A    between atoms: C_18  and  C_19
REMARK   12  A    between atoms: C_19  and  C_20
REMARK   13  A    between atoms: C_19  and  C_21
REMARK                            x       y       z     vdW  Elec       q    Type
REMARK                         _______ _______ _______ _____ _____    ______ ____
ROOT
ATOM      1  N   UNL     1      -8.228  -0.120 123.330  0.00  0.00    +0.000 N 
ATOM      2  C   UNL     1      -9.089  -1.102 122.917  0.00  0.00    +0.000 C 
ATOM      3  O   UNL     1     -10.255  -0.872 122.608  0.00  0.00    +0.000 OA
ATOM      4  H   UNL     1      -7.292  -0.400 123.562  0.00  0.00    +0.000 HD
ENDROOT
BRANCH   1   5
ATOM      5  C   UNL     1      -8.649   1.270 123.429  0.00  0.00    +0.000 C 
BRANCH   5  10
ATOM      6  C   UNL     1      -5.735   3.739 123.916  0.00  0.00    +0.000 A 
ATOM      7  C   UNL     1      -5.584   4.211 122.613  0.00  0.00    +0.000 A 
ATOM      8  C   UNL     1      -6.392   3.741 121.584  0.00  0.00    +0.000 A 
ATOM      9  C   UNL     1      -7.378   2.785 121.857  0.00  0.00    +0.000 A 
ATOM     10  C   UNL     1      -7.567   2.298 123.162  0.00  0.00    +0.000 A 
ATOM     11  C   UNL     1      -6.730   2.795 124.172  0.00  0.00    +0.000 A 
BRANCH   6  13
ATOM     12  C   UNL     1      -4.557   3.364 125.942  0.00  0.00    +0.000 C 
ATOM     13  O   UNL     1      -4.883   4.246 124.865  0.00  0.00    +0.000 OA
ENDBRANCH   6  13
BRANCH   7  14
ATOM     14  O   UNL     1      -4.637   5.150 122.311  0.00  0.00    +0.000 OA
ATOM     15  H   UNL     1      -4.538   5.693 123.117  0.00  0.00    +0.000 HD
ENDBRANCH   7  14
ENDBRANCH   5  10
ENDBRANCH   1   5
BRANCH   2  16
ATOM     16  C   UNL     1      -8.464  -2.489 122.879  0.00  0.00    +0.000 C 
BRANCH  16  17
ATOM     17  C   UNL     1      -9.273  -3.448 123.746  0.00  0.00    +0.000 C 
BRANCH  17  18
ATOM     18  C   UNL     1      -8.620  -3.710 125.096  0.00  0.00    +0.000 C 
BRANCH  18  19
ATOM     19  C   UNL     1      -9.355  -2.939 126.193  0.00  0.00    +0.000 C 
BRANCH  19  20
ATOM     20  C   UNL     1      -8.469  -2.724 127.377  0.00  0.00    +0.000 C 
ATOM     21  C   UNL     1      -8.543  -3.472 128.488  0.00  0.00    +0.000 C 
BRANCH  21  22
ATOM     22  C   UNL     1      -7.678  -3.228 129.697  0.00  0.00    +0.000 C 
ATOM     23  C   UNL     1      -6.200  -3.452 129.370  0.00  0.00    +0.000 C 
ATOM     24  C   UNL     1      -7.880  -1.807 130.222  0.00  0.00    +0.000 C 
ENDBRANCH  21  22
ENDBRANCH  19  20
ENDBRANCH  18  19
ENDBRANCH  17  18
ENDBRANCH  16  17
ENDBRANCH   2  16
TORSDOF 10
ENDMDL
MODEL 6
REMARK VINA RESULT:      -6.4      1.688      2.197
REMARK  Name = Capsaicin
REMARK  13 active torsions:
REMARK  status: ('A' for Active; 'I' for Inactive)
REMARK    1  A    between atoms: C_1  and  O_2
REMARK    2  A    between atoms: O_2  and  C_3
REMARK    3  A    between atoms: C_4  and  O_5
REMARK    4  A    between atoms: C_8  and  C_9
REMARK    5  A    between atoms: C_9  and  N_10
REMARK    6  A    between atoms: C_11  and  C_13
REMARK    7  A    between atoms: C_13  and  C_14
REMARK    8  A    between atoms: C_14  and  C_15
REMARK    9  A    between atoms: C_15  and  C_16
REMARK   10  A    between atoms: C_16  and  C_17
REMARK   11  A    between atoms: C_18  and  C_19
REMARK   12  A    between atoms: C_19  and  C_20
REMARK   13  A    between atoms: C_19  and  C_21
REMARK                            x       y       z     vdW  Elec       q    Type
REMARK                         _______ _______ _______ _____ _____    ______ ____
ROOT
ATOM      1  N   UNL     1      -8.082   0.399 123.277  0.00  0.00    +0.000 N 
ATOM      2  C   UNL     1      -7.349  -0.682 123.690  0.00  0.00    +0.000 C 
ATOM      3  O   UNL     1      -6.579  -0.632 124.645  0.00  0.00    +0.000 OA
ATOM      4  H   UNL     1      -8.687   0.267 122.485  0.00  0.00    +0.000 HD
ENDROOT
BRANCH   1   5
ATOM      5  C   UNL     1      -7.991   1.685 123.952  0.00  0.00    +0.000 C 
BRANCH   5  10
ATOM      6  C   UNL     1      -6.114   3.869 121.397  0.00  0.00    +0.000 A 
ATOM      7  C   UNL     1      -5.214   4.523 122.237  0.00  0.00    +0.000 A 
ATOM      8  C   UNL     1      -5.210   4.282 123.606  0.00  0.00    +0.000 A 
ATOM      9  C   UNL     1      -6.117   3.366 124.153  0.00  0.00    +0.000 A 
ATOM     10  C   UNL     1      -7.028   2.678 123.333  0.00  0.00    +0.000 A 
ATOM     11  C   UNL     1      -7.002   2.950 121.957  0.00  0.00    +0.000 A 
BRANCH   6  13
ATOM     12  C   UNL     1      -7.318   4.269 119.390  0.00  0.00    +0.000 C 
ATOM     13  O   UNL     1      -6.058   4.179 120.061  0.00  0.00    +0.000 OA
ENDBRANCH   6  13
BRANCH   7  14
ATOM     14  O   UNL     1      -4.309   5.418 121.737  0.00  0.00    +0.000 OA
ATOM     15  H   UNL     1      -4.408   5.377 120.766  0.00  0.00    +0.000 HD
ENDBRANCH   7  14
ENDBRANCH   5  10
ENDBRANCH   1   5
BRANCH   2  16
ATOM     16  C   UNL     1      -7.581  -1.935 122.857  0.00  0.00    +0.000 C 
BRANCH  16  17
ATOM     17  C   UNL     1      -8.955  -2.519 123.169  0.00  0.00    +0.000 C 
BRANCH  17  18
ATOM     18  C   UNL     1      -8.910  -3.555 124.283  0.00  0.00    +0.000 C 
BRANCH  18  19
ATOM     19  C   UNL     1      -9.520  -2.978 125.561  0.00  0.00    +0.000 C 
BRANCH  19  20
ATOM     20  C   UNL     1      -8.695  -3.341 126.755  0.00  0.00    +0.000 C 
ATOM     21  C   UNL     1      -7.921  -2.457 127.400  0.00  0.00    +0.000 C 
BRANCH  21  22
ATOM     22  C   UNL     1      -7.057  -2.834 128.577  0.00  0.00    +0.000 C 
ATOM     23  C   UNL     1      -5.928  -1.821 128.777  0.00  0.00    +0.000 C 
ATOM     24  C   UNL     1      -7.898  -2.927 129.851  0.00  0.00    +0.000 C 
ENDBRANCH  21  22
ENDBRANCH  19  20
ENDBRANCH  18  19
ENDBRANCH  17  18
ENDBRANCH  16  17
ENDBRANCH   2  16
TORSDOF 10
ENDMDL
MODEL 7
REMARK VINA RESULT:      -6.4      3.767      8.349
REMARK  Name = Capsaicin
REMARK  13 active torsions:
REMARK  status: ('A' for Active; 'I' for Inactive)
REMARK    1  A    between atoms: C_1  and  O_2
REMARK    2  A    between atoms: O_2  and  C_3
REMARK    3  A    between atoms: C_4  and  O_5
REMARK    4  A    between atoms: C_8  and  C_9
REMARK    5  A    between atoms: C_9  and  N_10
REMARK    6  A    between atoms: C_11  and  C_13
REMARK    7  A    between atoms: C_13  and  C_14
REMARK    8  A    between atoms: C_14  and  C_15
REMARK    9  A    between atoms: C_15  and  C_16
REMARK   10  A    between atoms: C_16  and  C_17
REMARK   11  A    between atoms: C_18  and  C_19
REMARK   12  A    between atoms: C_19  and  C_20
REMARK   13  A    between atoms: C_19  and  C_21
REMARK                            x       y       z     vdW  Elec       q    Type
REMARK                         _______ _______ _______ _____ _____    ______ ____
ROOT
ATOM      1  N   UNL     1      -8.772  -3.664 126.109  0.00  0.00    +0.000 N 
ATOM      2  C   UNL     1      -9.340  -2.799 125.211  0.00  0.00    +0.000 C 
ATOM      3  O   UNL     1      -9.854  -1.737 125.552  0.00  0.00    +0.000 OA
ATOM      4  H   UNL     1      -8.375  -4.510 125.741  0.00  0.00    +0.000 HD
ENDROOT
BRANCH   1   5
ATOM      5  C   UNL     1      -8.744  -3.373 127.535  0.00  0.00    +0.000 C 
BRANCH   5  10
ATOM      6  C   UNL     1      -5.721  -2.929 129.877  0.00  0.00    +0.000 A 
ATOM      7  C   UNL     1      -4.885  -2.160 129.068  0.00  0.00    +0.000 A 
ATOM      8  C   UNL     1      -5.273  -1.795 127.784  0.00  0.00    +0.000 A 
ATOM      9  C   UNL     1      -6.521  -2.197 127.294  0.00  0.00    +0.000 A 
ATOM     10  C   UNL     1      -7.394  -2.961 128.088  0.00  0.00    +0.000 A 
ATOM     11  C   UNL     1      -6.966  -3.311 129.378  0.00  0.00    +0.000 A 
BRANCH   6  13
ATOM     12  C   UNL     1      -5.217  -4.653 131.429  0.00  0.00    +0.000 C 
ATOM     13  O   UNL     1      -5.251  -3.257 131.125  0.00  0.00    +0.000 OA
ENDBRANCH   6  13
BRANCH   7  14
ATOM     14  O   UNL     1      -3.663  -1.743 129.516  0.00  0.00    +0.000 OA
ATOM     15  H   UNL     1      -3.147  -2.559 129.672  0.00  0.00    +0.000 HD
ENDBRANCH   7  14
ENDBRANCH   5  10
ENDBRANCH   1   5
BRANCH   2  16
ATOM     16  C   UNL     1      -9.271  -3.280 123.769  0.00  0.00    +0.000 C 
BRANCH  16  17
ATOM     17  C   UNL     1      -8.462  -2.295 122.931  0.00  0.00    +0.000 C 
BRANCH  17  18
ATOM     18  C   UNL     1      -6.973  -2.348 123.242  0.00  0.00    +0.000 C 
BRANCH  18  19
ATOM     19  C   UNL     1      -6.506  -1.001 123.796  0.00  0.00    +0.000 C 
BRANCH  19  20
ATOM     20  C   UNL     1      -7.495   0.076 123.482  0.00  0.00    +0.000 C 
ATOM     21  C   UNL     1      -7.850   1.018 124.366  0.00  0.00    +0.000 C 
BRANCH  21  22
ATOM     22  C   UNL     1      -8.879   2.078 124.062  0.00  0.00    +0.000 C 
ATOM     23  C   UNL     1      -8.578   2.769 122.731  0.00  0.00    +0.000 C 
ATOM     24  C   UNL     1     -10.280   1.468 124.022  0.00  0.00    +0.000 C 
ENDBRANCH  21  22
ENDBRANCH  19  20
ENDBRANCH  18  19
ENDBRANCH  17  18
ENDBRANCH  16  17
ENDBRANCH   2  16
TORSDOF 10
ENDMDL
MODEL 8
REMARK VINA RESULT:      -6.4      3.396      5.332
REMARK  Name = Capsaicin
REMARK  13 active torsions:
REMARK  status: ('A' for Active; 'I' for Inactive)
REMARK    1  A    between atoms: C_1  and  O_2
REMARK    2  A    between atoms: O_2  and  C_3
REMARK    3  A    between atoms: C_4  and  O_5
REMARK    4  A    between atoms: C_8  and  C_9
REMARK    5  A    between atoms: C_9  and  N_10
REMARK    6  A    between atoms: C_11  and  C_13
REMARK    7  A    between atoms: C_13  and  C_14
REMARK    8  A    between atoms: C_14  and  C_15
REMARK    9  A    between atoms: C_15  and  C_16
REMARK   10  A    between atoms: C_16  and  C_17
REMARK   11  A    between atoms: C_18  and  C_19
REMARK   12  A    between atoms: C_19  and  C_20
REMARK   13  A    between atoms: C_19  and  C_21
REMARK                            x       y       z     vdW  Elec       q    Type
REMARK                         _______ _______ _______ _____ _____    ______ ____
ROOT
ATOM      1  N   UNL     1      -5.858  -0.936 126.976  0.00  0.00    +0.000 N 
ATOM      2  C   UNL     1      -5.685  -0.666 128.308  0.00  0.00    +0.000 C 
ATOM      3  O   UNL     1      -5.062   0.315 128.708  0.00  0.00    +0.000 OA
ATOM      4  H   UNL     1      -6.381  -1.760 126.740  0.00  0.00    +0.000 HD
ENDROOT
BRANCH   1   5
ATOM      5  C   UNL     1      -5.308  -0.069 125.944  0.00  0.00    +0.000 C 
BRANCH   5  10
ATOM      6  C   UNL     1      -8.221   2.304 125.105  0.00  0.00    +0.000 A 
ATOM      7  C   UNL     1      -7.554   3.529 125.094  0.00  0.00    +0.000 A 
ATOM      8  C   UNL     1      -6.193   3.603 125.363  0.00  0.00    +0.000 A 
ATOM      9  C   UNL     1      -5.475   2.434 125.642  0.00  0.00    +0.000 A 
ATOM     10  C   UNL     1      -6.112   1.181 125.648  0.00  0.00    +0.000 A 
ATOM     11  C   UNL     1      -7.488   1.148 125.374  0.00  0.00    +0.000 A 
BRANCH   6  13
ATOM     12  C   UNL     1     -10.060   1.268 124.019  0.00  0.00    +0.000 C 
ATOM     13  O   UNL     1      -9.569   2.326 124.845  0.00  0.00    +0.000 OA
ENDBRANCH   6  13
BRANCH   7  14
ATOM     14  O   UNL     1      -8.221   4.690 124.818  0.00  0.00    +0.000 OA
ATOM     15  H   UNL     1      -8.694   4.924 125.640  0.00  0.00    +0.000 HD
ENDBRANCH   7  14
ENDBRANCH   5  10
ENDBRANCH   1   5
BRANCH   2  16
ATOM     16  C   UNL     1      -6.333  -1.689 129.230  0.00  0.00    +0.000 C 
BRANCH  16  17
ATOM     17  C   UNL     1      -7.785  -1.910 128.821  0.00  0.00    +0.000 C 
BRANCH  17  18
ATOM     18  C   UNL     1      -8.295  -3.294 129.199  0.00  0.00    +0.000 C 
BRANCH  18  19
ATOM     19  C   UNL     1      -8.870  -3.995 127.967  0.00  0.00    +0.000 C 
BRANCH  19  20
ATOM     20  C   UNL     1      -8.822  -3.097 126.773  0.00  0.00    +0.000 C 
ATOM     21  C   UNL     1      -8.405  -3.510 125.567  0.00  0.00    +0.000 C 
BRANCH  21  22
ATOM     22  C   UNL     1      -8.317  -2.593 124.374  0.00  0.00    +0.000 C 
ATOM     23  C   UNL     1      -6.920  -2.636 123.751  0.00  0.00    +0.000 C 
ATOM     24  C   UNL     1      -9.362  -2.974 123.326  0.00  0.00    +0.000 C 
ENDBRANCH  21  22
ENDBRANCH  19  20
ENDBRANCH  18  19
ENDBRANCH  17  18
ENDBRANCH  16  17
ENDBRANCH   2  16
TORSDOF 10
ENDMDL
MODEL 9
REMARK VINA RESULT:      -6.4      2.507      4.617
REMARK  Name = Capsaicin
REMARK  13 active torsions:
REMARK  status: ('A' for Active; 'I' for Inactive)
REMARK    1  A    between atoms: C_1  and  O_2
REMARK    2  A    between atoms: O_2  and  C_3
REMARK    3  A    between atoms: C_4  and  O_5
REMARK    4  A    between atoms: C_8  and  C_9
REMARK    5  A    between atoms: C_9  and  N_10
REMARK    6  A    between atoms: C_11  and  C_13
REMARK    7  A    between atoms: C_13  and  C_14
REMARK    8  A    between atoms: C_14  and  C_15
REMARK    9  A    between atoms: C_15  and  C_16
REMARK   10  A    between atoms: C_16  and  C_17
REMARK   11  A    between atoms: C_18  and  C_19
REMARK   12  A    between atoms: C_19  and  C_20
REMARK   13  A    between atoms: C_19  and  C_21
REMARK                            x       y       z     vdW  Elec       q    Type
REMARK                         _______ _______ _______ _____ _____    ______ ____
ROOT
ATOM      1  N   UNL     1      -8.918  -0.796 125.723  0.00  0.00    +0.000 N 
ATOM      2  C   UNL     1      -9.140  -2.140 125.857  0.00  0.00    +0.000 C 
ATOM      3  O   UNL     1      -9.674  -2.813 124.979  0.00  0.00    +0.000 OA
ATOM      4  H   UNL     1      -8.475  -0.325 126.492  0.00  0.00    +0.000 HD
ENDROOT
BRANCH   1   5
ATOM      5  C   UNL     1      -9.306  -0.075 124.518  0.00  0.00    +0.000 C 
BRANCH   5  10
ATOM      6  C   UNL     1      -6.500   2.561 124.560  0.00  0.00    +0.000 A 
ATOM      7  C   UNL     1      -6.901   3.373 123.500  0.00  0.00    +0.000 A 
ATOM      8  C   UNL     1      -8.047   3.081 122.770  0.00  0.00    +0.000 A 
ATOM      9  C   UNL     1      -8.816   1.959 123.103  0.00  0.00    +0.000 A 
ATOM     10  C   UNL     1      -8.449   1.127 124.175  0.00  0.00    +0.000 A 
ATOM     11  C   UNL     1      -7.285   1.455 124.886  0.00  0.00    +0.000 A 
BRANCH   6  13
ATOM     12  C   UNL     1      -5.509   3.345 126.569  0.00  0.00    +0.000 C 
ATOM     13  O   UNL     1      -5.347   2.916 125.216  0.00  0.00    +0.000 OA
ENDBRANCH   6  13
BRANCH   7  14
ATOM     14  O   UNL     1      -6.179   4.481 123.151  0.00  0.00    +0.000 OA
ATOM     15  H   UNL     1      -5.948   4.358 122.210  0.00  0.00    +0.000 HD
ENDBRANCH   7  14
ENDBRANCH   5  10
ENDBRANCH   1   5
BRANCH   2  16
ATOM     16  C   UNL     1      -8.665  -2.710 127.186  0.00  0.00    +0.000 C 
BRANCH  16  17
ATOM     17  C   UNL     1      -7.739  -1.715 127.877  0.00  0.00    +0.000 C 
BRANCH  17  18
ATOM     18  C   UNL     1      -6.275  -2.126 127.798  0.00  0.00    +0.000 C 
BRANCH  18  19
ATOM     19  C   UNL     1      -5.489  -1.109 126.969  0.00  0.00    +0.000 C 
BRANCH  19  20
ATOM     20  C   UNL     1      -5.453  -1.511 125.529  0.00  0.00    +0.000 C 
ATOM     21  C   UNL     1      -5.694  -2.764 125.117  0.00  0.00    +0.000 C 
BRANCH  21  22
ATOM     22  C   UNL     1      -5.616  -3.176 123.669  0.00  0.00    +0.000 C 
ATOM     23  C   UNL     1      -6.026  -2.026 122.747  0.00  0.00    +0.000 C 
ATOM     24  C   UNL     1      -4.202  -3.639 123.319  0.00  0.00    +0.000 C 
ENDBRANCH  21  22
ENDBRANCH  19  20
ENDBRANCH  18  19
ENDBRANCH  17  18
ENDBRANCH  16  17
ENDBRANCH   2  16
TORSDOF 10
ENDMDL
