MODEL 1
REMARK VINA RESULT:      -5.2      0.000      0.000
REMARK  Name = Captopril
REMARK  6 active torsions:
REMARK  status: ('A' for Active; 'I' for Inactive)
REMARK    1  A    between atoms: C_1  and  C_2
REMARK    2  A    between atoms: C_2  and  C_3
REMARK    3  A    between atoms: C_2  and  C_5
REMARK    4  A    between atoms: C_3  and  S_4
REMARK    5  A    between atoms: C_11  and  C_12
REMARK    6  A    between atoms: C_12  and  O_13
REMARK                            x       y       z     vdW  Elec       q    Type
REMARK                         _______ _______ _______ _____ _____    ______ ____
ROOT
ATOM      1  C   UNL     1      -9.843   6.134 129.405  0.00  0.00    +0.000 C 
ATOM      2  O   UNL     1      -9.303   5.897 128.320  0.00  0.00    +0.000 OA
ATOM      3  N   UNL     1     -11.041   6.823 129.384  0.00  0.00    +0.000 N 
ATOM      4  C   UNL     1     -11.565   7.812 130.306  0.00  0.00    +0.000 C 
ATOM      5  C   UNL     1     -13.042   7.512 130.341  0.00  0.00    +0.000 C 
ATOM      6  C   UNL     1     -13.343   7.246 128.875  0.00  0.00    +0.000 C 
ATOM      7  C   UNL     1     -12.036   6.634 128.298  0.00  0.00    +0.000 C 
ENDROOT
BRANCH   1   9
ATOM      8  C   UNL     1      -8.207   6.457 131.371  0.00  0.00    +0.000 C 
ATOM      9  C   UNL     1      -9.260   5.570 130.730  0.00  0.00    +0.000 C 
BRANCH   9  10
ATOM     10  C   UNL     1      -8.655   4.156 130.497  0.00  0.00    +0.000 C 
BRANCH  10  11
ATOM     11  S   UNL     1      -9.627   2.739 131.160  0.00  0.00    +0.000 S 
ATOM     12  H   UNL     1     -10.779   3.385 131.395  0.00  0.00    +0.000 HD
ENDBRANCH  10  11
ENDBRANCH   9  10
ENDBRANCH   1   9
BRANCH   7  13
ATOM     13  C   UNL     1     -11.738   7.332 126.960  0.00  0.00    +0.000 C 
ATOM     14  O   UNL     1     -11.022   8.327 126.872  0.00  0.00    +0.000 OA
BRANCH  13  15
ATOM     15  O   UNL     1     -12.263   6.736 125.870  0.00  0.00    +0.000 OA
ATOM     16  H   UNL     1     -12.558   7.403 125.215  0.00  0.00    +0.000 HD
ENDBRANCH  13  15
ENDBRANCH   7  13
TORSDOF 5
ENDMDL
MODEL 2
REMARK VINA RESULT:      -5.1      9.321     10.384
REMARK  Name = Captopril
REMARK  6 active torsions:
REMARK  status: ('A' for Active; 'I' for Inactive)
REMARK    1  A    between atoms: C_1  and  C_2
REMARK    2  A    between atoms: C_2  and  C_3
REMARK    3  A    between atoms: C_2  and  C_5
REMARK    4  A    between atoms: C_3  and  S_4
REMARK    5  A    between atoms: C_11  and  C_12
REMARK    6  A    between atoms: C_12  and  O_13
REMARK                            x       y       z     vdW  Elec       q    Type
REMARK                         _______ _______ _______ _____ _____    ______ ____
ROOT
ATOM      1  C   UNL     1      -8.583  -2.598 126.080  0.00  0.00    +0.000 C 
ATOM      2  O   UNL     1      -9.765  -2.241 126.108  0.00  0.00    +0.000 OA
ATOM      3  N   UNL     1      -7.933  -2.557 124.861  0.00  0.00    +0.000 N 
ATOM      4  C   UNL     1      -6.931  -3.447 124.307  0.00  0.00    +0.000 C 
ATOM      5  C   UNL     1      -6.021  -2.519 123.542  0.00  0.00    +0.000 C 
ATOM      6  C   UNL     1      -7.017  -1.587 122.872  0.00  0.00    +0.000 C 
ATOM      7  C   UNL     1      -8.219  -1.504 123.854  0.00  0.00    +0.000 C 
ENDROOT
BRANCH   1   9
ATOM      8  C   UNL     1      -8.677  -3.676 128.420  0.00  0.00    +0.000 C 
ATOM      9  C   UNL     1      -7.825  -2.959 127.387  0.00  0.00    +0.000 C 
BRANCH   9  10
ATOM     10  C   UNL     1      -7.218  -1.681 128.031  0.00  0.00    +0.000 C 
BRANCH  10  11
ATOM     11  S   UNL     1      -5.627  -1.089 127.315  0.00  0.00    +0.000 S 
ATOM     12  H   UNL     1      -5.497  -2.005 126.344  0.00  0.00    +0.000 HD
ENDBRANCH  10  11
ENDBRANCH   9  10
ENDBRANCH   1   9
BRANCH   7  13
ATOM     13  C   UNL     1      -9.510  -1.664 123.035  0.00  0.00    +0.000 C 
ATOM     14  O   UNL     1      -9.967  -0.769 122.328  0.00  0.00    +0.000 OA
BRANCH  13  15
ATOM     15  O   UNL     1     -10.079  -2.886 123.089  0.00  0.00    +0.000 OA
ATOM     16  H   UNL     1     -11.038  -2.835 122.893  0.00  0.00    +0.000 HD
ENDBRANCH  13  15
ENDBRANCH   7  13
TORSDOF 5
ENDMDL
MODEL 3
REMARK VINA RESULT:      -5.1      3.492      5.322
REMARK  Name = Captopril
REMARK  6 active torsions:
REMARK  status: ('A' for Active; 'I' for Inactive)
REMARK    1  A    between atoms: C_1  and  C_2
REMARK    2  A    between atoms: C_2  and  C_3
REMARK    3  A    between atoms: C_2  and  C_5
REMARK    4  A    between atoms: C_3  and  S_4
REMARK    5  A    between atoms: C_11  and  C_12
REMARK    6  A    between atoms: C_12  and  O_13
REMARK                            x       y       z     vdW  Elec       q    Type
REMARK                         _______ _______ _______ _____ _____    ______ ____
ROOT
ATOM      1  C   UNL     1     -12.516   7.383 130.272  0.00  0.00    +0.000 C 
ATOM      2  O   UNL     1     -12.870   7.209 131.443  0.00  0.00    +0.000 OA
ATOM      3  N   UNL     1     -11.233   7.000 129.930  0.00  0.00    +0.000 N 
ATOM      4  C   UNL     1     -10.292   7.606 129.008  0.00  0.00    +0.000 C 
ATOM      5  C   UNL     1      -9.595   6.422 128.388  0.00  0.00    +0.000 C 
ATOM      6  C   UNL     1      -9.382   5.518 129.592  0.00  0.00    +0.000 C 
ATOM      7  C   UNL     1     -10.582   5.810 130.535  0.00  0.00    +0.000 C 
ENDROOT
BRANCH   1   9
ATOM      8  C   UNL     1     -13.632   7.005 127.979  0.00  0.00    +0.000 C 
ATOM      9  C   UNL     1     -13.517   7.899 129.202  0.00  0.00    +0.000 C 
BRANCH   9  10
ATOM     10  C   UNL     1     -13.129   9.334 128.745  0.00  0.00    +0.000 C 
BRANCH  10  11
ATOM     11  S   UNL     1     -13.433  10.683 129.963  0.00  0.00    +0.000 S 
ATOM     12  H   UNL     1     -14.564  11.172 129.433  0.00  0.00    +0.000 HD
ENDBRANCH  10  11
ENDBRANCH   9  10
ENDBRANCH   1   9
BRANCH   7  13
ATOM     13  C   UNL     1     -10.033   5.975 131.962  0.00  0.00    +0.000 C 
ATOM     14  O   UNL     1      -8.968   6.538 132.206  0.00  0.00    +0.000 OA
BRANCH  13  15
ATOM     15  O   UNL     1     -10.836   5.517 132.945  0.00  0.00    +0.000 OA
ATOM     16  H   UNL     1     -11.715   5.265 132.590  0.00  0.00    +0.000 HD
ENDBRANCH  13  15
ENDBRANCH   7  13
TORSDOF 5
ENDMDL
MODEL 4
REMARK VINA RESULT:      -5.1      2.691      4.903
REMARK  Name = Captopril
REMARK  6 active torsions:
REMARK  status: ('A' for Active; 'I' for Inactive)
REMARK    1  A    between atoms: C_1  and  C_2
REMARK    2  A    between atoms: C_2  and  C_3
REMARK    3  A    between atoms: C_2  and  C_5
REMARK    4  A    between atoms: C_3  and  S_4
REMARK    5  A    between atoms: C_11  and  C_12
REMARK    6  A    between atoms: C_12  and  O_13
REMARK                            x       y       z     vdW  Elec       q    Type
REMARK                         _______ _______ _______ _____ _____    ______ ____
ROOT
ATOM      1  C   UNL     1     -11.202   6.350 129.716  0.00  0.00    +0.000 C 
ATOM      2  O   UNL     1     -11.942   5.439 129.332  0.00  0.00    +0.000 OA
ATOM      3  N   UNL     1      -9.992   5.993 130.282  0.00  0.00    +0.000 N 
ATOM      4  C   UNL     1      -9.256   6.600 131.373  0.00  0.00    +0.000 C 
ATOM      5  C   UNL     1      -7.816   6.446 130.955  0.00  0.00    +0.000 C 
ATOM      6  C   UNL     1      -7.801   5.032 130.398  0.00  0.00    +0.000 C 
ATOM      7  C   UNL     1      -9.222   4.814 129.808  0.00  0.00    +0.000 C 
ENDROOT
BRANCH   1   9
ATOM      8  C   UNL     1     -13.037   8.076 129.170  0.00  0.00    +0.000 C 
ATOM      9  C   UNL     1     -11.565   7.838 129.460  0.00  0.00    +0.000 C 
BRANCH   9  10
ATOM     10  C   UNL     1     -10.720   8.407 128.286  0.00  0.00    +0.000 C 
BRANCH  10  11
ATOM     11  S   UNL     1     -10.992   7.628 126.639  0.00  0.00    +0.000 S 
ATOM     12  H   UNL     1      -9.709   7.454 126.291  0.00  0.00    +0.000 HD
ENDBRANCH  10  11
ENDBRANCH   9  10
ENDBRANCH   1   9
BRANCH   7  13
ATOM     13  C   UNL     1      -9.719   3.434 130.271  0.00  0.00    +0.000 C 
ATOM     14  O   UNL     1      -9.205   2.381 129.901  0.00  0.00    +0.000 OA
BRANCH  13  15
ATOM     15  O   UNL     1     -10.723   3.456 131.173  0.00  0.00    +0.000 OA
ATOM     16  H   UNL     1     -11.534   3.048 130.803  0.00  0.00    +0.000 HD
ENDBRANCH  13  15
ENDBRANCH   7  13
TORSDOF 5
ENDMDL
MODEL 5
REMARK VINA RESULT:      -4.9      8.368     10.013
REMARK  Name = Captopril
REMARK  6 active torsions:
REMARK  status: ('A' for Active; 'I' for Inactive)
REMARK    1  A    between atoms: C_1  and  C_2
REMARK    2  A    between atoms: C_2  and  C_3
REMARK    3  A    between atoms: C_2  and  C_5
REMARK    4  A    between atoms: C_3  and  S_4
REMARK    5  A    between atoms: C_11  and  C_12
REMARK    6  A    between atoms: C_12  and  O_13
REMARK                            x       y       z     vdW  Elec       q    Type
REMARK                         _______ _______ _______ _____ _____    ______ ____
ROOT
ATOM      1  C   UNL     1      -8.613  -0.323 125.494  0.00  0.00    +0.000 C 
ATOM      2  O   UNL     1      -9.787  -0.682 125.364  0.00  0.00    +0.000 OA
ATOM      3  N   UNL     1      -7.627  -1.219 125.126  0.00  0.00    +0.000 N 
ATOM      4  C   UNL     1      -6.324  -1.467 125.713  0.00  0.00    +0.000 C 
ATOM      5  C   UNL     1      -5.451  -1.759 124.519  0.00  0.00    +0.000 C 
ATOM      6  C   UNL     1      -6.358  -2.642 123.676  0.00  0.00    +0.000 C 
ATOM      7  C   UNL     1      -7.800  -2.150 123.981  0.00  0.00    +0.000 C 
ENDROOT
BRANCH   1   9
ATOM      8  C   UNL     1      -8.617   1.434 127.381  0.00  0.00    +0.000 C 
ATOM      9  C   UNL     1      -8.263   1.124 125.936  0.00  0.00    +0.000 C 
BRANCH   9  10
ATOM     10  C   UNL     1      -8.966   2.158 125.011  0.00  0.00    +0.000 C 
BRANCH  10  11
ATOM     11  S   UNL     1      -8.622   1.999 123.208  0.00  0.00    +0.000 S 
ATOM     12  H   UNL     1      -9.223   0.818 122.999  0.00  0.00    +0.000 HD
ENDBRANCH  10  11
ENDBRANCH   9  10
ENDBRANCH   1   9
BRANCH   7  13
ATOM     13  C   UNL     1      -8.680  -3.387 124.224  0.00  0.00    +0.000 C 
ATOM     14  O   UNL     1      -8.282  -4.380 124.828  0.00  0.00    +0.000 OA
BRANCH  13  15
ATOM     15  O   UNL     1      -9.952  -3.284 123.786  0.00  0.00    +0.000 OA
ATOM     16  H   UNL     1     -10.524  -2.871 124.467  0.00  0.00    +0.000 HD
ENDBRANCH  13  15
ENDBRANCH   7  13
TORSDOF 5
ENDMDL
MODEL 6
REMARK VINA RESULT:      -4.9      1.376      1.998
REMARK  Name = Captopril
REMARK  6 active torsions:
REMARK  status: ('A' for Active; 'I' for Inactive)
REMARK    1  A    between atoms: C_1  and  C_2
REMARK    2  A    between atoms: C_2  and  C_3
REMARK    3  A    between atoms: C_2  and  C_5
REMARK    4  A    between atoms: C_3  and  S_4
REMARK    5  A    between atoms: C_11  and  C_12
REMARK    6  A    between atoms: C_12  and  O_13
REMARK                            x       y       z     vdW  Elec       q    Type
REMARK                         _______ _______ _______ _____ _____    ______ ____
ROOT
ATOM      1  C   UNL     1      -9.332   5.208 129.585  0.00  0.00    +0.000 C 
ATOM      2  O   UNL     1      -8.924   5.416 128.438  0.00  0.00    +0.000 OA
ATOM      3  N   UNL     1     -10.308   6.054 130.079  0.00  0.00    +0.000 N 
ATOM      4  C   UNL     1     -10.511   6.562 131.421  0.00  0.00    +0.000 C 
ATOM      5  C   UNL     1     -12.011   6.595 131.561  0.00  0.00    +0.000 C 
ATOM      6  C   UNL     1     -12.440   7.136 130.207  0.00  0.00    +0.000 C 
ATOM      7  C   UNL     1     -11.368   6.622 129.207  0.00  0.00    +0.000 C 
ENDROOT
BRANCH   1   9
ATOM      8  C   UNL     1      -7.804   3.134 129.681  0.00  0.00    +0.000 C 
ATOM      9  C   UNL     1      -8.854   3.970 130.392  0.00  0.00    +0.000 C 
BRANCH   9  10
ATOM     10  C   UNL     1     -10.063   3.061 130.755  0.00  0.00    +0.000 C 
BRANCH  10  11
ATOM     11  S   UNL     1      -9.729   1.712 131.966  0.00  0.00    +0.000 S 
ATOM     12  H   UNL     1      -9.631   0.693 131.099  0.00  0.00    +0.000 HD
ENDBRANCH  10  11
ENDBRANCH   9  10
ENDBRANCH   1   9
BRANCH   7  13
ATOM     13  C   UNL     1     -10.961   7.798 128.304  0.00  0.00    +0.000 C 
ATOM     14  O   UNL     1     -11.683   8.231 127.408  0.00  0.00    +0.000 OA
BRANCH  13  15
ATOM     15  O   UNL     1      -9.779   8.374 128.604  0.00  0.00    +0.000 OA
ATOM     16  H   UNL     1      -9.820   9.345 128.477  0.00  0.00    +0.000 HD
ENDBRANCH  13  15
ENDBRANCH   7  13
TORSDOF 5
ENDMDL
MODEL 7
REMARK VINA RESULT:      -4.8      8.857     10.403
REMARK  Name = Captopril
REMARK  6 active torsions:
REMARK  status: ('A' for Active; 'I' for Inactive)
REMARK    1  A    between atoms: C_1  and  C_2
REMARK    2  A    between atoms: C_2  and  C_3
REMARK    3  A    between atoms: C_2  and  C_5
REMARK    4  A    between atoms: C_3  and  S_4
REMARK    5  A    between atoms: C_11  and  C_12
REMARK    6  A    between atoms: C_12  and  O_13
REMARK                            x       y       z     vdW  Elec       q    Type
REMARK                         _______ _______ _______ _____ _____    ______ ____
ROOT
ATOM      1  C   UNL     1      -8.033   0.002 123.674  0.00  0.00    +0.000 C 
ATOM      2  O   UNL     1      -6.905   0.487 123.538  0.00  0.00    +0.000 OA
ATOM      3  N   UNL     1      -8.140  -1.376 123.659  0.00  0.00    +0.000 N 
ATOM      4  C   UNL     1      -9.185  -2.226 123.122  0.00  0.00    +0.000 C 
ATOM      5  C   UNL     1      -9.255  -3.364 124.108  0.00  0.00    +0.000 C 
ATOM      6  C   UNL     1      -7.783  -3.632 124.381  0.00  0.00    +0.000 C 
ATOM      7  C   UNL     1      -7.085  -2.252 124.231  0.00  0.00    +0.000 C 
ENDROOT
BRANCH   1   9
ATOM      8  C   UNL     1      -9.010   2.386 123.759  0.00  0.00    +0.000 C 
ATOM      9  C   UNL     1      -9.261   0.904 123.975  0.00  0.00    +0.000 C 
BRANCH   9  10
ATOM     10  C   UNL     1      -9.752   0.681 125.433  0.00  0.00    +0.000 C 
BRANCH  10  11
ATOM     11  S   UNL     1      -8.557   1.117 126.766  0.00  0.00    +0.000 S 
ATOM     12  H   UNL     1      -9.416   1.704 127.613  0.00  0.00    +0.000 HD
ENDBRANCH  10  11
ENDBRANCH   9  10
ENDBRANCH   1   9
BRANCH   7  13
ATOM     13  C   UNL     1      -5.819  -2.452 123.383  0.00  0.00    +0.000 C 
ATOM     14  O   UNL     1      -4.802  -2.988 123.818  0.00  0.00    +0.000 OA
BRANCH  13  15
ATOM     15  O   UNL     1      -5.919  -2.058 122.096  0.00  0.00    +0.000 OA
ATOM     16  H   UNL     1      -5.385  -2.635 121.511  0.00  0.00    +0.000 HD
ENDBRANCH  13  15
ENDBRANCH   7  13
TORSDOF 5
ENDMDL
MODEL 8
REMARK VINA RESULT:      -4.6      9.007      9.939
REMARK  Name = Captopril
REMARK  6 active torsions:
REMARK  status: ('A' for Active; 'I' for Inactive)
REMARK    1  A    between atoms: C_1  and  C_2
REMARK    2  A    between atoms: C_2  and  C_3
REMARK    3  A    between atoms: C_2  and  C_5
REMARK    4  A    between atoms: C_3  and  S_4
REMARK    5  A    between atoms: C_11  and  C_12
REMARK    6  A    between atoms: C_12  and  O_13
REMARK                            x       y       z     vdW  Elec       q    Type
REMARK                         _______ _______ _______ _____ _____    ______ ____
ROOT
ATOM      1  C   UNL     1      -6.757  -0.887 124.383  0.00  0.00    +0.000 C 
ATOM      2  O   UNL     1      -6.792   0.293 124.022  0.00  0.00    +0.000 OA
ATOM      3  N   UNL     1      -7.908  -1.636 124.226  0.00  0.00    +0.000 N 
ATOM      4  C   UNL     1      -8.463  -2.682 125.064  0.00  0.00    +0.000 C 
ATOM      5  C   UNL     1      -9.054  -3.650 124.071  0.00  0.00    +0.000 C 
ATOM      6  C   UNL     1      -9.709  -2.712 123.070  0.00  0.00    +0.000 C 
ATOM      7  C   UNL     1      -8.826  -1.433 123.076  0.00  0.00    +0.000 C 
ENDROOT
BRANCH   1   9
ATOM      8  C   UNL     1      -5.058  -2.813 124.145  0.00  0.00    +0.000 C 
ATOM      9  C   UNL     1      -5.434  -1.535 124.877  0.00  0.00    +0.000 C 
BRANCH   9  10
ATOM     10  C   UNL     1      -5.512  -1.830 126.401  0.00  0.00    +0.000 C 
BRANCH  10  11
ATOM     11  S   UNL     1      -6.111  -0.449 127.465  0.00  0.00    +0.000 S 
ATOM     12  H   UNL     1      -6.469  -1.171 128.537  0.00  0.00    +0.000 HD
ENDBRANCH  10  11
ENDBRANCH   9  10
ENDBRANCH   1   9
BRANCH   7  13
ATOM     13  C   UNL     1      -9.761  -0.214 123.146  0.00  0.00    +0.000 C 
ATOM     14  O   UNL     1     -10.478   0.131 122.209  0.00  0.00    +0.000 OA
BRANCH  13  15
ATOM     15  O   UNL     1      -9.794   0.419 124.337  0.00  0.00    +0.000 OA
ATOM     16  H   UNL     1     -10.130  -0.176 125.040  0.00  0.00    +0.000 HD
ENDBRANCH  13  15
ENDBRANCH   7  13
TORSDOF 5
ENDMDL
MODEL 9
REMARK VINA RESULT:      -4.6      8.230     10.056
REMARK  Name = Captopril
REMARK  6 active torsions:
REMARK  status: ('A' for Active; 'I' for Inactive)
REMARK    1  A    between atoms: C_1  and  C_2
REMARK    2  A    between atoms: C_2  and  C_3
REMARK    3  A    between atoms: C_2  and  C_5
REMARK    4  A    between atoms: C_3  and  S_4
REMARK    5  A    between atoms: C_11  and  C_12
REMARK    6  A    between atoms: C_12  and  O_13
REMARK                            x       y       z     vdW  Elec       q    Type
REMARK                         _______ _______ _______ _____ _____    ______ ____
ROOT
ATOM      1  C   UNL     1      -9.221   0.095 124.636  0.00  0.00    +0.000 C 
ATOM      2  O   UNL     1      -9.725  -0.096 125.747  0.00  0.00    +0.000 OA
ATOM      3  N   UNL     1      -8.132  -0.681 124.286  0.00  0.00    +0.000 N 
ATOM      4  C   UNL     1      -6.953  -0.342 123.514  0.00  0.00    +0.000 C 
ATOM      5  C   UNL     1      -6.667  -1.602 122.737  0.00  0.00    +0.000 C 
ATOM      6  C   UNL     1      -6.907  -2.677 123.786  0.00  0.00    +0.000 C 
ATOM      7  C   UNL     1      -8.009  -2.098 124.715  0.00  0.00    +0.000 C 
ENDROOT
BRANCH   1   9
ATOM      8  C   UNL     1     -10.224   0.458 122.288  0.00  0.00    +0.000 C 
ATOM      9  C   UNL     1      -9.865   1.084 123.625  0.00  0.00    +0.000 C 
BRANCH   9  10
ATOM     10  C   UNL     1      -8.923   2.296 123.379  0.00  0.00    +0.000 C 
BRANCH  10  11
ATOM     11  S   UNL     1      -8.326   3.178 124.882  0.00  0.00    +0.000 S 
ATOM     12  H   UNL     1      -8.721   2.285 125.801  0.00  0.00    +0.000 HD
ENDBRANCH  10  11
ENDBRANCH   9  10
ENDBRANCH   1   9
BRANCH   7  13
ATOM     13  C   UNL     1      -7.577  -2.343 126.170  0.00  0.00    +0.000 C 
ATOM     14  O   UNL     1      -6.403  -2.309 126.532  0.00  0.00    +0.000 OA
BRANCH  13  15
ATOM     15  O   UNL     1      -8.585  -2.533 127.046  0.00  0.00    +0.000 OA
ATOM     16  H   UNL     1      -8.475  -1.962 127.836  0.00  0.00    +0.000 HD
ENDBRANCH  13  15
ENDBRANCH   7  13
TORSDOF 5
ENDMDL
