MODEL 1
REMARK VINA RESULT:      -6.1      0.000      0.000
REMARK  Name = Carboxin
REMARK  3 active torsions:
REMARK  status: ('A' for Active; 'I' for Inactive)
REMARK    1  A    between atoms: C_1  and  C_2
REMARK    2  A    between atoms: C_3  and  C_8
REMARK    3  A    between atoms: N_10  and  C_11
REMARK                            x       y       z     vdW  Elec       q    Type
REMARK                         _______ _______ _______ _____ _____    ______ ____
ROOT
ATOM      1  C   UNL     1      -7.815   2.632 123.189  0.00  0.00    +0.000 C 
ATOM      2  O   UNL     1      -8.283   3.761 123.421  0.00  0.00    +0.000 OA
ATOM      3  N   UNL     1      -6.952   2.446 122.149  0.00  0.00    +0.000 N 
ATOM      4  H   UNL     1      -6.797   1.549 121.736  0.00  0.00    +0.000 HD
ENDROOT
BRANCH   1   7
ATOM      5  C   UNL     1     -10.157   0.477 122.534  0.00  0.00    +0.000 C 
ATOM      6  C   UNL     1      -9.262   0.532 123.748  0.00  0.00    +0.000 C 
ATOM      7  C   UNL     1      -8.285   1.436 124.011  0.00  0.00    +0.000 C 
ATOM      8  S   UNL     1      -7.312   1.367 125.460  0.00  0.00    +0.000 S 
ATOM      9  C   UNL     1      -7.822  -0.090 126.304  0.00  0.00    +0.000 C 
ATOM     10  C   UNL     1      -8.977  -0.890 125.761  0.00  0.00    +0.000 C 
ATOM     11  O   UNL     1      -9.623  -0.515 124.559  0.00  0.00    +0.000 OA
ENDBRANCH   1   7
BRANCH   3  12
ATOM     12  C   UNL     1      -6.390   3.486 121.411  0.00  0.00    +0.000 A 
ATOM     13  C   UNL     1      -6.997   3.809 120.199  0.00  0.00    +0.000 A 
ATOM     14  C   UNL     1      -6.424   4.781 119.394  0.00  0.00    +0.000 A 
ATOM     15  C   UNL     1      -5.274   5.443 119.827  0.00  0.00    +0.000 A 
ATOM     16  C   UNL     1      -4.665   5.104 121.035  0.00  0.00    +0.000 A 
ATOM     17  C   UNL     1      -5.222   4.117 121.829  0.00  0.00    +0.000 A 
ENDBRANCH   3  12
TORSDOF 2
ENDMDL
MODEL 2
REMARK VINA RESULT:      -6.1      8.728      9.607
REMARK  Name = Carboxin
REMARK  3 active torsions:
REMARK  status: ('A' for Active; 'I' for Inactive)
REMARK    1  A    between atoms: C_1  and  C_2
REMARK    2  A    between atoms: C_3  and  C_8
REMARK    3  A    between atoms: N_10  and  C_11
REMARK                            x       y       z     vdW  Elec       q    Type
REMARK                         _______ _______ _______ _____ _____    ______ ____
ROOT
ATOM      1  C   UNL     1     -10.100   5.821 129.787  0.00  0.00    +0.000 C 
ATOM      2  O   UNL     1      -9.622   6.155 128.688  0.00  0.00    +0.000 OA
ATOM      3  N   UNL     1     -11.289   6.341 130.206  0.00  0.00    +0.000 N 
ATOM      4  H   UNL     1     -11.557   6.355 131.168  0.00  0.00    +0.000 HD
ENDROOT
BRANCH   1   7
ATOM      5  C   UNL     1      -7.436   6.459 131.534  0.00  0.00    +0.000 C 
ATOM      6  C   UNL     1      -8.192   5.156 131.440  0.00  0.00    +0.000 C 
ATOM      7  C   UNL     1      -9.305   4.900 130.708  0.00  0.00    +0.000 C 
ATOM      8  S   UNL     1     -10.086   3.337 130.706  0.00  0.00    +0.000 S 
ATOM      9  C   UNL     1      -9.194   2.362 131.868  0.00  0.00    +0.000 C 
ATOM     10  C   UNL     1      -7.959   2.932 132.515  0.00  0.00    +0.000 C 
ATOM     11  O   UNL     1      -7.536   4.254 132.240  0.00  0.00    +0.000 OA
ENDBRANCH   1   7
BRANCH   3  12
ATOM     12  C   UNL     1     -12.131   7.104 129.398  0.00  0.00    +0.000 A 
ATOM     13  C   UNL     1     -12.095   8.487 129.567  0.00  0.00    +0.000 A 
ATOM     14  C   UNL     1     -12.974   9.278 128.844  0.00  0.00    +0.000 A 
ATOM     15  C   UNL     1     -13.849   8.681 127.935  0.00  0.00    +0.000 A 
ATOM     16  C   UNL     1     -13.887   7.296 127.782  0.00  0.00    +0.000 A 
ATOM     17  C   UNL     1     -13.028   6.502 128.521  0.00  0.00    +0.000 A 
ENDBRANCH   3  12
TORSDOF 2
ENDMDL
MODEL 3
REMARK VINA RESULT:      -6.1      8.688      9.817
REMARK  Name = Carboxin
REMARK  3 active torsions:
REMARK  status: ('A' for Active; 'I' for Inactive)
REMARK    1  A    between atoms: C_1  and  C_2
REMARK    2  A    between atoms: C_3  and  C_8
REMARK    3  A    between atoms: N_10  and  C_11
REMARK                            x       y       z     vdW  Elec       q    Type
REMARK                         _______ _______ _______ _____ _____    ______ ____
ROOT
ATOM      1  C   UNL     1     -10.165   4.133 130.919  0.00  0.00    +0.000 C 
ATOM      2  O   UNL     1     -11.040   3.798 130.101  0.00  0.00    +0.000 OA
ATOM      3  N   UNL     1      -9.959   5.451 131.204  0.00  0.00    +0.000 N 
ATOM      4  H   UNL     1      -9.102   5.786 131.594  0.00  0.00    +0.000 HD
ENDROOT
BRANCH   1   7
ATOM      5  C   UNL     1      -9.244   3.746 134.011  0.00  0.00    +0.000 C 
ATOM      6  C   UNL     1      -8.866   2.901 132.819  0.00  0.00    +0.000 C 
ATOM      7  C   UNL     1      -9.257   3.070 131.531  0.00  0.00    +0.000 C 
ATOM      8  S   UNL     1      -8.748   1.998 130.250  0.00  0.00    +0.000 S 
ATOM      9  C   UNL     1      -7.804   0.738 131.034  0.00  0.00    +0.000 C 
ATOM     10  C   UNL     1      -7.514   0.844 132.509  0.00  0.00    +0.000 C 
ATOM     11  O   UNL     1      -8.032   1.912 133.278  0.00  0.00    +0.000 OA
ENDBRANCH   1   7
BRANCH   3  12
ATOM     12  C   UNL     1     -10.798   6.478 130.776  0.00  0.00    +0.000 A 
ATOM     13  C   UNL     1     -11.966   6.692 131.504  0.00  0.00    +0.000 A 
ATOM     14  C   UNL     1     -12.870   7.648 131.066  0.00  0.00    +0.000 A 
ATOM     15  C   UNL     1     -12.575   8.403 129.929  0.00  0.00    +0.000 A 
ATOM     16  C   UNL     1     -11.410   8.173 129.199  0.00  0.00    +0.000 A 
ATOM     17  C   UNL     1     -10.519   7.202 129.621  0.00  0.00    +0.000 A 
ENDBRANCH   3  12
TORSDOF 2
ENDMDL
MODEL 4
REMARK VINA RESULT:      -5.9      8.472      9.695
REMARK  Name = Carboxin
REMARK  3 active torsions:
REMARK  status: ('A' for Active; 'I' for Inactive)
REMARK    1  A    between atoms: C_1  and  C_2
REMARK    2  A    between atoms: C_3  and  C_8
REMARK    3  A    between atoms: N_10  and  C_11
REMARK                            x       y       z     vdW  Elec       q    Type
REMARK                         _______ _______ _______ _____ _____    ______ ____
ROOT
ATOM      1  C   UNL     1     -10.182   5.906 130.436  0.00  0.00    +0.000 C 
ATOM      2  O   UNL     1      -9.533   6.474 129.539  0.00  0.00    +0.000 OA
ATOM      3  N   UNL     1     -11.489   6.234 130.652  0.00  0.00    +0.000 N 
ATOM      4  H   UNL     1     -11.950   6.050 131.519  0.00  0.00    +0.000 HD
ENDROOT
BRANCH   1   7
ATOM      5  C   UNL     1      -9.275   2.842 129.844  0.00  0.00    +0.000 C 
ATOM      6  C   UNL     1      -9.103   3.629 131.121  0.00  0.00    +0.000 C 
ATOM      7  C   UNL     1      -9.485   4.909 131.357  0.00  0.00    +0.000 C 
ATOM      8  S   UNL     1      -9.207   5.701 132.889  0.00  0.00    +0.000 S 
ATOM      9  C   UNL     1      -8.303   4.546 133.861  0.00  0.00    +0.000 C 
ATOM     10  C   UNL     1      -8.050   3.164 133.318  0.00  0.00    +0.000 C 
ATOM     11  O   UNL     1      -8.484   2.799 132.022  0.00  0.00    +0.000 OA
ENDBRANCH   1   7
BRANCH   3  12
ATOM     12  C   UNL     1     -12.235   7.051 129.805  0.00  0.00    +0.000 A 
ATOM     13  C   UNL     1     -12.933   6.429 128.772  0.00  0.00    +0.000 A 
ATOM     14  C   UNL     1     -13.621   7.210 127.856  0.00  0.00    +0.000 A 
ATOM     15  C   UNL     1     -13.633   8.598 128.007  0.00  0.00    +0.000 A 
ATOM     16  C   UNL     1     -12.920   9.213 129.036  0.00  0.00    +0.000 A 
ATOM     17  C   UNL     1     -12.213   8.436 129.937  0.00  0.00    +0.000 A 
ENDBRANCH   3  12
TORSDOF 2
ENDMDL
MODEL 5
REMARK VINA RESULT:      -5.8      8.867      9.648
REMARK  Name = Carboxin
REMARK  3 active torsions:
REMARK  status: ('A' for Active; 'I' for Inactive)
REMARK    1  A    between atoms: C_1  and  C_2
REMARK    2  A    between atoms: C_3  and  C_8
REMARK    3  A    between atoms: N_10  and  C_11
REMARK                            x       y       z     vdW  Elec       q    Type
REMARK                         _______ _______ _______ _____ _____    ______ ____
ROOT
ATOM      1  C   UNL     1      -9.584   5.022 130.811  0.00  0.00    +0.000 C 
ATOM      2  O   UNL     1      -9.726   4.508 129.687  0.00  0.00    +0.000 OA
ATOM      3  N   UNL     1     -10.017   6.294 131.045  0.00  0.00    +0.000 N 
ATOM      4  H   UNL     1      -9.664   6.849 131.797  0.00  0.00    +0.000 HD
ENDROOT
BRANCH   1   7
ATOM      5  C   UNL     1     -10.048   1.993 131.891  0.00  0.00    +0.000 C 
ATOM      6  C   UNL     1      -9.022   2.996 132.360  0.00  0.00    +0.000 C 
ATOM      7  C   UNL     1      -8.836   4.259 131.901  0.00  0.00    +0.000 C 
ATOM      8  S   UNL     1      -7.592   5.311 132.532  0.00  0.00    +0.000 S 
ATOM      9  C   UNL     1      -6.698   4.340 133.695  0.00  0.00    +0.000 C 
ATOM     10  C   UNL     1      -7.175   2.948 134.015  0.00  0.00    +0.000 C 
ATOM     11  O   UNL     1      -8.299   2.394 133.359  0.00  0.00    +0.000 OA
ENDBRANCH   1   7
BRANCH   3  12
ATOM     12  C   UNL     1     -10.795   7.027 130.151  0.00  0.00    +0.000 A 
ATOM     13  C   UNL     1     -12.175   6.848 130.212  0.00  0.00    +0.000 A 
ATOM     14  C   UNL     1     -12.982   7.492 129.287  0.00  0.00    +0.000 A 
ATOM     15  C   UNL     1     -12.402   8.337 128.339  0.00  0.00    +0.000 A 
ATOM     16  C   UNL     1     -11.019   8.499 128.276  0.00  0.00    +0.000 A 
ATOM     17  C   UNL     1     -10.210   7.837 129.183  0.00  0.00    +0.000 A 
ENDBRANCH   3  12
TORSDOF 2
ENDMDL
MODEL 6
REMARK VINA RESULT:      -5.6      8.464      9.597
REMARK  Name = Carboxin
REMARK  3 active torsions:
REMARK  status: ('A' for Active; 'I' for Inactive)
REMARK    1  A    between atoms: C_1  and  C_2
REMARK    2  A    between atoms: C_3  and  C_8
REMARK    3  A    between atoms: N_10  and  C_11
REMARK                            x       y       z     vdW  Elec       q    Type
REMARK                         _______ _______ _______ _____ _____    ______ ____
ROOT
ATOM      1  C   UNL     1      -9.283   5.651 131.144  0.00  0.00    +0.000 C 
ATOM      2  O   UNL     1      -9.033   6.703 131.761  0.00  0.00    +0.000 OA
ATOM      3  N   UNL     1     -10.327   5.600 130.267  0.00  0.00    +0.000 N 
ATOM      4  H   UNL     1     -10.752   4.738 129.993  0.00  0.00    +0.000 HD
ENDROOT
BRANCH   1   7
ATOM      5  C   UNL     1      -9.237   3.827 133.832  0.00  0.00    +0.000 C 
ATOM      6  C   UNL     1      -8.449   3.623 132.561  0.00  0.00    +0.000 C 
ATOM      7  C   UNL     1      -8.476   4.391 131.443  0.00  0.00    +0.000 C 
ATOM      8  S   UNL     1      -7.514   4.023 130.032  0.00  0.00    +0.000 S 
ATOM      9  C   UNL     1      -6.701   2.507 130.396  0.00  0.00    +0.000 C 
ATOM     10  C   UNL     1      -6.854   1.898 131.766  0.00  0.00    +0.000 C 
ATOM     11  O   UNL     1      -7.679   2.502 132.744  0.00  0.00    +0.000 OA
ENDBRANCH   1   7
BRANCH   3  12
ATOM     12  C   UNL     1     -11.051   6.717 129.856  0.00  0.00    +0.000 A 
ATOM     13  C   UNL     1     -10.601   7.384 128.718  0.00  0.00    +0.000 A 
ATOM     14  C   UNL     1     -11.241   8.548 128.320  0.00  0.00    +0.000 A 
ATOM     15  C   UNL     1     -12.345   9.007 129.042  0.00  0.00    +0.000 A 
ATOM     16  C   UNL     1     -12.780   8.340 130.187  0.00  0.00    +0.000 A 
ATOM     17  C   UNL     1     -12.127   7.192 130.599  0.00  0.00    +0.000 A 
ENDBRANCH   3  12
TORSDOF 2
ENDMDL
MODEL 7
REMARK VINA RESULT:      -5.5      8.655     10.103
REMARK  Name = Carboxin
REMARK  3 active torsions:
REMARK  status: ('A' for Active; 'I' for Inactive)
REMARK    1  A    between atoms: C_1  and  C_2
REMARK    2  A    between atoms: C_3  and  C_8
REMARK    3  A    between atoms: N_10  and  C_11
REMARK                            x       y       z     vdW  Elec       q    Type
REMARK                         _______ _______ _______ _____ _____    ______ ____
ROOT
ATOM      1  C   UNL     1      -9.583   6.260 130.045  0.00  0.00    +0.000 C 
ATOM      2  O   UNL     1      -9.201   5.101 129.803  0.00  0.00    +0.000 OA
ATOM      3  N   UNL     1      -8.909   7.032 130.945  0.00  0.00    +0.000 N 
ATOM      4  H   UNL     1      -9.330   7.818 131.396  0.00  0.00    +0.000 HD
ENDROOT
BRANCH   1   7
ATOM      5  C   UNL     1     -12.448   6.931 131.425  0.00  0.00    +0.000 C 
ATOM      6  C   UNL     1     -12.066   7.064 129.970  0.00  0.00    +0.000 C 
ATOM      7  C   UNL     1     -10.866   6.781 129.404  0.00  0.00    +0.000 C 
ATOM      8  S   UNL     1     -10.562   6.997 127.697  0.00  0.00    +0.000 S 
ATOM      9  C   UNL     1     -12.033   7.704 127.041  0.00  0.00    +0.000 C 
ATOM     10  C   UNL     1     -13.232   7.876 127.937  0.00  0.00    +0.000 C 
ATOM     11  O   UNL     1     -13.176   7.524 129.306  0.00  0.00    +0.000 OA
ENDBRANCH   1   7
BRANCH   3  12
ATOM     12  C   UNL     1      -7.680   6.683 131.501  0.00  0.00    +0.000 A 
ATOM     13  C   UNL     1      -6.534   7.129 130.845  0.00  0.00    +0.000 A 
ATOM     14  C   UNL     1      -5.291   6.737 131.315  0.00  0.00    +0.000 A 
ATOM     15  C   UNL     1      -5.208   5.937 132.456  0.00  0.00    +0.000 A 
ATOM     16  C   UNL     1      -6.359   5.484 133.098  0.00  0.00    +0.000 A 
ATOM     17  C   UNL     1      -7.602   5.855 132.616  0.00  0.00    +0.000 A 
ENDBRANCH   3  12
TORSDOF 2
ENDMDL
MODEL 8
REMARK VINA RESULT:      -5.4      4.227      7.590
REMARK  Name = Carboxin
REMARK  3 active torsions:
REMARK  status: ('A' for Active; 'I' for Inactive)
REMARK    1  A    between atoms: C_1  and  C_2
REMARK    2  A    between atoms: C_3  and  C_8
REMARK    3  A    between atoms: N_10  and  C_11
REMARK                            x       y       z     vdW  Elec       q    Type
REMARK                         _______ _______ _______ _____ _____    ______ ____
ROOT
ATOM      1  C   UNL     1      -7.744  -1.601 125.681  0.00  0.00    +0.000 C 
ATOM      2  O   UNL     1      -6.707  -2.230 125.404  0.00  0.00    +0.000 OA
ATOM      3  N   UNL     1      -8.194  -1.549 126.967  0.00  0.00    +0.000 N 
ATOM      4  H   UNL     1      -9.144  -1.337 127.193  0.00  0.00    +0.000 HD
ENDROOT
BRANCH   1   7
ATOM      5  C   UNL     1      -9.371  -3.031 123.259  0.00  0.00    +0.000 C 
ATOM      6  C   UNL     1      -9.245  -1.554 123.545  0.00  0.00    +0.000 C 
ATOM      7  C   UNL     1      -8.564  -0.967 124.561  0.00  0.00    +0.000 C 
ATOM      8  S   UNL     1      -8.517   0.766 124.778  0.00  0.00    +0.000 S 
ATOM      9  C   UNL     1      -9.568   1.427 123.532  0.00  0.00    +0.000 C 
ATOM     10  C   UNL     1     -10.176   0.500 122.512  0.00  0.00    +0.000 C 
ATOM     11  O   UNL     1      -9.953  -0.896 122.571  0.00  0.00    +0.000 OA
ENDBRANCH   1   7
BRANCH   3  12
ATOM     12  C   UNL     1      -7.466  -2.007 128.064  0.00  0.00    +0.000 A 
ATOM     13  C   UNL     1      -7.861  -3.217 128.631  0.00  0.00    +0.000 A 
ATOM     14  C   UNL     1      -7.218  -3.670 129.773  0.00  0.00    +0.000 A 
ATOM     15  C   UNL     1      -6.165  -2.926 130.310  0.00  0.00    +0.000 A 
ATOM     16  C   UNL     1      -5.786  -1.710 129.744  0.00  0.00    +0.000 A 
ATOM     17  C   UNL     1      -6.443  -1.244 128.618  0.00  0.00    +0.000 A 
ENDBRANCH   3  12
TORSDOF 2
ENDMDL
MODEL 9
REMARK VINA RESULT:      -5.4      2.378      6.202
REMARK  Name = Carboxin
REMARK  3 active torsions:
REMARK  status: ('A' for Active; 'I' for Inactive)
REMARK    1  A    between atoms: C_1  and  C_2
REMARK    2  A    between atoms: C_3  and  C_8
REMARK    3  A    between atoms: N_10  and  C_11
REMARK                            x       y       z     vdW  Elec       q    Type
REMARK                         _______ _______ _______ _____ _____    ______ ____
ROOT
ATOM      1  C   UNL     1      -8.155   1.427 124.258  0.00  0.00    +0.000 C 
ATOM      2  O   UNL     1      -9.333   1.496 123.861  0.00  0.00    +0.000 OA
ATOM      3  N   UNL     1      -7.625   0.227 124.632  0.00  0.00    +0.000 N 
ATOM      4  H   UNL     1      -6.828   0.158 125.230  0.00  0.00    +0.000 HD
ENDROOT
BRANCH   1   7
ATOM      5  C   UNL     1      -6.713   3.244 121.983  0.00  0.00    +0.000 C 
ATOM      6  C   UNL     1      -6.729   3.469 123.475  0.00  0.00    +0.000 C 
ATOM      7  C   UNL     1      -7.336   2.705 124.418  0.00  0.00    +0.000 C 
ATOM      8  S   UNL     1      -7.282   3.097 126.119  0.00  0.00    +0.000 S 
ATOM      9  C   UNL     1      -6.427   4.631 126.223  0.00  0.00    +0.000 C 
ATOM     10  C   UNL     1      -5.835   5.232 124.975  0.00  0.00    +0.000 C 
ATOM     11  O   UNL     1      -6.000   4.607 123.716  0.00  0.00    +0.000 OA
ENDBRANCH   1   7
BRANCH   3  12
ATOM     12  C   UNL     1      -8.257  -0.998 124.428  0.00  0.00    +0.000 A 
ATOM     13  C   UNL     1      -8.818  -1.619 125.542  0.00  0.00    +0.000 A 
ATOM     14  C   UNL     1      -9.384  -2.877 125.400  0.00  0.00    +0.000 A 
ATOM     15  C   UNL     1      -9.415  -3.480 124.142  0.00  0.00    +0.000 A 
ATOM     16  C   UNL     1      -8.839  -2.857 123.035  0.00  0.00    +0.000 A 
ATOM     17  C   UNL     1      -8.252  -1.612 123.179  0.00  0.00    +0.000 A 
ENDBRANCH   3  12
TORSDOF 2
ENDMDL
