MODEL 1
REMARK VINA RESULT:      -7.4      0.000      0.000
REMARK  Name = Carbamazepine
REMARK  0 active torsions:
REMARK  status: ('A' for Active; 'I' for Inactive)
REMARK                            x       y       z     vdW  Elec       q    Type
REMARK                         _______ _______ _______ _____ _____    ______ ____
ROOT
ATOM      1  N   UNL     1      -7.206   0.351 127.041  0.00  0.00    +0.000 N 
ATOM      2  C   UNL     1      -6.124  -0.299 127.600  0.00  0.00    +0.000 C 
ATOM      3  O   UNL     1      -5.241   0.356 128.151  0.00  0.00    +0.000 OA
ATOM      4  N   UNL     1      -6.214  -1.686 127.536  0.00  0.00    +0.000 N 
ATOM      5  C   UNL     1      -6.758  -2.327 126.400  0.00  0.00    +0.000 A 
ATOM      6  C   UNL     1      -6.075  -2.183 125.180  0.00  0.00    +0.000 A 
ATOM      7  C   UNL     1      -6.594  -2.742 124.018  0.00  0.00    +0.000 A 
ATOM      8  C   UNL     1      -7.822  -3.394 124.063  0.00  0.00    +0.000 A 
ATOM      9  C   UNL     1      -8.506  -3.530 125.277  0.00  0.00    +0.000 A 
ATOM     10  C   UNL     1      -7.957  -3.044 126.469  0.00  0.00    +0.000 A 
ATOM     11  C   UNL     1      -8.693  -3.233 127.726  0.00  0.00    +0.000 C 
ATOM     12  C   UNL     1      -8.132  -3.400 128.935  0.00  0.00    +0.000 C 
ATOM     13  C   UNL     1      -6.688  -3.389 129.237  0.00  0.00    +0.000 A 
ATOM     14  C   UNL     1      -6.243  -4.182 130.309  0.00  0.00    +0.000 A 
ATOM     15  C   UNL     1      -4.895  -4.205 130.669  0.00  0.00    +0.000 A 
ATOM     16  C   UNL     1      -3.977  -3.432 129.964  0.00  0.00    +0.000 A 
ATOM     17  C   UNL     1      -4.411  -2.594 128.929  0.00  0.00    +0.000 A 
ATOM     18  C   UNL     1      -5.766  -2.552 128.568  0.00  0.00    +0.000 A 
ATOM     19  H   UNL     1      -7.291   1.339 127.239  0.00  0.00    +0.000 HD
ATOM     20  H   UNL     1      -8.078  -0.158 126.956  0.00  0.00    +0.000 HD
ENDROOT
TORSDOF 0
ENDMDL
MODEL 2
REMARK VINA RESULT:      -7.2      2.137      2.897
REMARK  Name = Carbamazepine
REMARK  0 active torsions:
REMARK  status: ('A' for Active; 'I' for Inactive)
REMARK                            x       y       z     vdW  Elec       q    Type
REMARK                         _______ _______ _______ _____ _____    ______ ____
ROOT
ATOM      1  N   UNL     1      -9.873   0.839 125.183  0.00  0.00    +0.000 N 
ATOM      2  C   UNL     1      -9.033   0.620 126.256  0.00  0.00    +0.000 C 
ATOM      3  O   UNL     1      -9.010   1.428 127.183  0.00  0.00    +0.000 OA
ATOM      4  N   UNL     1      -8.344  -0.586 126.188  0.00  0.00    +0.000 N 
ATOM      5  C   UNL     1      -7.855  -1.075 124.955  0.00  0.00    +0.000 A 
ATOM      6  C   UNL     1      -6.866  -0.321 124.300  0.00  0.00    +0.000 A 
ATOM      7  C   UNL     1      -6.389  -0.722 123.057  0.00  0.00    +0.000 A 
ATOM      8  C   UNL     1      -6.942  -1.841 122.442  0.00  0.00    +0.000 A 
ATOM      9  C   UNL     1      -7.934  -2.586 123.090  0.00  0.00    +0.000 A 
ATOM     10  C   UNL     1      -8.365  -2.243 124.377  0.00  0.00    +0.000 A 
ATOM     11  C   UNL     1      -9.386  -3.068 125.035  0.00  0.00    +0.000 C 
ATOM     12  C   UNL     1      -9.476  -3.281 126.358  0.00  0.00    +0.000 C 
ATOM     13  C   UNL     1      -8.602  -2.706 127.397  0.00  0.00    +0.000 A 
ATOM     14  C   UNL     1      -8.383  -3.468 128.558  0.00  0.00    +0.000 A 
ATOM     15  C   UNL     1      -7.588  -2.979 129.594  0.00  0.00    +0.000 A 
ATOM     16  C   UNL     1      -7.004  -1.720 129.484  0.00  0.00    +0.000 A 
ATOM     17  C   UNL     1      -7.255  -0.924 128.359  0.00  0.00    +0.000 A 
ATOM     18  C   UNL     1      -8.066  -1.400 127.318  0.00  0.00    +0.000 A 
ATOM     19  H   UNL     1     -10.542   1.591 125.277  0.00  0.00    +0.000 HD
ATOM     20  H   UNL     1     -10.185   0.036 124.649  0.00  0.00    +0.000 HD
ENDROOT
TORSDOF 0
ENDMDL
MODEL 3
REMARK VINA RESULT:      -7.1      5.174      6.690
REMARK  Name = Carbamazepine
REMARK  0 active torsions:
REMARK  status: ('A' for Active; 'I' for Inactive)
REMARK                            x       y       z     vdW  Elec       q    Type
REMARK                         _______ _______ _______ _____ _____    ______ ____
ROOT
ATOM      1  N   UNL     1      -7.332   5.468 125.044  0.00  0.00    +0.000 N 
ATOM      2  C   UNL     1      -6.555   4.453 125.565  0.00  0.00    +0.000 C 
ATOM      3  O   UNL     1      -6.200   4.503 126.741  0.00  0.00    +0.000 OA
ATOM      4  N   UNL     1      -6.326   3.412 124.671  0.00  0.00    +0.000 N 
ATOM      5  C   UNL     1      -6.110   3.668 123.297  0.00  0.00    +0.000 A 
ATOM      6  C   UNL     1      -4.964   4.400 122.943  0.00  0.00    +0.000 A 
ATOM      7  C   UNL     1      -4.730   4.733 121.613  0.00  0.00    +0.000 A 
ATOM      8  C   UNL     1      -5.669   4.384 120.646  0.00  0.00    +0.000 A 
ATOM      9  C   UNL     1      -6.814   3.662 121.001  0.00  0.00    +0.000 A 
ATOM     10  C   UNL     1      -7.023   3.250 122.323  0.00  0.00    +0.000 A 
ATOM     11  C   UNL     1      -8.222   2.469 122.649  0.00  0.00    +0.000 C 
ATOM     12  C   UNL     1      -8.300   1.530 123.607  0.00  0.00    +0.000 C 
ATOM     13  C   UNL     1      -7.220   1.131 124.529  0.00  0.00    +0.000 A 
ATOM     14  C   UNL     1      -7.205  -0.201 124.976  0.00  0.00    +0.000 A 
ATOM     15  C   UNL     1      -6.229  -0.645 125.868  0.00  0.00    +0.000 A 
ATOM     16  C   UNL     1      -5.257   0.241 126.327  0.00  0.00    +0.000 A 
ATOM     17  C   UNL     1      -5.288   1.585 125.935  0.00  0.00    +0.000 A 
ATOM     18  C   UNL     1      -6.276   2.045 125.050  0.00  0.00    +0.000 A 
ATOM     19  H   UNL     1      -7.697   6.143 125.703  0.00  0.00    +0.000 HD
ATOM     20  H   UNL     1      -7.933   5.254 124.256  0.00  0.00    +0.000 HD
ENDROOT
TORSDOF 0
ENDMDL
MODEL 4
REMARK VINA RESULT:      -7.1      4.658      6.519
REMARK  Name = Carbamazepine
REMARK  0 active torsions:
REMARK  status: ('A' for Active; 'I' for Inactive)
REMARK                            x       y       z     vdW  Elec       q    Type
REMARK                         _______ _______ _______ _____ _____    ______ ____
ROOT
ATOM      1  N   UNL     1      -6.863   3.266 125.187  0.00  0.00    +0.000 N 
ATOM      2  C   UNL     1      -6.429   1.989 124.890  0.00  0.00    +0.000 C 
ATOM      3  O   UNL     1      -5.666   1.413 125.663  0.00  0.00    +0.000 OA
ATOM      4  N   UNL     1      -7.000   1.461 123.737  0.00  0.00    +0.000 N 
ATOM      5  C   UNL     1      -7.239   2.274 122.606  0.00  0.00    +0.000 A 
ATOM      6  C   UNL     1      -6.125   2.833 121.957  0.00  0.00    +0.000 A 
ATOM      7  C   UNL     1      -6.301   3.688 120.875  0.00  0.00    +0.000 A 
ATOM      8  C   UNL     1      -7.591   4.031 120.479  0.00  0.00    +0.000 A 
ATOM      9  C   UNL     1      -8.700   3.480 121.131  0.00  0.00    +0.000 A 
ATOM     10  C   UNL     1      -8.538   2.554 122.169  0.00  0.00    +0.000 A 
ATOM     11  C   UNL     1      -9.728   1.978 122.807  0.00  0.00    +0.000 C 
ATOM     12  C   UNL     1      -9.807   0.741 123.324  0.00  0.00    +0.000 C 
ATOM     13  C   UNL     1      -8.719  -0.254 123.383  0.00  0.00    +0.000 A 
ATOM     14  C   UNL     1      -9.076  -1.612 123.323  0.00  0.00    +0.000 A 
ATOM     15  C   UNL     1      -8.104  -2.610 123.397  0.00  0.00    +0.000 A 
ATOM     16  C   UNL     1      -6.763  -2.261 123.535  0.00  0.00    +0.000 A 
ATOM     17  C   UNL     1      -6.394  -0.915 123.652  0.00  0.00    +0.000 A 
ATOM     18  C   UNL     1      -7.366   0.096 123.594  0.00  0.00    +0.000 A 
ATOM     19  H   UNL     1      -6.643   3.616 126.109  0.00  0.00    +0.000 HD
ATOM     20  H   UNL     1      -7.749   3.571 124.800  0.00  0.00    +0.000 HD
ENDROOT
TORSDOF 0
ENDMDL
MODEL 5
REMARK VINA RESULT:      -7.0      2.714      5.527
REMARK  Name = Carbamazepine
REMARK  0 active torsions:
REMARK  status: ('A' for Active; 'I' for Inactive)
REMARK                            x       y       z     vdW  Elec       q    Type
REMARK                         _______ _______ _______ _____ _____    ______ ____
ROOT
ATOM      1  N   UNL     1      -5.213  -1.387 125.759  0.00  0.00    +0.000 N 
ATOM      2  C   UNL     1      -6.108  -0.373 125.486  0.00  0.00    +0.000 C 
ATOM      3  O   UNL     1      -5.689   0.758 125.244  0.00  0.00    +0.000 OA
ATOM      4  N   UNL     1      -7.433  -0.796 125.441  0.00  0.00    +0.000 N 
ATOM      5  C   UNL     1      -7.914  -1.774 126.340  0.00  0.00    +0.000 A 
ATOM      6  C   UNL     1      -7.926  -1.453 127.708  0.00  0.00    +0.000 A 
ATOM      7  C   UNL     1      -8.334  -2.396 128.645  0.00  0.00    +0.000 A 
ATOM      8  C   UNL     1      -8.674  -3.677 128.220  0.00  0.00    +0.000 A 
ATOM      9  C   UNL     1      -8.653  -3.999 126.858  0.00  0.00    +0.000 A 
ATOM     10  C   UNL     1      -8.324  -3.036 125.896  0.00  0.00    +0.000 A 
ATOM     11  C   UNL     1      -8.344  -3.406 124.476  0.00  0.00    +0.000 C 
ATOM     12  C   UNL     1      -8.652  -2.578 123.464  0.00  0.00    +0.000 C 
ATOM     13  C   UNL     1      -8.990  -1.147 123.577  0.00  0.00    +0.000 A 
ATOM     14  C   UNL     1      -9.876  -0.611 122.627  0.00  0.00    +0.000 A 
ATOM     15  C   UNL     1     -10.224   0.739 122.656  0.00  0.00    +0.000 A 
ATOM     16  C   UNL     1      -9.686   1.572 123.634  0.00  0.00    +0.000 A 
ATOM     17  C   UNL     1      -8.759   1.068 124.555  0.00  0.00    +0.000 A 
ATOM     18  C   UNL     1      -8.391  -0.286 124.525  0.00  0.00    +0.000 A 
ATOM     19  H   UNL     1      -4.235  -1.181 125.604  0.00  0.00    +0.000 HD
ATOM     20  H   UNL     1      -5.498  -2.340 125.567  0.00  0.00    +0.000 HD
ENDROOT
TORSDOF 0
ENDMDL
MODEL 6
REMARK VINA RESULT:      -7.0      3.772      5.653
REMARK  Name = Carbamazepine
REMARK  0 active torsions:
REMARK  status: ('A' for Active; 'I' for Inactive)
REMARK                            x       y       z     vdW  Elec       q    Type
REMARK                         _______ _______ _______ _____ _____    ______ ____
ROOT
ATOM      1  N   UNL     1      -9.276  -0.215 125.562  0.00  0.00    +0.000 N 
ATOM      2  C   UNL     1      -8.789   0.951 125.007  0.00  0.00    +0.000 C 
ATOM      3  O   UNL     1      -9.545   1.907 124.842  0.00  0.00    +0.000 OA
ATOM      4  N   UNL     1      -7.419   0.923 124.765  0.00  0.00    +0.000 N 
ATOM      5  C   UNL     1      -6.787  -0.253 124.302  0.00  0.00    +0.000 A 
ATOM      6  C   UNL     1      -7.154  -0.735 123.034  0.00  0.00    +0.000 A 
ATOM      7  C   UNL     1      -6.609  -1.919 122.551  0.00  0.00    +0.000 A 
ATOM      8  C   UNL     1      -5.743  -2.652 123.357  0.00  0.00    +0.000 A 
ATOM      9  C   UNL     1      -5.384  -2.176 124.624  0.00  0.00    +0.000 A 
ATOM     10  C   UNL     1      -5.861  -0.945 125.090  0.00  0.00    +0.000 A 
ATOM     11  C   UNL     1      -5.437  -0.467 126.412  0.00  0.00    +0.000 C 
ATOM     12  C   UNL     1      -5.274   0.822 126.755  0.00  0.00    +0.000 C 
ATOM     13  C   UNL     1      -5.522   1.993 125.894  0.00  0.00    +0.000 A 
ATOM     14  C   UNL     1      -4.736   3.138 126.113  0.00  0.00    +0.000 A 
ATOM     15  C   UNL     1      -4.929   4.292 125.354  0.00  0.00    +0.000 A 
ATOM     16  C   UNL     1      -5.912   4.317 124.369  0.00  0.00    +0.000 A 
ATOM     17  C   UNL     1      -6.741   3.204 124.173  0.00  0.00    +0.000 A 
ATOM     18  C   UNL     1      -6.565   2.044 124.942  0.00  0.00    +0.000 A 
ATOM     19  H   UNL     1     -10.212  -0.178 125.943  0.00  0.00    +0.000 HD
ATOM     20  H   UNL     1      -8.626  -0.821 126.049  0.00  0.00    +0.000 HD
ENDROOT
TORSDOF 0
ENDMDL
MODEL 7
REMARK VINA RESULT:      -6.8      2.459      4.913
REMARK  Name = Carbamazepine
REMARK  0 active torsions:
REMARK  status: ('A' for Active; 'I' for Inactive)
REMARK                            x       y       z     vdW  Elec       q    Type
REMARK                         _______ _______ _______ _____ _____    ______ ____
ROOT
ATOM      1  N   UNL     1      -4.898  -0.168 129.000  0.00  0.00    +0.000 N 
ATOM      2  C   UNL     1      -5.761  -0.248 127.926  0.00  0.00    +0.000 C 
ATOM      3  O   UNL     1      -5.341  -0.026 126.792  0.00  0.00    +0.000 OA
ATOM      4  N   UNL     1      -7.041  -0.668 128.271  0.00  0.00    +0.000 N 
ATOM      5  C   UNL     1      -7.646  -0.243 129.475  0.00  0.00    +0.000 A 
ATOM      6  C   UNL     1      -7.914   1.129 129.623  0.00  0.00    +0.000 A 
ATOM      7  C   UNL     1      -8.453   1.613 130.809  0.00  0.00    +0.000 A 
ATOM      8  C   UNL     1      -8.671   0.737 131.868  0.00  0.00    +0.000 A 
ATOM      9  C   UNL     1      -8.396  -0.628 131.724  0.00  0.00    +0.000 A 
ATOM     10  C   UNL     1      -7.929  -1.143 130.509  0.00  0.00    +0.000 A 
ATOM     11  C   UNL     1      -7.681  -2.585 130.389  0.00  0.00    +0.000 C 
ATOM     12  C   UNL     1      -7.828  -3.307 129.266  0.00  0.00    +0.000 C 
ATOM     13  C   UNL     1      -8.226  -2.792 127.942  0.00  0.00    +0.000 A 
ATOM     14  C   UNL     1      -8.943  -3.656 127.098  0.00  0.00    +0.000 A 
ATOM     15  C   UNL     1      -9.333  -3.248 125.822  0.00  0.00    +0.000 A 
ATOM     16  C   UNL     1      -9.006  -1.970 125.374  0.00  0.00    +0.000 A 
ATOM     17  C   UNL     1      -8.245  -1.115 126.181  0.00  0.00    +0.000 A 
ATOM     18  C   UNL     1      -7.835  -1.522 127.460  0.00  0.00    +0.000 A 
ATOM     19  H   UNL     1      -3.915  -0.067 128.784  0.00  0.00    +0.000 HD
ATOM     20  H   UNL     1      -5.113  -0.710 129.828  0.00  0.00    +0.000 HD
ENDROOT
TORSDOF 0
ENDMDL
MODEL 8
REMARK VINA RESULT:      -6.6      7.785      9.652
REMARK  Name = Carbamazepine
REMARK  0 active torsions:
REMARK  status: ('A' for Active; 'I' for Inactive)
REMARK                            x       y       z     vdW  Elec       q    Type
REMARK                         _______ _______ _______ _____ _____    ______ ____
ROOT
ATOM      1  N   UNL     1      -8.648   3.742 128.702  0.00  0.00    +0.000 N 
ATOM      2  C   UNL     1      -8.862   3.422 130.027  0.00  0.00    +0.000 C 
ATOM      3  O   UNL     1      -8.698   2.263 130.405  0.00  0.00    +0.000 OA
ATOM      4  N   UNL     1      -9.174   4.519 130.823  0.00  0.00    +0.000 N 
ATOM      5  C   UNL     1      -9.995   5.561 130.335  0.00  0.00    +0.000 A 
ATOM      6  C   UNL     1     -11.327   5.246 130.016  0.00  0.00    +0.000 A 
ATOM      7  C   UNL     1     -12.165   6.216 129.477  0.00  0.00    +0.000 A 
ATOM      8  C   UNL     1     -11.657   7.482 129.201  0.00  0.00    +0.000 A 
ATOM      9  C   UNL     1     -10.327   7.792 129.511  0.00  0.00    +0.000 A 
ATOM     10  C   UNL     1      -9.495   6.851 130.130  0.00  0.00    +0.000 A 
ATOM     11  C   UNL     1      -8.116   7.226 130.465  0.00  0.00    +0.000 C 
ATOM     12  C   UNL     1      -7.418   6.758 131.514  0.00  0.00    +0.000 C 
ATOM     13  C   UNL     1      -7.884   5.763 132.499  0.00  0.00    +0.000 A 
ATOM     14  C   UNL     1      -7.381   5.860 133.807  0.00  0.00    +0.000 A 
ATOM     15  C   UNL     1      -7.756   4.941 134.787  0.00  0.00    +0.000 A 
ATOM     16  C   UNL     1      -8.637   3.911 134.468  0.00  0.00    +0.000 A 
ATOM     17  C   UNL     1      -9.105   3.766 133.156  0.00  0.00    +0.000 A 
ATOM     18  C   UNL     1      -8.722   4.677 132.160  0.00  0.00    +0.000 A 
ATOM     19  H   UNL     1      -8.224   3.028 128.126  0.00  0.00    +0.000 HD
ATOM     20  H   UNL     1      -8.395   4.698 128.476  0.00  0.00    +0.000 HD
ENDROOT
TORSDOF 0
ENDMDL
MODEL 9
REMARK VINA RESULT:      -6.6      7.662      9.400
REMARK  Name = Carbamazepine
REMARK  0 active torsions:
REMARK  status: ('A' for Active; 'I' for Inactive)
REMARK                            x       y       z     vdW  Elec       q    Type
REMARK                         _______ _______ _______ _____ _____    ______ ____
ROOT
ATOM      1  N   UNL     1     -10.157   6.499 131.331  0.00  0.00    +0.000 N 
ATOM      2  C   UNL     1      -8.809   6.613 131.061  0.00  0.00    +0.000 C 
ATOM      3  O   UNL     1      -8.400   7.568 130.402  0.00  0.00    +0.000 OA
ATOM      4  N   UNL     1      -8.034   5.627 131.664  0.00  0.00    +0.000 N 
ATOM      5  C   UNL     1      -8.500   4.297 131.763  0.00  0.00    +0.000 A 
ATOM      6  C   UNL     1      -8.708   3.587 130.568  0.00  0.00    +0.000 A 
ATOM      7  C   UNL     1      -9.220   2.295 130.601  0.00  0.00    +0.000 A 
ATOM      8  C   UNL     1      -9.580   1.734 131.822  0.00  0.00    +0.000 A 
ATOM      9  C   UNL     1      -9.381   2.444 133.012  0.00  0.00    +0.000 A 
ATOM     10  C   UNL     1      -8.790   3.714 133.002  0.00  0.00    +0.000 A 
ATOM     11  C   UNL     1      -8.572   4.413 134.274  0.00  0.00    +0.000 C 
ATOM     12  C   UNL     1      -7.561   5.259 134.530  0.00  0.00    +0.000 C 
ATOM     13  C   UNL     1      -6.507   5.673 133.584  0.00  0.00    +0.000 A 
ATOM     14  C   UNL     1      -5.244   5.985 134.115  0.00  0.00    +0.000 A 
ATOM     15  C   UNL     1      -4.205   6.407 133.285  0.00  0.00    +0.000 A 
ATOM     16  C   UNL     1      -4.418   6.526 131.914  0.00  0.00    +0.000 A 
ATOM     17  C   UNL     1      -5.686   6.272 131.375  0.00  0.00    +0.000 A 
ATOM     18  C   UNL     1      -6.741   5.861 132.203  0.00  0.00    +0.000 A 
ATOM     19  H   UNL     1     -10.735   7.294 131.091  0.00  0.00    +0.000 HD
ATOM     20  H   UNL     1     -10.437   5.984 132.158  0.00  0.00    +0.000 HD
ENDROOT
TORSDOF 0
ENDMDL
