MODEL 1
REMARK VINA RESULT:      -7.7      0.000      0.000
REMARK  Name = Carbenicillin
REMARK  9 active torsions:
REMARK  status: ('A' for Active; 'I' for Inactive)
REMARK    1  A    between atoms: C_4  and  C_5
REMARK    2  A    between atoms: C_4  and  C_6
REMARK    3  A    between atoms: CA_7  and  C_25
REMARK    4  A    between atoms: CA_11  and  N_12
REMARK    5  A    between atoms: C_13  and  C_15
REMARK    6  A    between atoms: C_15  and  C_16
REMARK    7  A    between atoms: C_15  and  C_19
REMARK    8  A    between atoms: C_16  and  O_17
REMARK    9  A    between atoms: C_25  and  O_26
REMARK                            x       y       z     vdW  Elec       q    Type
REMARK                         _______ _______ _______ _____ _____    ______ ____
ROOT
ATOM      1  N   UNL     1      -7.779   0.729 124.468  0.00  0.00    +0.000 N 
ATOM      2  C   UNL     1      -8.691   1.206 123.549  0.00  0.00    +0.000 C 
ATOM      3  O   UNL     1      -9.423   0.417 122.948  0.00  0.00    +0.000 OA
ATOM      4  H   UNL     1      -7.097   1.370 124.872  0.00  0.00    +0.000 HD
ENDROOT
BRANCH   1  14
ATOM      5  C   UNL     1      -6.564  -1.238 125.653  0.00  0.00    +0.000 C 
ATOM      6  S   UNL     1      -5.967  -0.064 126.918  0.00  0.00    +0.000 S 
ATOM      7  C   UNL     1      -6.360  -1.284 128.279  0.00  0.00    +0.000 C 
ATOM      8  C   UNL     1      -6.533  -0.463 129.560  0.00  0.00    +0.000 C 
ATOM      9  C   UNL     1      -5.144  -2.226 128.341  0.00  0.00    +0.000 C 
ATOM     10  CA  UNL     1      -7.685  -1.936 127.816  0.00  0.00    +0.000 C 
ATOM     11  N   UNL     1      -7.621  -2.006 126.341  0.00  0.00    +0.000 N 
ATOM     12  C   UNL     1      -8.620  -1.473 125.565  0.00  0.00    +0.000 C 
ATOM     13  O   UNL     1      -9.827  -1.456 125.729  0.00  0.00    +0.000 OA
ATOM     14  CA  UNL     1      -7.607  -0.751 124.637  0.00  0.00    +0.000 C 
BRANCH  10  15
ATOM     15  C   UNL     1      -8.113  -3.295 128.420  0.00  0.00    +0.000 C 
ATOM     16  OXT UNL     1      -7.921  -3.586 129.596  0.00  0.00    +0.000 OA
BRANCH  15  17
ATOM     17  O   UNL     1      -8.692  -4.218 127.625  0.00  0.00    +0.000 OA
ATOM     18  H   UNL     1      -8.540  -5.165 127.764  0.00  0.00    +0.000 HD
ENDBRANCH  15  17
ENDBRANCH  10  15
ENDBRANCH   1  14
BRANCH   2  19
ATOM     19  C   UNL     1      -8.759   2.732 123.334  0.00  0.00    +0.000 C 
BRANCH  19  20
ATOM     20  C   UNL     1      -7.911   3.110 122.119  0.00  0.00    +0.000 A 
ATOM     21  C   UNL     1      -6.508   3.022 122.162  0.00  0.00    +0.000 A 
ATOM     22  C   UNL     1      -5.748   3.539 121.108  0.00  0.00    +0.000 A 
ATOM     23  C   UNL     1      -6.372   4.004 119.951  0.00  0.00    +0.000 A 
ATOM     24  C   UNL     1      -7.755   4.081 119.892  0.00  0.00    +0.000 A 
ATOM     25  C   UNL     1      -8.501   3.727 121.006  0.00  0.00    +0.000 A 
ENDBRANCH  19  20
BRANCH  19  26
ATOM     26  C   UNL     1      -8.462   3.482 124.634  0.00  0.00    +0.000 C 
ATOM     27  O   UNL     1      -8.790   3.020 125.725  0.00  0.00    +0.000 OA
BRANCH  26  28
ATOM     28  O   UNL     1      -7.868   4.696 124.593  0.00  0.00    +0.000 OA
ATOM     29  H   UNL     1      -8.165   5.341 123.923  0.00  0.00    +0.000 HD
ENDBRANCH  26  28
ENDBRANCH  19  26
ENDBRANCH   2  19
TORSDOF 7
ENDMDL
MODEL 2
REMARK VINA RESULT:      -7.5      2.849      4.218
REMARK  Name = Carbenicillin
REMARK  9 active torsions:
REMARK  status: ('A' for Active; 'I' for Inactive)
REMARK    1  A    between atoms: C_4  and  C_5
REMARK    2  A    between atoms: C_4  and  C_6
REMARK    3  A    between atoms: CA_7  and  C_25
REMARK    4  A    between atoms: CA_11  and  N_12
REMARK    5  A    between atoms: C_13  and  C_15
REMARK    6  A    between atoms: C_15  and  C_16
REMARK    7  A    between atoms: C_15  and  C_19
REMARK    8  A    between atoms: C_16  and  O_17
REMARK    9  A    between atoms: C_25  and  O_26
REMARK                            x       y       z     vdW  Elec       q    Type
REMARK                         _______ _______ _______ _____ _____    ______ ____
ROOT
ATOM      1  N   UNL     1      -7.596   2.345 124.301  0.00  0.00    +0.000 N 
ATOM      2  C   UNL     1      -6.705   3.358 124.017  0.00  0.00    +0.000 C 
ATOM      3  O   UNL     1      -6.086   3.348 122.951  0.00  0.00    +0.000 OA
ATOM      4  H   UNL     1      -8.014   2.293 125.230  0.00  0.00    +0.000 HD
ENDROOT
BRANCH   1  14
ATOM      5  C   UNL     1      -6.848  -0.056 123.645  0.00  0.00    +0.000 C 
ATOM      6  S   UNL     1      -6.129  -0.252 125.312  0.00  0.00    +0.000 S 
ATOM      7  C   UNL     1      -6.831  -1.979 125.445  0.00  0.00    +0.000 C 
ATOM      8  C   UNL     1      -6.933  -2.292 126.940  0.00  0.00    +0.000 C 
ATOM      9  C   UNL     1      -5.818  -2.884 124.720  0.00  0.00    +0.000 C 
ATOM     10  CA  UNL     1      -8.220  -1.864 124.774  0.00  0.00    +0.000 C 
ATOM     11  N   UNL     1      -8.073  -0.880 123.680  0.00  0.00    +0.000 N 
ATOM     12  C   UNL     1      -8.902   0.211 123.595  0.00  0.00    +0.000 C 
ATOM     13  O   UNL     1     -10.093   0.321 123.826  0.00  0.00    +0.000 OA
ATOM     14  CA  UNL     1      -7.714   1.181 123.363  0.00  0.00    +0.000 C 
BRANCH  10  15
ATOM     15  C   UNL     1      -8.933  -3.146 124.278  0.00  0.00    +0.000 C 
ATOM     16  OXT UNL     1      -8.539  -4.272 124.560  0.00  0.00    +0.000 OA
BRANCH  15  17
ATOM     17  O   UNL     1     -10.012  -3.033 123.476  0.00  0.00    +0.000 OA
ATOM     18  H   UNL     1     -10.080  -2.317 122.827  0.00  0.00    +0.000 HD
ENDBRANCH  15  17
ENDBRANCH  10  15
ENDBRANCH   1  14
BRANCH   2  19
ATOM     19  C   UNL     1      -6.541   4.482 125.062  0.00  0.00    +0.000 C 
BRANCH  19  20
ATOM     20  C   UNL     1      -5.259   4.246 125.862  0.00  0.00    +0.000 A 
ATOM     21  C   UNL     1      -4.619   2.994 125.849  0.00  0.00    +0.000 A 
ATOM     22  C   UNL     1      -3.555   2.749 126.722  0.00  0.00    +0.000 A 
ATOM     23  C   UNL     1      -3.030   3.781 127.499  0.00  0.00    +0.000 A 
ATOM     24  C   UNL     1      -3.645   5.023 127.509  0.00  0.00    +0.000 A 
ATOM     25  C   UNL     1      -4.803   5.213 126.771  0.00  0.00    +0.000 A 
ENDBRANCH  19  20
BRANCH  19  26
ATOM     26  C   UNL     1      -7.826   4.668 125.871  0.00  0.00    +0.000 C 
ATOM     27  O   UNL     1      -8.170   3.845 126.719  0.00  0.00    +0.000 OA
BRANCH  26  28
ATOM     28  O   UNL     1      -8.629   5.729 125.631  0.00  0.00    +0.000 OA
ATOM     29  H   UNL     1      -9.546   5.710 125.965  0.00  0.00    +0.000 HD
ENDBRANCH  26  28
ENDBRANCH  19  26
ENDBRANCH   2  19
TORSDOF 7
ENDMDL
MODEL 3
REMARK VINA RESULT:      -7.4      2.285      3.494
REMARK  Name = Carbenicillin
REMARK  9 active torsions:
REMARK  status: ('A' for Active; 'I' for Inactive)
REMARK    1  A    between atoms: C_4  and  C_5
REMARK    2  A    between atoms: C_4  and  C_6
REMARK    3  A    between atoms: CA_7  and  C_25
REMARK    4  A    between atoms: CA_11  and  N_12
REMARK    5  A    between atoms: C_13  and  C_15
REMARK    6  A    between atoms: C_15  and  C_16
REMARK    7  A    between atoms: C_15  and  C_19
REMARK    8  A    between atoms: C_16  and  O_17
REMARK    9  A    between atoms: C_25  and  O_26
REMARK                            x       y       z     vdW  Elec       q    Type
REMARK                         _______ _______ _______ _____ _____    ______ ____
ROOT
ATOM      1  N   UNL     1      -7.368   2.309 125.784  0.00  0.00    +0.000 N 
ATOM      2  C   UNL     1      -7.641   3.567 125.287  0.00  0.00    +0.000 C 
ATOM      3  O   UNL     1      -8.811   3.923 125.133  0.00  0.00    +0.000 OA
ATOM      4  H   UNL     1      -6.404   1.976 125.797  0.00  0.00    +0.000 HD
ENDROOT
BRANCH   1  14
ATOM      5  C   UNL     1      -8.915   0.439 124.854  0.00  0.00    +0.000 C 
ATOM      6  S   UNL     1      -7.753   0.216 123.463  0.00  0.00    +0.000 S 
ATOM      7  C   UNL     1      -7.883  -1.643 123.614  0.00  0.00    +0.000 C 
ATOM      8  C   UNL     1      -6.611  -2.218 122.985  0.00  0.00    +0.000 C 
ATOM      9  C   UNL     1      -9.153  -2.024 122.833  0.00  0.00    +0.000 C 
ATOM     10  CA  UNL     1      -7.944  -1.883 125.141  0.00  0.00    +0.000 C 
ATOM     11  N   UNL     1      -8.682  -0.738 125.714  0.00  0.00    +0.000 N 
ATOM     12  C   UNL     1      -8.142   0.014 126.729  0.00  0.00    +0.000 C 
ATOM     13  O   UNL     1      -7.475  -0.318 127.692  0.00  0.00    +0.000 OA
ATOM     14  CA  UNL     1      -8.495   1.348 126.020  0.00  0.00    +0.000 C 
BRANCH  10  15
ATOM     15  C   UNL     1      -8.498  -3.226 125.677  0.00  0.00    +0.000 C 
ATOM     16  OXT UNL     1      -9.242  -3.294 126.649  0.00  0.00    +0.000 OA
BRANCH  15  17
ATOM     17  O   UNL     1      -8.130  -4.378 125.078  0.00  0.00    +0.000 OA
ATOM     18  H   UNL     1      -7.313  -4.433 124.560  0.00  0.00    +0.000 HD
ENDBRANCH  15  17
ENDBRANCH  10  15
ENDBRANCH   1  14
BRANCH   2  19
ATOM     19  C   UNL     1      -6.444   4.484 124.963  0.00  0.00    +0.000 C 
BRANCH  19  20
ATOM     20  C   UNL     1      -5.968   4.208 123.536  0.00  0.00    +0.000 A 
ATOM     21  C   UNL     1      -4.786   4.787 123.044  0.00  0.00    +0.000 A 
ATOM     22  C   UNL     1      -4.465   4.666 121.688  0.00  0.00    +0.000 A 
ATOM     23  C   UNL     1      -5.229   3.851 120.853  0.00  0.00    +0.000 A 
ATOM     24  C   UNL     1      -6.389   3.263 121.332  0.00  0.00    +0.000 A 
ATOM     25  C   UNL     1      -6.796   3.525 122.631  0.00  0.00    +0.000 A 
ENDBRANCH  19  20
BRANCH  19  26
ATOM     26  C   UNL     1      -5.383   4.409 126.062  0.00  0.00    +0.000 C 
ATOM     27  O   UNL     1      -5.166   5.365 126.804  0.00  0.00    +0.000 OA
BRANCH  26  28
ATOM     28  O   UNL     1      -4.634   3.292 126.203  0.00  0.00    +0.000 OA
ATOM     29  H   UNL     1      -4.671   2.610 125.505  0.00  0.00    +0.000 HD
ENDBRANCH  26  28
ENDBRANCH  19  26
ENDBRANCH   2  19
TORSDOF 7
ENDMDL
MODEL 4
REMARK VINA RESULT:      -7.2      5.253      8.167
REMARK  Name = Carbenicillin
REMARK  9 active torsions:
REMARK  status: ('A' for Active; 'I' for Inactive)
REMARK    1  A    between atoms: C_4  and  C_5
REMARK    2  A    between atoms: C_4  and  C_6
REMARK    3  A    between atoms: CA_7  and  C_25
REMARK    4  A    between atoms: CA_11  and  N_12
REMARK    5  A    between atoms: C_13  and  C_15
REMARK    6  A    between atoms: C_15  and  C_16
REMARK    7  A    between atoms: C_15  and  C_19
REMARK    8  A    between atoms: C_16  and  O_17
REMARK    9  A    between atoms: C_25  and  O_26
REMARK                            x       y       z     vdW  Elec       q    Type
REMARK                         _______ _______ _______ _____ _____    ______ ____
ROOT
ATOM      1  N   UNL     1      -8.639   4.042 128.980  0.00  0.00    +0.000 N 
ATOM      2  C   UNL     1      -8.857   5.107 129.830  0.00  0.00    +0.000 C 
ATOM      3  O   UNL     1      -8.288   6.180 129.624  0.00  0.00    +0.000 OA
ATOM      4  H   UNL     1      -9.016   3.125 129.221  0.00  0.00    +0.000 HD
ENDROOT
BRANCH   1  14
ATOM      5  C   UNL     1      -7.253   2.899 127.103  0.00  0.00    +0.000 C 
ATOM      6  S   UNL     1      -8.379   1.464 127.190  0.00  0.00    +0.000 S 
ATOM      7  C   UNL     1      -8.441   1.360 125.325  0.00  0.00    +0.000 C 
ATOM      8  C   UNL     1      -9.739   0.629 124.974  0.00  0.00    +0.000 C 
ATOM      9  C   UNL     1      -7.187   0.563 124.923  0.00  0.00    +0.000 C 
ATOM     10  CA  UNL     1      -8.460   2.841 124.875  0.00  0.00    +0.000 C 
ATOM     11  N   UNL     1      -7.633   3.582 125.851  0.00  0.00    +0.000 N 
ATOM     12  C   UNL     1      -8.132   4.678 126.510  0.00  0.00    +0.000 C 
ATOM     13  O   UNL     1      -8.864   5.571 126.122  0.00  0.00    +0.000 OA
ATOM     14  CA  UNL     1      -7.623   4.168 127.884  0.00  0.00    +0.000 C 
BRANCH  10  15
ATOM     15  C   UNL     1      -8.062   3.198 123.422  0.00  0.00    +0.000 C 
ATOM     16  OXT UNL     1      -8.719   2.842 122.451  0.00  0.00    +0.000 OA
BRANCH  15  17
ATOM     17  O   UNL     1      -6.932   3.900 123.201  0.00  0.00    +0.000 OA
ATOM     18  H   UNL     1      -6.808   4.782 123.583  0.00  0.00    +0.000 HD
ENDBRANCH  15  17
ENDBRANCH  10  15
ENDBRANCH   1  14
BRANCH   2  19
ATOM     19  C   UNL     1      -9.834   4.896 131.005  0.00  0.00    +0.000 C 
BRANCH  19  20
ATOM     20  C   UNL     1     -11.099   5.721 130.764  0.00  0.00    +0.000 A 
ATOM     21  C   UNL     1     -11.724   5.734 129.506  0.00  0.00    +0.000 A 
ATOM     22  C   UNL     1     -12.771   6.629 129.259  0.00  0.00    +0.000 A 
ATOM     23  C   UNL     1     -13.296   7.401 130.295  0.00  0.00    +0.000 A 
ATOM     24  C   UNL     1     -12.695   7.385 131.544  0.00  0.00    +0.000 A 
ATOM     25  C   UNL     1     -11.552   6.625 131.738  0.00  0.00    +0.000 A 
ENDBRANCH  19  20
BRANCH  19  26
ATOM     26  C   UNL     1      -9.129   5.104 132.347  0.00  0.00    +0.000 C 
ATOM     27  O   UNL     1      -9.385   4.395 133.318  0.00  0.00    +0.000 OA
BRANCH  26  28
ATOM     28  O   UNL     1      -8.237   6.110 132.493  0.00  0.00    +0.000 OA
ATOM     29  H   UNL     1      -7.773   6.206 133.346  0.00  0.00    +0.000 HD
ENDBRANCH  26  28
ENDBRANCH  19  26
ENDBRANCH   2  19
TORSDOF 7
ENDMDL
MODEL 5
REMARK VINA RESULT:      -7.2      5.451      7.118
REMARK  Name = Carbenicillin
REMARK  9 active torsions:
REMARK  status: ('A' for Active; 'I' for Inactive)
REMARK    1  A    between atoms: C_4  and  C_5
REMARK    2  A    between atoms: C_4  and  C_6
REMARK    3  A    between atoms: CA_7  and  C_25
REMARK    4  A    between atoms: CA_11  and  N_12
REMARK    5  A    between atoms: C_13  and  C_15
REMARK    6  A    between atoms: C_15  and  C_16
REMARK    7  A    between atoms: C_15  and  C_19
REMARK    8  A    between atoms: C_16  and  O_17
REMARK    9  A    between atoms: C_25  and  O_26
REMARK                            x       y       z     vdW  Elec       q    Type
REMARK                         _______ _______ _______ _____ _____    ______ ____
ROOT
ATOM      1  N   UNL     1      -8.882   4.253 129.719  0.00  0.00    +0.000 N 
ATOM      2  C   UNL     1      -9.608   5.357 129.324  0.00  0.00    +0.000 C 
ATOM      3  O   UNL     1      -9.381   5.879 128.230  0.00  0.00    +0.000 OA
ATOM      4  H   UNL     1      -8.990   3.899 130.669  0.00  0.00    +0.000 HD
ENDROOT
BRANCH   1  14
ATOM      5  C   UNL     1      -6.550   3.116 129.571  0.00  0.00    +0.000 C 
ATOM      6  S   UNL     1      -6.771   2.515 131.281  0.00  0.00    +0.000 S 
ATOM      7  C   UNL     1      -6.105   0.833 130.808  0.00  0.00    +0.000 C 
ATOM      8  C   UNL     1      -6.653  -0.156 131.839  0.00  0.00    +0.000 C 
ATOM      9  C   UNL     1      -4.573   0.972 130.878  0.00  0.00    +0.000 C 
ATOM     10  CA  UNL     1      -6.688   0.592 129.395  0.00  0.00    +0.000 C 
ATOM     11  N   UNL     1      -6.742   1.914 128.736  0.00  0.00    +0.000 N 
ATOM     12  C   UNL     1      -7.912   2.384 128.193  0.00  0.00    +0.000 C 
ATOM     13  O   UNL     1      -8.794   1.803 127.586  0.00  0.00    +0.000 OA
ATOM     14  CA  UNL     1      -7.746   3.773 128.866  0.00  0.00    +0.000 C 
BRANCH  10  15
ATOM     15  C   UNL     1      -6.030  -0.463 128.472  0.00  0.00    +0.000 C 
ATOM     16  OXT UNL     1      -6.325  -1.652 128.513  0.00  0.00    +0.000 OA
BRANCH  15  17
ATOM     17  O   UNL     1      -5.068  -0.077 127.608  0.00  0.00    +0.000 OA
ATOM     18  H   UNL     1      -4.812   0.854 127.529  0.00  0.00    +0.000 HD
ENDBRANCH  15  17
ENDBRANCH  10  15
ENDBRANCH   1  14
BRANCH   2  19
ATOM     19  C   UNL     1     -10.698   5.878 130.283  0.00  0.00    +0.000 C 
BRANCH  19  20
ATOM     20  C   UNL     1     -11.644   6.805 129.518  0.00  0.00    +0.000 A 
ATOM     21  C   UNL     1     -11.475   8.200 129.556  0.00  0.00    +0.000 A 
ATOM     22  C   UNL     1     -12.451   9.034 129.000  0.00  0.00    +0.000 A 
ATOM     23  C   UNL     1     -13.513   8.489 128.277  0.00  0.00    +0.000 A 
ATOM     24  C   UNL     1     -13.680   7.115 128.220  0.00  0.00    +0.000 A 
ATOM     25  C   UNL     1     -12.806   6.295 128.918  0.00  0.00    +0.000 A 
ENDBRANCH  19  20
BRANCH  19  26
ATOM     26  C   UNL     1     -10.078   6.441 131.563  0.00  0.00    +0.000 C 
ATOM     27  O   UNL     1      -8.915   6.839 131.585  0.00  0.00    +0.000 OA
BRANCH  26  28
ATOM     28  O   UNL     1     -10.797   6.467 132.707  0.00  0.00    +0.000 OA
ATOM     29  H   UNL     1     -10.779   5.685 133.291  0.00  0.00    +0.000 HD
ENDBRANCH  26  28
ENDBRANCH  19  26
ENDBRANCH   2  19
TORSDOF 7
ENDMDL
MODEL 6
REMARK VINA RESULT:      -7.2      6.046      7.809
REMARK  Name = Carbenicillin
REMARK  9 active torsions:
REMARK  status: ('A' for Active; 'I' for Inactive)
REMARK    1  A    between atoms: C_4  and  C_5
REMARK    2  A    between atoms: C_4  and  C_6
REMARK    3  A    between atoms: CA_7  and  C_25
REMARK    4  A    between atoms: CA_11  and  N_12
REMARK    5  A    between atoms: C_13  and  C_15
REMARK    6  A    between atoms: C_15  and  C_16
REMARK    7  A    between atoms: C_15  and  C_19
REMARK    8  A    between atoms: C_16  and  O_17
REMARK    9  A    between atoms: C_25  and  O_26
REMARK                            x       y       z     vdW  Elec       q    Type
REMARK                         _______ _______ _______ _____ _____    ______ ____
ROOT
ATOM      1  N   UNL     1      -8.884   4.694 129.822  0.00  0.00    +0.000 N 
ATOM      2  C   UNL     1      -9.792   5.595 129.305  0.00  0.00    +0.000 C 
ATOM      3  O   UNL     1      -9.572   6.126 128.214  0.00  0.00    +0.000 OA
ATOM      4  H   UNL     1      -9.011   4.350 130.774  0.00  0.00    +0.000 HD
ENDROOT
BRANCH   1  14
ATOM      5  C   UNL     1      -6.294   4.518 129.937  0.00  0.00    +0.000 C 
ATOM      6  S   UNL     1      -6.418   4.366 131.752  0.00  0.00    +0.000 S 
ATOM      7  C   UNL     1      -5.146   2.996 131.754  0.00  0.00    +0.000 C 
ATOM      8  C   UNL     1      -5.376   2.194 133.038  0.00  0.00    +0.000 C 
ATOM      9  C   UNL     1      -3.783   3.710 131.740  0.00  0.00    +0.000 C 
ATOM     10  CA  UNL     1      -5.484   2.180 130.484  0.00  0.00    +0.000 C 
ATOM     11  N   UNL     1      -5.965   3.153 129.480  0.00  0.00    +0.000 N 
ATOM     12  C   UNL     1      -7.178   2.985 128.859  0.00  0.00    +0.000 C 
ATOM     13  O   UNL     1      -7.734   1.975 128.466  0.00  0.00    +0.000 OA
ATOM     14  CA  UNL     1      -7.586   4.461 129.108  0.00  0.00    +0.000 C 
BRANCH  10  15
ATOM     15  C   UNL     1      -4.413   1.240 129.879  0.00  0.00    +0.000 C 
ATOM     16  OXT UNL     1      -4.123   0.159 130.380  0.00  0.00    +0.000 OA
BRANCH  15  17
ATOM     17  O   UNL     1      -3.742   1.627 128.775  0.00  0.00    +0.000 OA
ATOM     18  H   UNL     1      -2.799   1.847 128.814  0.00  0.00    +0.000 HD
ENDBRANCH  15  17
ENDBRANCH  10  15
ENDBRANCH   1  14
BRANCH   2  19
ATOM     19  C   UNL     1     -11.066   5.881 130.127  0.00  0.00    +0.000 C 
BRANCH  19  20
ATOM     20  C   UNL     1     -11.917   6.920 129.396  0.00  0.00    +0.000 A 
ATOM     21  C   UNL     1     -11.790   8.290 129.684  0.00  0.00    +0.000 A 
ATOM     22  C   UNL     1     -12.698   9.202 129.137  0.00  0.00    +0.000 A 
ATOM     23  C   UNL     1     -13.634   8.783 128.191  0.00  0.00    +0.000 A 
ATOM     24  C   UNL     1     -13.757   7.436 127.889  0.00  0.00    +0.000 A 
ATOM     25  C   UNL     1     -12.970   6.514 128.562  0.00  0.00    +0.000 A 
ENDBRANCH  19  20
BRANCH  19  26
ATOM     26  C   UNL     1     -10.719   6.187 131.585  0.00  0.00    +0.000 C 
ATOM     27  O   UNL     1      -9.611   6.619 131.900  0.00  0.00    +0.000 OA
BRANCH  26  28
ATOM     28  O   UNL     1     -11.622   5.941 132.560  0.00  0.00    +0.000 OA
ATOM     29  H   UNL     1     -11.765   6.617 133.250  0.00  0.00    +0.000 HD
ENDBRANCH  26  28
ENDBRANCH  19  26
ENDBRANCH   2  19
TORSDOF 7
ENDMDL
MODEL 7
REMARK VINA RESULT:      -7.2      5.898      7.606
REMARK  Name = Carbenicillin
REMARK  9 active torsions:
REMARK  status: ('A' for Active; 'I' for Inactive)
REMARK    1  A    between atoms: C_4  and  C_5
REMARK    2  A    between atoms: C_4  and  C_6
REMARK    3  A    between atoms: CA_7  and  C_25
REMARK    4  A    between atoms: CA_11  and  N_12
REMARK    5  A    between atoms: C_13  and  C_15
REMARK    6  A    between atoms: C_15  and  C_16
REMARK    7  A    between atoms: C_15  and  C_19
REMARK    8  A    between atoms: C_16  and  O_17
REMARK    9  A    between atoms: C_25  and  O_26
REMARK                            x       y       z     vdW  Elec       q    Type
REMARK                         _______ _______ _______ _____ _____    ______ ____
ROOT
ATOM      1  N   UNL     1      -9.427   3.890 130.929  0.00  0.00    +0.000 N 
ATOM      2  C   UNL     1     -10.644   4.501 130.707  0.00  0.00    +0.000 C 
ATOM      3  O   UNL     1     -11.519   3.909 130.071  0.00  0.00    +0.000 OA
ATOM      4  H   UNL     1      -8.669   4.427 131.350  0.00  0.00    +0.000 HD
ENDROOT
BRANCH   1  14
ATOM      5  C   UNL     1      -8.422   2.560 128.935  0.00  0.00    +0.000 C 
ATOM      6  S   UNL     1      -7.535   4.070 128.418  0.00  0.00    +0.000 S 
ATOM      7  C   UNL     1      -5.983   3.081 128.087  0.00  0.00    +0.000 C 
ATOM      8  C   UNL     1      -4.815   4.067 128.172  0.00  0.00    +0.000 C 
ATOM      9  C   UNL     1      -6.168   2.504 126.671  0.00  0.00    +0.000 C 
ATOM     10  CA  UNL     1      -5.960   2.041 129.232  0.00  0.00    +0.000 C 
ATOM     11  N   UNL     1      -7.371   1.702 129.515  0.00  0.00    +0.000 N 
ATOM     12  C   UNL     1      -7.880   1.806 130.786  0.00  0.00    +0.000 C 
ATOM     13  O   UNL     1      -7.374   1.552 131.865  0.00  0.00    +0.000 OA
ATOM     14  CA  UNL     1      -9.141   2.562 130.293  0.00  0.00    +0.000 C 
BRANCH  10  15
ATOM     15  C   UNL     1      -5.100   0.763 129.078  0.00  0.00    +0.000 C 
ATOM     16  OXT UNL     1      -5.590  -0.342 128.872  0.00  0.00    +0.000 OA
BRANCH  15  17
ATOM     17  O   UNL     1      -3.760   0.849 129.205  0.00  0.00    +0.000 OA
ATOM     18  H   UNL     1      -3.204   1.128 128.462  0.00  0.00    +0.000 HD
ENDBRANCH  15  17
ENDBRANCH  10  15
ENDBRANCH   1  14
BRANCH   2  19
ATOM     19  C   UNL     1     -10.855   5.911 131.295  0.00  0.00    +0.000 C 
BRANCH  19  20
ATOM     20  C   UNL     1     -11.288   6.864 130.180  0.00  0.00    +0.000 A 
ATOM     21  C   UNL     1     -10.526   6.998 129.007  0.00  0.00    +0.000 A 
ATOM     22  C   UNL     1     -10.841   8.000 128.084  0.00  0.00    +0.000 A 
ATOM     23  C   UNL     1     -11.993   8.769 128.245  0.00  0.00    +0.000 A 
ATOM     24  C   UNL     1     -12.761   8.635 129.392  0.00  0.00    +0.000 A 
ATOM     25  C   UNL     1     -12.349   7.760 130.385  0.00  0.00    +0.000 A 
ENDBRANCH  19  20
BRANCH  19  26
ATOM     26  C   UNL     1      -9.648   6.342 132.131  0.00  0.00    +0.000 C 
ATOM     27  O   UNL     1      -8.651   6.831 131.604  0.00  0.00    +0.000 OA
BRANCH  26  28
ATOM     28  O   UNL     1      -9.648   6.147 133.468  0.00  0.00    +0.000 OA
ATOM     29  H   UNL     1      -9.639   6.926 134.057  0.00  0.00    +0.000 HD
ENDBRANCH  26  28
ENDBRANCH  19  26
ENDBRANCH   2  19
TORSDOF 7
ENDMDL
MODEL 8
REMARK VINA RESULT:      -7.2      3.199      8.803
REMARK  Name = Carbenicillin
REMARK  9 active torsions:
REMARK  status: ('A' for Active; 'I' for Inactive)
REMARK    1  A    between atoms: C_4  and  C_5
REMARK    2  A    between atoms: C_4  and  C_6
REMARK    3  A    between atoms: CA_7  and  C_25
REMARK    4  A    between atoms: CA_11  and  N_12
REMARK    5  A    between atoms: C_13  and  C_15
REMARK    6  A    between atoms: C_15  and  C_16
REMARK    7  A    between atoms: C_15  and  C_19
REMARK    8  A    between atoms: C_16  and  O_17
REMARK    9  A    between atoms: C_25  and  O_26
REMARK                            x       y       z     vdW  Elec       q    Type
REMARK                         _______ _______ _______ _____ _____    ______ ____
ROOT
ATOM      1  N   UNL     1      -6.209  -2.531 128.234  0.00  0.00    +0.000 N 
ATOM      2  C   UNL     1      -6.320  -3.238 129.414  0.00  0.00    +0.000 C 
ATOM      3  O   UNL     1      -7.424  -3.371 129.946  0.00  0.00    +0.000 OA
ATOM      4  H   UNL     1      -5.283  -2.322 127.863  0.00  0.00    +0.000 HD
ENDROOT
BRANCH   1  14
ATOM      5  C   UNL     1      -7.226  -0.984 126.411  0.00  0.00    +0.000 C 
ATOM      6  S   UNL     1      -5.731  -1.252 125.397  0.00  0.00    +0.000 S 
ATOM      7  C   UNL     1      -6.775  -1.464 123.860  0.00  0.00    +0.000 C 
ATOM      8  C   UNL     1      -5.932  -2.273 122.872  0.00  0.00    +0.000 C 
ATOM      9  C   UNL     1      -7.058  -0.034 123.365  0.00  0.00    +0.000 C 
ATOM     10  CA  UNL     1      -8.010  -2.251 124.361  0.00  0.00    +0.000 C 
ATOM     11  N   UNL     1      -8.268  -1.786 125.740  0.00  0.00    +0.000 N 
ATOM     12  C   UNL     1      -8.360  -2.678 126.780  0.00  0.00    +0.000 C 
ATOM     13  O   UNL     1      -8.855  -3.789 126.830  0.00  0.00    +0.000 OA
ATOM     14  CA  UNL     1      -7.414  -1.835 127.676  0.00  0.00    +0.000 C 
BRANCH  10  15
ATOM     15  C   UNL     1      -9.308  -2.242 123.518  0.00  0.00    +0.000 C 
ATOM     16  OXT UNL     1      -9.705  -1.245 122.927  0.00  0.00    +0.000 OA
BRANCH  15  17
ATOM     17  O   UNL     1     -10.058  -3.362 123.450  0.00  0.00    +0.000 OA
ATOM     18  H   UNL     1      -9.737  -4.202 123.810  0.00  0.00    +0.000 HD
ENDBRANCH  15  17
ENDBRANCH  10  15
ENDBRANCH   1  14
BRANCH   2  19
ATOM     19  C   UNL     1      -5.033  -3.850 130.005  0.00  0.00    +0.000 C 
BRANCH  19  20
ATOM     20  C   UNL     1      -5.163  -3.927 131.527  0.00  0.00    +0.000 A 
ATOM     21  C   UNL     1      -4.918  -2.801 132.332  0.00  0.00    +0.000 A 
ATOM     22  C   UNL     1      -4.868  -2.938 133.722  0.00  0.00    +0.000 A 
ATOM     23  C   UNL     1      -5.205  -4.151 134.323  0.00  0.00    +0.000 A 
ATOM     24  C   UNL     1      -5.462  -5.264 133.539  0.00  0.00    +0.000 A 
ATOM     25  C   UNL     1      -5.343  -5.166 132.161  0.00  0.00    +0.000 A 
ENDBRANCH  19  20
BRANCH  19  26
ATOM     26  C   UNL     1      -3.790  -3.142 129.462  0.00  0.00    +0.000 C 
ATOM     27  O   UNL     1      -2.800  -3.778 129.105  0.00  0.00    +0.000 OA
BRANCH  26  28
ATOM     28  O   UNL     1      -3.752  -1.792 129.407  0.00  0.00    +0.000 OA
ATOM     29  H   UNL     1      -3.261  -1.308 130.099  0.00  0.00    +0.000 HD
ENDBRANCH  26  28
ENDBRANCH  19  26
ENDBRANCH   2  19
TORSDOF 7
ENDMDL
MODEL 9
REMARK VINA RESULT:      -7.1      6.329      7.527
REMARK  Name = Carbenicillin
REMARK  9 active torsions:
REMARK  status: ('A' for Active; 'I' for Inactive)
REMARK    1  A    between atoms: C_4  and  C_5
REMARK    2  A    between atoms: C_4  and  C_6
REMARK    3  A    between atoms: CA_7  and  C_25
REMARK    4  A    between atoms: CA_11  and  N_12
REMARK    5  A    between atoms: C_13  and  C_15
REMARK    6  A    between atoms: C_15  and  C_16
REMARK    7  A    between atoms: C_15  and  C_19
REMARK    8  A    between atoms: C_16  and  O_17
REMARK    9  A    between atoms: C_25  and  O_26
REMARK                            x       y       z     vdW  Elec       q    Type
REMARK                         _______ _______ _______ _____ _____    ______ ____
ROOT
ATOM      1  N   UNL     1      -9.287   3.809 130.996  0.00  0.00    +0.000 N 
ATOM      2  C   UNL     1     -10.452   4.518 130.791  0.00  0.00    +0.000 C 
ATOM      3  O   UNL     1     -11.332   4.052 130.066  0.00  0.00    +0.000 OA
ATOM      4  H   UNL     1      -8.516   4.250 131.498  0.00  0.00    +0.000 HD
ENDROOT
BRANCH   1  14
ATOM      5  C   UNL     1      -7.605   2.147 129.916  0.00  0.00    +0.000 C 
ATOM      6  S   UNL     1      -6.261   2.948 130.857  0.00  0.00    +0.000 S 
ATOM      7  C   UNL     1      -5.529   1.282 131.287  0.00  0.00    +0.000 C 
ATOM      8  C   UNL     1      -4.693   1.489 132.552  0.00  0.00    +0.000 C 
ATOM      9  C   UNL     1      -4.670   0.893 130.069  0.00  0.00    +0.000 C 
ATOM     10  CA  UNL     1      -6.768   0.391 131.540  0.00  0.00    +0.000 C 
ATOM     11  N   UNL     1      -7.815   0.860 130.607  0.00  0.00    +0.000 N 
ATOM     12  C   UNL     1      -9.058   1.220 131.066  0.00  0.00    +0.000 C 
ATOM     13  O   UNL     1      -9.750   0.735 131.943  0.00  0.00    +0.000 OA
ATOM     14  CA  UNL     1      -9.056   2.534 130.241  0.00  0.00    +0.000 C 
BRANCH  10  15
ATOM     15  C   UNL     1      -6.619  -1.149 131.481  0.00  0.00    +0.000 C 
ATOM     16  OXT UNL     1      -7.079  -1.823 130.567  0.00  0.00    +0.000 OA
BRANCH  15  17
ATOM     17  O   UNL     1      -5.989  -1.790 132.487  0.00  0.00    +0.000 OA
ATOM     18  H   UNL     1      -6.386  -2.565 132.913  0.00  0.00    +0.000 HD
ENDBRANCH  15  17
ENDBRANCH  10  15
ENDBRANCH   1  14
BRANCH   2  19
ATOM     19  C   UNL     1     -10.600   5.875 131.510  0.00  0.00    +0.000 C 
BRANCH  19  20
ATOM     20  C   UNL     1     -11.023   6.940 130.497  0.00  0.00    +0.000 A 
ATOM     21  C   UNL     1     -12.315   7.492 130.527  0.00  0.00    +0.000 A 
ATOM     22  C   UNL     1     -12.737   8.329 129.488  0.00  0.00    +0.000 A 
ATOM     23  C   UNL     1     -11.838   8.738 128.504  0.00  0.00    +0.000 A 
ATOM     24  C   UNL     1     -10.556   8.210 128.474  0.00  0.00    +0.000 A 
ATOM     25  C   UNL     1     -10.196   7.250 129.406  0.00  0.00    +0.000 A 
ENDBRANCH  19  20
BRANCH  19  26
ATOM     26  C   UNL     1      -9.360   6.187 132.351  0.00  0.00    +0.000 C 
ATOM     27  O   UNL     1      -8.252   6.309 131.831  0.00  0.00    +0.000 OA
BRANCH  26  28
ATOM     28  O   UNL     1      -9.465   6.292 133.694  0.00  0.00    +0.000 OA
ATOM     29  H   UNL     1      -8.651   6.259 134.233  0.00  0.00    +0.000 HD
ENDBRANCH  26  28
ENDBRANCH  19  26
ENDBRANCH   2  19
TORSDOF 7
ENDMDL
