MODEL 1
REMARK VINA RESULT:      -4.8      0.000      0.000
REMARK  Name = Carbimazole
REMARK  4 active torsions:
REMARK  status: ('A' for Active; 'I' for Inactive)
REMARK    1  A    between atoms: C_1  and  C_2
REMARK    2  A    between atoms: C_2  and  O_3
REMARK    3  A    between atoms: O_3  and  C_4
REMARK    4  A    between atoms: N_9  and  C_10
REMARK                            x       y       z     vdW  Elec       q    Type
REMARK                         _______ _______ _______ _____ _____    ______ ____
ROOT
ATOM      1  C   UNL     1     -10.114   5.622 129.791  0.00  0.00    +0.000 C 
ATOM      2  O   UNL     1      -8.984   5.938 129.414  0.00  0.00    +0.000 OA
ATOM      3  N   UNL     1     -11.099   6.548 130.111  0.00  0.00    +0.000 N 
ATOM      4  C   UNL     1     -12.002   6.483 131.166  0.00  0.00    +0.000 A 
ATOM      5  C   UNL     1     -12.779   7.578 131.164  0.00  0.00    +0.000 A 
ATOM      6  N   UNL     1     -12.440   8.369 130.089  0.00  0.00    +0.000 N 
ATOM      7  C   UNL     1     -13.076   9.616 129.727  0.00  0.00    +0.000 C 
ATOM      8  C   UNL     1     -11.379   7.746 129.374  0.00  0.00    +0.000 A 
ATOM      9  S   UNL     1     -10.690   8.291 127.959  0.00  0.00    +0.000 S 
ENDROOT
BRANCH   1  10
ATOM     10  O   UNL     1     -10.485   4.313 129.966  0.00  0.00    +0.000 OA
BRANCH  10  12
ATOM     11  C   UNL     1      -9.930   2.480 131.455  0.00  0.00    +0.000 C 
ATOM     12  C   UNL     1      -9.404   3.483 130.443  0.00  0.00    +0.000 C 
ENDBRANCH  10  12
ENDBRANCH   1  10
TORSDOF 2
ENDMDL
MODEL 2
REMARK VINA RESULT:      -4.7      1.944      2.709
REMARK  Name = Carbimazole
REMARK  4 active torsions:
REMARK  status: ('A' for Active; 'I' for Inactive)
REMARK    1  A    between atoms: C_1  and  C_2
REMARK    2  A    between atoms: C_2  and  O_3
REMARK    3  A    between atoms: O_3  and  C_4
REMARK    4  A    between atoms: N_9  and  C_10
REMARK                            x       y       z     vdW  Elec       q    Type
REMARK                         _______ _______ _______ _____ _____    ______ ____
ROOT
ATOM      1  C   UNL     1     -10.031   5.577 129.459  0.00  0.00    +0.000 C 
ATOM      2  O   UNL     1     -10.618   4.647 130.015  0.00  0.00    +0.000 OA
ATOM      3  N   UNL     1     -10.679   6.702 128.964  0.00  0.00    +0.000 N 
ATOM      4  C   UNL     1     -10.413   7.368 127.774  0.00  0.00    +0.000 A 
ATOM      5  C   UNL     1     -11.268   8.394 127.629  0.00  0.00    +0.000 A 
ATOM      6  N   UNL     1     -12.088   8.456 128.733  0.00  0.00    +0.000 N 
ATOM      7  C   UNL     1     -13.117   9.445 128.963  0.00  0.00    +0.000 C 
ATOM      8  C   UNL     1     -11.742   7.403 129.626  0.00  0.00    +0.000 A 
ATOM      9  S   UNL     1     -12.405   7.124 131.128  0.00  0.00    +0.000 S 
ENDROOT
BRANCH   1  10
ATOM     10  O   UNL     1      -8.676   5.560 129.244  0.00  0.00    +0.000 OA
BRANCH  10  12
ATOM     11  C   UNL     1      -7.803   6.759 131.164  0.00  0.00    +0.000 C 
ATOM     12  C   UNL     1      -7.917   5.416 130.465  0.00  0.00    +0.000 C 
ENDBRANCH  10  12
ENDBRANCH   1  10
TORSDOF 2
ENDMDL
MODEL 3
REMARK VINA RESULT:      -4.6      2.428      4.583
REMARK  Name = Carbimazole
REMARK  4 active torsions:
REMARK  status: ('A' for Active; 'I' for Inactive)
REMARK    1  A    between atoms: C_1  and  C_2
REMARK    2  A    between atoms: C_2  and  O_3
REMARK    3  A    between atoms: O_3  and  C_4
REMARK    4  A    between atoms: N_9  and  C_10
REMARK                            x       y       z     vdW  Elec       q    Type
REMARK                         _______ _______ _______ _____ _____    ______ ____
ROOT
ATOM      1  C   UNL     1     -10.646   7.671 129.553  0.00  0.00    +0.000 C 
ATOM      2  O   UNL     1      -9.769   8.266 128.925  0.00  0.00    +0.000 OA
ATOM      3  N   UNL     1     -10.490   6.382 130.048  0.00  0.00    +0.000 N 
ATOM      4  C   UNL     1     -11.435   5.363 130.052  0.00  0.00    +0.000 A 
ATOM      5  C   UNL     1     -10.902   4.254 130.591  0.00  0.00    +0.000 A 
ATOM      6  N   UNL     1      -9.614   4.524 130.994  0.00  0.00    +0.000 N 
ATOM      7  C   UNL     1      -8.725   3.592 131.652  0.00  0.00    +0.000 C 
ATOM      8  C   UNL     1      -9.306   5.878 130.683  0.00  0.00    +0.000 A 
ATOM      9  S   UNL     1      -7.893   6.679 131.053  0.00  0.00    +0.000 S 
ENDROOT
BRANCH   1  10
ATOM     10  O   UNL     1     -11.881   8.223 129.783  0.00  0.00    +0.000 OA
BRANCH  10  12
ATOM     11  C   UNL     1     -13.501   7.812 128.025  0.00  0.00    +0.000 C 
ATOM     12  C   UNL     1     -12.477   8.780 128.591  0.00  0.00    +0.000 C 
ENDBRANCH  10  12
ENDBRANCH   1  10
TORSDOF 2
ENDMDL
MODEL 4
REMARK VINA RESULT:      -4.3      9.545     10.921
REMARK  Name = Carbimazole
REMARK  4 active torsions:
REMARK  status: ('A' for Active; 'I' for Inactive)
REMARK    1  A    between atoms: C_1  and  C_2
REMARK    2  A    between atoms: C_2  and  O_3
REMARK    3  A    between atoms: O_3  and  C_4
REMARK    4  A    between atoms: N_9  and  C_10
REMARK                            x       y       z     vdW  Elec       q    Type
REMARK                         _______ _______ _______ _____ _____    ______ ____
ROOT
ATOM      1  C   UNL     1      -6.776  -2.606 124.791  0.00  0.00    +0.000 C 
ATOM      2  O   UNL     1      -6.476  -2.469 125.978  0.00  0.00    +0.000 OA
ATOM      3  N   UNL     1      -7.669  -1.774 124.128  0.00  0.00    +0.000 N 
ATOM      4  C   UNL     1      -8.639  -2.148 123.205  0.00  0.00    +0.000 A 
ATOM      5  C   UNL     1      -9.324  -1.064 122.805  0.00  0.00    +0.000 A 
ATOM      6  N   UNL     1      -8.800   0.052 123.418  0.00  0.00    +0.000 N 
ATOM      7  C   UNL     1      -9.247   1.412 123.216  0.00  0.00    +0.000 C 
ATOM      8  C   UNL     1      -7.728  -0.347 124.265  0.00  0.00    +0.000 A 
ATOM      9  S   UNL     1      -6.741   0.662 125.148  0.00  0.00    +0.000 S 
ENDROOT
BRANCH   1  10
ATOM     10  O   UNL     1      -6.276  -3.630 124.026  0.00  0.00    +0.000 OA
BRANCH  10  12
ATOM     11  C   UNL     1      -4.154  -4.692 123.523  0.00  0.00    +0.000 C 
ATOM     12  C   UNL     1      -4.926  -3.385 123.575  0.00  0.00    +0.000 C 
ENDBRANCH  10  12
ENDBRANCH   1  10
TORSDOF 2
ENDMDL
MODEL 5
REMARK VINA RESULT:      -4.3      2.865      4.959
REMARK  Name = Carbimazole
REMARK  4 active torsions:
REMARK  status: ('A' for Active; 'I' for Inactive)
REMARK    1  A    between atoms: C_1  and  C_2
REMARK    2  A    between atoms: C_2  and  O_3
REMARK    3  A    between atoms: O_3  and  C_4
REMARK    4  A    between atoms: N_9  and  C_10
REMARK                            x       y       z     vdW  Elec       q    Type
REMARK                         _______ _______ _______ _____ _____    ______ ____
ROOT
ATOM      1  C   UNL     1     -10.313   6.273 129.280  0.00  0.00    +0.000 C 
ATOM      2  O   UNL     1     -11.484   5.891 129.263  0.00  0.00    +0.000 OA
ATOM      3  N   UNL     1      -9.435   5.999 130.321  0.00  0.00    +0.000 N 
ATOM      4  C   UNL     1      -8.496   6.860 130.877  0.00  0.00    +0.000 A 
ATOM      5  C   UNL     1      -7.855   6.242 131.882  0.00  0.00    +0.000 A 
ATOM      6  N   UNL     1      -8.321   4.951 131.987  0.00  0.00    +0.000 N 
ATOM      7  C   UNL     1      -7.851   3.960 132.929  0.00  0.00    +0.000 C 
ATOM      8  C   UNL     1      -9.324   4.740 131.000  0.00  0.00    +0.000 A 
ATOM      9  S   UNL     1     -10.119   3.310 130.691  0.00  0.00    +0.000 S 
ENDROOT
BRANCH   1  10
ATOM     10  O   UNL     1      -9.783   7.045 128.277  0.00  0.00    +0.000 OA
BRANCH  10  12
ATOM     11  C   UNL     1     -11.060   7.763 126.343  0.00  0.00    +0.000 C 
ATOM     12  C   UNL     1     -10.705   8.045 127.793  0.00  0.00    +0.000 C 
ENDBRANCH  10  12
ENDBRANCH   1  10
TORSDOF 2
ENDMDL
MODEL 6
REMARK VINA RESULT:      -4.1      2.603      4.727
REMARK  Name = Carbimazole
REMARK  4 active torsions:
REMARK  status: ('A' for Active; 'I' for Inactive)
REMARK    1  A    between atoms: C_1  and  C_2
REMARK    2  A    between atoms: C_2  and  O_3
REMARK    3  A    between atoms: O_3  and  C_4
REMARK    4  A    between atoms: N_9  and  C_10
REMARK                            x       y       z     vdW  Elec       q    Type
REMARK                         _______ _______ _______ _____ _____    ______ ____
ROOT
ATOM      1  C   UNL     1     -11.382   5.854 130.377  0.00  0.00    +0.000 C 
ATOM      2  O   UNL     1     -11.753   4.996 129.574  0.00  0.00    +0.000 OA
ATOM      3  N   UNL     1     -10.283   5.695 131.211  0.00  0.00    +0.000 N 
ATOM      4  C   UNL     1     -10.176   6.079 132.543  0.00  0.00    +0.000 A 
ATOM      5  C   UNL     1      -8.969   5.732 133.019  0.00  0.00    +0.000 A 
ATOM      6  N   UNL     1      -8.236   5.153 132.007  0.00  0.00    +0.000 N 
ATOM      7  C   UNL     1      -6.875   4.679 132.118  0.00  0.00    +0.000 C 
ATOM      8  C   UNL     1      -9.028   5.118 130.824  0.00  0.00    +0.000 A 
ATOM      9  S   UNL     1      -8.539   4.581 129.326  0.00  0.00    +0.000 S 
ENDROOT
BRANCH   1  10
ATOM     10  O   UNL     1     -12.057   7.037 130.545  0.00  0.00    +0.000 OA
BRANCH  10  12
ATOM     11  C   UNL     1     -12.751   9.156 129.590  0.00  0.00    +0.000 C 
ATOM     12  C   UNL     1     -11.774   7.996 129.503  0.00  0.00    +0.000 C 
ENDBRANCH  10  12
ENDBRANCH   1  10
TORSDOF 2
ENDMDL
MODEL 7
REMARK VINA RESULT:      -3.9      2.849      5.086
REMARK  Name = Carbimazole
REMARK  4 active torsions:
REMARK  status: ('A' for Active; 'I' for Inactive)
REMARK    1  A    between atoms: C_1  and  C_2
REMARK    2  A    between atoms: C_2  and  O_3
REMARK    3  A    between atoms: O_3  and  C_4
REMARK    4  A    between atoms: N_9  and  C_10
REMARK                            x       y       z     vdW  Elec       q    Type
REMARK                         _______ _______ _______ _____ _____    ______ ____
ROOT
ATOM      1  C   UNL     1      -9.663   6.097 129.732  0.00  0.00    +0.000 C 
ATOM      2  O   UNL     1      -8.962   7.091 129.929  0.00  0.00    +0.000 OA
ATOM      3  N   UNL     1      -9.448   4.874 130.356  0.00  0.00    +0.000 N 
ATOM      4  C   UNL     1      -9.547   3.611 129.786  0.00  0.00    +0.000 A 
ATOM      5  C   UNL     1      -9.239   2.676 130.700  0.00  0.00    +0.000 A 
ATOM      6  N   UNL     1      -8.971   3.293 131.901  0.00  0.00    +0.000 N 
ATOM      7  C   UNL     1      -8.634   2.621 133.136  0.00  0.00    +0.000 C 
ATOM      8  C   UNL     1      -9.106   4.701 131.739  0.00  0.00    +0.000 A 
ATOM      9  S   UNL     1      -8.957   5.850 132.934  0.00  0.00    +0.000 S 
ENDROOT
BRANCH   1  10
ATOM     10  O   UNL     1     -10.703   6.104 128.837  0.00  0.00    +0.000 OA
BRANCH  10  12
ATOM     11  C   UNL     1     -10.848   7.688 127.005  0.00  0.00    +0.000 C 
ATOM     12  C   UNL     1     -11.124   7.438 128.478  0.00  0.00    +0.000 C 
ENDBRANCH  10  12
ENDBRANCH   1  10
TORSDOF 2
ENDMDL
MODEL 8
REMARK VINA RESULT:      -3.6      8.440      8.915
REMARK  Name = Carbimazole
REMARK  4 active torsions:
REMARK  status: ('A' for Active; 'I' for Inactive)
REMARK    1  A    between atoms: C_1  and  C_2
REMARK    2  A    between atoms: C_2  and  O_3
REMARK    3  A    between atoms: O_3  and  C_4
REMARK    4  A    between atoms: N_9  and  C_10
REMARK                            x       y       z     vdW  Elec       q    Type
REMARK                         _______ _______ _______ _____ _____    ______ ____
ROOT
ATOM      1  C   UNL     1      -5.820   3.145 124.646  0.00  0.00    +0.000 C 
ATOM      2  O   UNL     1      -5.085   4.075 124.981  0.00  0.00    +0.000 OA
ATOM      3  N   UNL     1      -6.667   3.198 123.547  0.00  0.00    +0.000 N 
ATOM      4  C   UNL     1      -7.965   2.709 123.462  0.00  0.00    +0.000 A 
ATOM      5  C   UNL     1      -8.470   2.973 122.246  0.00  0.00    +0.000 A 
ATOM      6  N   UNL     1      -7.510   3.602 121.487  0.00  0.00    +0.000 N 
ATOM      7  C   UNL     1      -7.662   4.015 120.109  0.00  0.00    +0.000 C 
ATOM      8  C   UNL     1      -6.330   3.757 122.269  0.00  0.00    +0.000 A 
ATOM      9  S   UNL     1      -4.880   4.390 121.752  0.00  0.00    +0.000 S 
ENDROOT
BRANCH   1  10
ATOM     10  O   UNL     1      -5.892   1.978 125.365  0.00  0.00    +0.000 OA
BRANCH  10  12
ATOM     11  C   UNL     1      -5.286   0.912 127.458  0.00  0.00    +0.000 C 
ATOM     12  C   UNL     1      -4.852   1.867 126.360  0.00  0.00    +0.000 C 
ENDBRANCH  10  12
ENDBRANCH   1  10
TORSDOF 2
ENDMDL
MODEL 9
REMARK VINA RESULT:      -3.6      9.323      9.995
REMARK  Name = Carbimazole
REMARK  4 active torsions:
REMARK  status: ('A' for Active; 'I' for Inactive)
REMARK    1  A    between atoms: C_1  and  C_2
REMARK    2  A    between atoms: C_2  and  O_3
REMARK    3  A    between atoms: O_3  and  C_4
REMARK    4  A    between atoms: N_9  and  C_10
REMARK                            x       y       z     vdW  Elec       q    Type
REMARK                         _______ _______ _______ _____ _____    ______ ____
ROOT
ATOM      1  C   UNL     1      -7.741  -1.811 127.691  0.00  0.00    +0.000 C 
ATOM      2  O   UNL     1      -7.749  -0.685 128.191  0.00  0.00    +0.000 OA
ATOM      3  N   UNL     1      -8.236  -2.087 126.423  0.00  0.00    +0.000 N 
ATOM      4  C   UNL     1      -8.977  -3.197 126.035  0.00  0.00    +0.000 A 
ATOM      5  C   UNL     1      -9.297  -3.095 124.734  0.00  0.00    +0.000 A 
ATOM      6  N   UNL     1      -8.743  -1.943 124.224  0.00  0.00    +0.000 N 
ATOM      7  C   UNL     1      -8.835  -1.501 122.850  0.00  0.00    +0.000 C 
ATOM      8  C   UNL     1      -8.040  -1.269 125.262  0.00  0.00    +0.000 A 
ATOM      9  S   UNL     1      -7.144   0.126 125.102  0.00  0.00    +0.000 S 
ENDROOT
BRANCH   1  10
ATOM     10  O   UNL     1      -7.272  -2.907 128.371  0.00  0.00    +0.000 OA
BRANCH  10  12
ATOM     11  C   UNL     1      -6.975  -3.256 130.753  0.00  0.00    +0.000 C 
ATOM     12  C   UNL     1      -7.971  -3.138 129.613  0.00  0.00    +0.000 C 
ENDBRANCH  10  12
ENDBRANCH   1  10
TORSDOF 2
ENDMDL
