MODEL 1
REMARK VINA RESULT:      -6.2      0.000      0.000
REMARK  Name = Carbidopa
REMARK  9 active torsions:
REMARK  status: ('A' for Active; 'I' for Inactive)
REMARK    1  A    between atoms: C_1  and  C_2
REMARK    2  A    between atoms: C_2  and  C_3
REMARK    3  A    between atoms: C_2  and  N_12
REMARK    4  A    between atoms: C_2  and  C_14
REMARK    5  A    between atoms: C_3  and  C_4
REMARK    6  A    between atoms: C_6  and  O_7
REMARK    7  A    between atoms: C_8  and  O_9
REMARK    8  A    between atoms: N_12  and  N_13
REMARK    9  A    between atoms: C_14  and  O_15
REMARK                            x       y       z     vdW  Elec       q    Type
REMARK                         _______ _______ _______ _____ _____    ______ ____
ROOT
ATOM      1  C   UNL     1      -9.096   2.341 123.048  0.00  0.00    +0.000 C 
ATOM      2  C   UNL     1      -7.897   2.828 123.880  0.00  0.00    +0.000 C 
ENDROOT
BRANCH   2   3
ATOM      3  N   UNL     1      -8.035   4.310 124.051  0.00  0.00    +0.000 NA
ATOM      4  H   UNL     1      -8.630   4.679 123.293  0.00  0.00    +0.000 HD
BRANCH   3   5
ATOM      5  N   UNL     1      -8.535   4.698 125.357  0.00  0.00    +0.000 NA
ATOM      6  H   UNL     1      -9.057   3.948 125.818  0.00  0.00    +0.000 HD
ATOM      7  H   UNL     1      -9.141   5.522 125.342  0.00  0.00    +0.000 HD
ENDBRANCH   3   5
ENDBRANCH   2   3
BRANCH   2   8
ATOM      8  C   UNL     1      -7.880   2.220 125.318  0.00  0.00    +0.000 C 
ATOM      9  O   UNL     1      -8.904   1.823 125.878  0.00  0.00    +0.000 OA
BRANCH   8  10
ATOM     10  O   UNL     1      -6.692   2.149 125.955  0.00  0.00    +0.000 OA
ATOM     11  H   UNL     1      -5.973   2.723 125.643  0.00  0.00    +0.000 HD
ENDBRANCH   8  10
ENDBRANCH   2   8
BRANCH   2  12
ATOM     12  C   UNL     1      -6.529   2.490 123.215  0.00  0.00    +0.000 C 
BRANCH  12  13
ATOM     13  C   UNL     1      -6.173   3.371 122.041  0.00  0.00    +0.000 A 
ATOM     14  C   UNL     1      -5.117   4.296 122.124  0.00  0.00    +0.000 A 
ATOM     15  C   UNL     1      -4.885   5.182 121.082  0.00  0.00    +0.000 A 
ATOM     16  C   UNL     1      -5.639   5.089 119.919  0.00  0.00    +0.000 A 
ATOM     17  C   UNL     1      -6.650   4.147 119.799  0.00  0.00    +0.000 A 
ATOM     18  C   UNL     1      -6.928   3.294 120.865  0.00  0.00    +0.000 A 
BRANCH  15  19
ATOM     19  O   UNL     1      -3.937   6.162 121.172  0.00  0.00    +0.000 OA
ATOM     20  H   UNL     1      -3.528   6.284 120.298  0.00  0.00    +0.000 HD
ENDBRANCH  15  19
BRANCH  16  21
ATOM     21  O   UNL     1      -5.391   5.922 118.867  0.00  0.00    +0.000 OA
ATOM     22  H   UNL     1      -5.406   6.821 119.247  0.00  0.00    +0.000 HD
ENDBRANCH  16  21
ENDBRANCH  12  13
ENDBRANCH   2  12
TORSDOF 8
ENDMDL
MODEL 2
REMARK VINA RESULT:      -6.1      2.161      3.005
REMARK  Name = Carbidopa
REMARK  9 active torsions:
REMARK  status: ('A' for Active; 'I' for Inactive)
REMARK    1  A    between atoms: C_1  and  C_2
REMARK    2  A    between atoms: C_2  and  C_3
REMARK    3  A    between atoms: C_2  and  N_12
REMARK    4  A    between atoms: C_2  and  C_14
REMARK    5  A    between atoms: C_3  and  C_4
REMARK    6  A    between atoms: C_6  and  O_7
REMARK    7  A    between atoms: C_8  and  O_9
REMARK    8  A    between atoms: N_12  and  N_13
REMARK    9  A    between atoms: C_14  and  O_15
REMARK                            x       y       z     vdW  Elec       q    Type
REMARK                         _______ _______ _______ _____ _____    ______ ____
ROOT
ATOM      1  C   UNL     1      -7.384   3.037 126.394  0.00  0.00    +0.000 C 
ATOM      2  C   UNL     1      -7.165   3.701 125.024  0.00  0.00    +0.000 C 
ENDROOT
BRANCH   2   3
ATOM      3  N   UNL     1      -8.364   4.550 124.733  0.00  0.00    +0.000 NA
ATOM      4  H   UNL     1      -9.141   3.939 124.435  0.00  0.00    +0.000 HD
BRANCH   3   5
ATOM      5  N   UNL     1      -8.753   5.404 125.840  0.00  0.00    +0.000 NA
ATOM      6  H   UNL     1      -8.804   6.392 125.577  0.00  0.00    +0.000 HD
ATOM      7  H   UNL     1      -8.132   5.340 126.651  0.00  0.00    +0.000 HD
ENDBRANCH   3   5
ENDBRANCH   2   3
BRANCH   2   8
ATOM      8  C   UNL     1      -5.934   4.663 125.015  0.00  0.00    +0.000 C 
ATOM      9  O   UNL     1      -4.777   4.253 125.121  0.00  0.00    +0.000 OA
BRANCH   8  10
ATOM     10  O   UNL     1      -6.173   5.986 124.900  0.00  0.00    +0.000 OA
ATOM     11  H   UNL     1      -5.975   6.553 125.665  0.00  0.00    +0.000 HD
ENDBRANCH   8  10
ENDBRANCH   2   8
BRANCH   2  12
ATOM     12  C   UNL     1      -6.952   2.663 123.882  0.00  0.00    +0.000 C 
BRANCH  12  13
ATOM     13  C   UNL     1      -7.043   3.243 122.490  0.00  0.00    +0.000 A 
ATOM     14  C   UNL     1      -8.284   3.380 121.843  0.00  0.00    +0.000 A 
ATOM     15  C   UNL     1      -8.336   3.798 120.521  0.00  0.00    +0.000 A 
ATOM     16  C   UNL     1      -7.168   4.168 119.869  0.00  0.00    +0.000 A 
ATOM     17  C   UNL     1      -5.939   4.090 120.510  0.00  0.00    +0.000 A 
ATOM     18  C   UNL     1      -5.873   3.615 121.818  0.00  0.00    +0.000 A 
BRANCH  15  19
ATOM     19  O   UNL     1      -9.514   3.841 119.830  0.00  0.00    +0.000 OA
ATOM     20  H   UNL     1     -10.135   4.421 120.303  0.00  0.00    +0.000 HD
ENDBRANCH  15  19
BRANCH  16  21
ATOM     21  O   UNL     1      -7.208   4.626 118.584  0.00  0.00    +0.000 OA
ATOM     22  H   UNL     1      -6.302   4.502 118.243  0.00  0.00    +0.000 HD
ENDBRANCH  16  21
ENDBRANCH  12  13
ENDBRANCH   2  12
TORSDOF 8
ENDMDL
MODEL 3
REMARK VINA RESULT:      -6.0      3.185      5.222
REMARK  Name = Carbidopa
REMARK  9 active torsions:
REMARK  status: ('A' for Active; 'I' for Inactive)
REMARK    1  A    between atoms: C_1  and  C_2
REMARK    2  A    between atoms: C_2  and  C_3
REMARK    3  A    between atoms: C_2  and  N_12
REMARK    4  A    between atoms: C_2  and  C_14
REMARK    5  A    between atoms: C_3  and  C_4
REMARK    6  A    between atoms: C_6  and  O_7
REMARK    7  A    between atoms: C_8  and  O_9
REMARK    8  A    between atoms: N_12  and  N_13
REMARK    9  A    between atoms: C_14  and  O_15
REMARK                            x       y       z     vdW  Elec       q    Type
REMARK                         _______ _______ _______ _____ _____    ______ ____
ROOT
ATOM      1  C   UNL     1      -7.651   2.635 126.346  0.00  0.00    +0.000 C 
ATOM      2  C   UNL     1      -7.590   3.731 125.268  0.00  0.00    +0.000 C 
ENDROOT
BRANCH   2   3
ATOM      3  N   UNL     1      -8.916   4.428 125.253  0.00  0.00    +0.000 NA
ATOM      4  H   UNL     1      -9.618   3.820 125.703  0.00  0.00    +0.000 HD
BRANCH   3   5
ATOM      5  N   UNL     1      -8.885   5.745 125.860  0.00  0.00    +0.000 NA
ATOM      6  H   UNL     1      -7.941   6.139 125.899  0.00  0.00    +0.000 HD
ATOM      7  H   UNL     1      -9.263   5.773 126.811  0.00  0.00    +0.000 HD
ENDBRANCH   3   5
ENDBRANCH   2   3
BRANCH   2   8
ATOM      8  C   UNL     1      -6.523   4.826 125.587  0.00  0.00    +0.000 C 
ATOM      9  O   UNL     1      -5.977   4.913 126.689  0.00  0.00    +0.000 OA
BRANCH   8  10
ATOM     10  O   UNL     1      -6.213   5.704 124.610  0.00  0.00    +0.000 OA
ATOM     11  H   UNL     1      -6.124   6.641 124.852  0.00  0.00    +0.000 HD
ENDBRANCH   8  10
ENDBRANCH   2   8
BRANCH   2  12
ATOM     12  C   UNL     1      -7.266   3.163 123.854  0.00  0.00    +0.000 C 
BRANCH  12  13
ATOM     13  C   UNL     1      -7.957   1.858 123.535  0.00  0.00    +0.000 A 
ATOM     14  C   UNL     1      -9.317   1.828 123.176  0.00  0.00    +0.000 A 
ATOM     15  C   UNL     1      -9.964   0.612 123.008  0.00  0.00    +0.000 A 
ATOM     16  C   UNL     1      -9.243  -0.571 123.102  0.00  0.00    +0.000 A 
ATOM     17  C   UNL     1      -7.889  -0.557 123.403  0.00  0.00    +0.000 A 
ATOM     18  C   UNL     1      -7.246   0.657 123.632  0.00  0.00    +0.000 A 
BRANCH  15  19
ATOM     19  O   UNL     1     -11.307   0.544 122.764  0.00  0.00    +0.000 OA
ATOM     20  H   UNL     1     -11.445   0.212 121.860  0.00  0.00    +0.000 HD
ENDBRANCH  15  19
BRANCH  16  21
ATOM     21  O   UNL     1      -9.856  -1.772 122.892  0.00  0.00    +0.000 OA
ATOM     22  H   UNL     1      -9.508  -2.358 123.591  0.00  0.00    +0.000 HD
ENDBRANCH  16  21
ENDBRANCH  12  13
ENDBRANCH   2  12
TORSDOF 8
ENDMDL
MODEL 4
REMARK VINA RESULT:      -5.9      9.301     10.760
REMARK  Name = Carbidopa
REMARK  9 active torsions:
REMARK  status: ('A' for Active; 'I' for Inactive)
REMARK    1  A    between atoms: C_1  and  C_2
REMARK    2  A    between atoms: C_2  and  C_3
REMARK    3  A    between atoms: C_2  and  N_12
REMARK    4  A    between atoms: C_2  and  C_14
REMARK    5  A    between atoms: C_3  and  C_4
REMARK    6  A    between atoms: C_6  and  O_7
REMARK    7  A    between atoms: C_8  and  O_9
REMARK    8  A    between atoms: N_12  and  N_13
REMARK    9  A    between atoms: C_14  and  O_15
REMARK                            x       y       z     vdW  Elec       q    Type
REMARK                         _______ _______ _______ _____ _____    ______ ____
ROOT
ATOM      1  C   UNL     1     -13.083   7.340 127.989  0.00  0.00    +0.000 C 
ATOM      2  C   UNL     1     -12.523   7.949 129.285  0.00  0.00    +0.000 C 
ENDROOT
BRANCH   2   3
ATOM      3  N   UNL     1     -11.035   8.050 129.136  0.00  0.00    +0.000 NA
ATOM      4  H   UNL     1     -10.638   7.098 129.113  0.00  0.00    +0.000 HD
BRANCH   3   5
ATOM      5  N   UNL     1     -10.621   8.827 127.983  0.00  0.00    +0.000 NA
ATOM      6  H   UNL     1     -11.407   9.098 127.386  0.00  0.00    +0.000 HD
ATOM      7  H   UNL     1      -9.938   8.353 127.386  0.00  0.00    +0.000 HD
ENDBRANCH   3   5
ENDBRANCH   2   3
BRANCH   2   8
ATOM      8  C   UNL     1     -13.038   9.402 129.535  0.00  0.00    +0.000 C 
ATOM      9  O   UNL     1     -13.102   9.893 130.664  0.00  0.00    +0.000 OA
BRANCH   8  10
ATOM     10  O   UNL     1     -13.432  10.122 128.464  0.00  0.00    +0.000 OA
ATOM     11  H   UNL     1     -12.970   9.974 127.621  0.00  0.00    +0.000 HD
ENDBRANCH   8  10
ENDBRANCH   2   8
BRANCH   2  12
ATOM     12  C   UNL     1     -12.879   7.106 130.546  0.00  0.00    +0.000 C 
BRANCH  12  13
ATOM     13  C   UNL     1     -11.753   6.234 131.050  0.00  0.00    +0.000 A 
ATOM     14  C   UNL     1     -11.033   6.578 132.208  0.00  0.00    +0.000 A 
ATOM     15  C   UNL     1      -9.925   5.832 132.584  0.00  0.00    +0.000 A 
ATOM     16  C   UNL     1      -9.586   4.693 131.867  0.00  0.00    +0.000 A 
ATOM     17  C   UNL     1     -10.317   4.309 130.753  0.00  0.00    +0.000 A 
ATOM     18  C   UNL     1     -11.395   5.086 130.334  0.00  0.00    +0.000 A 
BRANCH  15  19
ATOM     19  O   UNL     1      -9.141   6.199 133.642  0.00  0.00    +0.000 OA
ATOM     20  H   UNL     1      -9.208   5.518 134.333  0.00  0.00    +0.000 HD
ENDBRANCH  15  19
BRANCH  16  21
ATOM     21  O   UNL     1      -8.527   3.923 132.253  0.00  0.00    +0.000 OA
ATOM     22  H   UNL     1      -8.098   4.426 132.972  0.00  0.00    +0.000 HD
ENDBRANCH  16  21
ENDBRANCH  12  13
ENDBRANCH   2  12
TORSDOF 8
ENDMDL
MODEL 5
REMARK VINA RESULT:      -5.8      8.954      9.970
REMARK  Name = Carbidopa
REMARK  9 active torsions:
REMARK  status: ('A' for Active; 'I' for Inactive)
REMARK    1  A    between atoms: C_1  and  C_2
REMARK    2  A    between atoms: C_2  and  C_3
REMARK    3  A    between atoms: C_2  and  N_12
REMARK    4  A    between atoms: C_2  and  C_14
REMARK    5  A    between atoms: C_3  and  C_4
REMARK    6  A    between atoms: C_6  and  O_7
REMARK    7  A    between atoms: C_8  and  O_9
REMARK    8  A    between atoms: N_12  and  N_13
REMARK    9  A    between atoms: C_14  and  O_15
REMARK                            x       y       z     vdW  Elec       q    Type
REMARK                         _______ _______ _______ _____ _____    ______ ____
ROOT
ATOM      1  C   UNL     1      -7.703   4.050 131.272  0.00  0.00    +0.000 C 
ATOM      2  C   UNL     1      -9.021   4.287 132.029  0.00  0.00    +0.000 C 
ENDROOT
BRANCH   2   3
ATOM      3  N   UNL     1     -10.135   3.751 131.181  0.00  0.00    +0.000 NA
ATOM      4  H   UNL     1      -9.836   3.761 130.193  0.00  0.00    +0.000 HD
BRANCH   3   5
ATOM      5  N   UNL     1     -10.590   2.435 131.587  0.00  0.00    +0.000 NA
ATOM      6  H   UNL     1     -11.025   2.436 132.513  0.00  0.00    +0.000 HD
ATOM      7  H   UNL     1      -9.851   1.727 131.602  0.00  0.00    +0.000 HD
ENDBRANCH   3   5
ENDBRANCH   2   3
BRANCH   2   8
ATOM      8  C   UNL     1      -9.084   3.506 133.380  0.00  0.00    +0.000 C 
ATOM      9  O   UNL     1      -8.367   2.530 133.611  0.00  0.00    +0.000 OA
BRANCH   8  10
ATOM     10  O   UNL     1      -9.972   3.925 134.306  0.00  0.00    +0.000 OA
ATOM     11  H   UNL     1      -9.638   4.128 135.197  0.00  0.00    +0.000 HD
ENDBRANCH   8  10
ENDBRANCH   2   8
BRANCH   2  12
ATOM     12  C   UNL     1      -9.266   5.791 132.349  0.00  0.00    +0.000 C 
BRANCH  12  13
ATOM     13  C   UNL     1     -10.202   6.487 131.388  0.00  0.00    +0.000 A 
ATOM     14  C   UNL     1      -9.722   7.056 130.194  0.00  0.00    +0.000 A 
ATOM     15  C   UNL     1     -10.572   7.797 129.387  0.00  0.00    +0.000 A 
ATOM     16  C   UNL     1     -11.918   7.897 129.713  0.00  0.00    +0.000 A 
ATOM     17  C   UNL     1     -12.420   7.297 130.859  0.00  0.00    +0.000 A 
ATOM     18  C   UNL     1     -11.560   6.602 131.706  0.00  0.00    +0.000 A 
BRANCH  15  19
ATOM     19  O   UNL     1     -10.116   8.451 128.277  0.00  0.00    +0.000 OA
ATOM     20  H   UNL     1      -9.226   8.797 128.460  0.00  0.00    +0.000 HD
ENDBRANCH  15  19
BRANCH  16  21
ATOM     21  O   UNL     1     -12.777   8.582 128.903  0.00  0.00    +0.000 OA
ATOM     22  H   UNL     1     -12.246   9.316 128.536  0.00  0.00    +0.000 HD
ENDBRANCH  16  21
ENDBRANCH  12  13
ENDBRANCH   2  12
TORSDOF 8
ENDMDL
MODEL 6
REMARK VINA RESULT:      -5.6      8.773      9.881
REMARK  Name = Carbidopa
REMARK  9 active torsions:
REMARK  status: ('A' for Active; 'I' for Inactive)
REMARK    1  A    between atoms: C_1  and  C_2
REMARK    2  A    between atoms: C_2  and  C_3
REMARK    3  A    between atoms: C_2  and  N_12
REMARK    4  A    between atoms: C_2  and  C_14
REMARK    5  A    between atoms: C_3  and  C_4
REMARK    6  A    between atoms: C_6  and  O_7
REMARK    7  A    between atoms: C_8  and  O_9
REMARK    8  A    between atoms: N_12  and  N_13
REMARK    9  A    between atoms: C_14  and  O_15
REMARK                            x       y       z     vdW  Elec       q    Type
REMARK                         _______ _______ _______ _____ _____    ______ ____
ROOT
ATOM      1  C   UNL     1      -9.279   3.914 132.201  0.00  0.00    +0.000 C 
ATOM      2  C   UNL     1      -9.739   5.260 131.614  0.00  0.00    +0.000 C 
ENDROOT
BRANCH   2   3
ATOM      3  N   UNL     1     -10.056   6.171 132.761  0.00  0.00    +0.000 NA
ATOM      4  H   UNL     1     -10.987   5.928 133.133  0.00  0.00    +0.000 HD
BRANCH   3   5
ATOM      5  N   UNL     1      -9.047   6.162 133.803  0.00  0.00    +0.000 NA
ATOM      6  H   UNL     1      -8.579   5.256 133.892  0.00  0.00    +0.000 HD
ATOM      7  H   UNL     1      -9.405   6.408 134.730  0.00  0.00    +0.000 HD
ENDBRANCH   3   5
ENDBRANCH   2   3
BRANCH   2   8
ATOM      8  C   UNL     1      -8.619   5.967 130.788  0.00  0.00    +0.000 C 
ATOM      9  O   UNL     1      -8.202   7.092 131.072  0.00  0.00    +0.000 OA
BRANCH   8  10
ATOM     10  O   UNL     1      -8.116   5.311 129.722  0.00  0.00    +0.000 OA
ATOM     11  H   UNL     1      -8.700   5.168 128.958  0.00  0.00    +0.000 HD
ENDBRANCH   8  10
ENDBRANCH   2   8
BRANCH   2  12
ATOM     12  C   UNL     1     -10.982   5.115 130.685  0.00  0.00    +0.000 C 
BRANCH  12  13
ATOM     13  C   UNL     1     -11.528   6.426 130.169  0.00  0.00    +0.000 A 
ATOM     14  C   UNL     1     -11.091   6.960 128.943  0.00  0.00    +0.000 A 
ATOM     15  C   UNL     1     -11.510   8.221 128.546  0.00  0.00    +0.000 A 
ATOM     16  C   UNL     1     -12.435   8.914 129.316  0.00  0.00    +0.000 A 
ATOM     17  C   UNL     1     -12.917   8.379 130.502  0.00  0.00    +0.000 A 
ATOM     18  C   UNL     1     -12.455   7.139 130.937  0.00  0.00    +0.000 A 
BRANCH  15  19
ATOM     19  O   UNL     1     -11.024   8.814 127.415  0.00  0.00    +0.000 OA
ATOM     20  H   UNL     1     -10.300   8.269 127.061  0.00  0.00    +0.000 HD
ENDBRANCH  15  19
BRANCH  16  21
ATOM     21  O   UNL     1     -12.892  10.135 128.914  0.00  0.00    +0.000 OA
ATOM     22  H   UNL     1     -12.523  10.768 129.559  0.00  0.00    +0.000 HD
ENDBRANCH  16  21
ENDBRANCH  12  13
ENDBRANCH   2  12
TORSDOF 8
ENDMDL
MODEL 7
REMARK VINA RESULT:      -5.6      8.919     10.564
REMARK  Name = Carbidopa
REMARK  9 active torsions:
REMARK  status: ('A' for Active; 'I' for Inactive)
REMARK    1  A    between atoms: C_1  and  C_2
REMARK    2  A    between atoms: C_2  and  C_3
REMARK    3  A    between atoms: C_2  and  N_12
REMARK    4  A    between atoms: C_2  and  C_14
REMARK    5  A    between atoms: C_3  and  C_4
REMARK    6  A    between atoms: C_6  and  O_7
REMARK    7  A    between atoms: C_8  and  O_9
REMARK    8  A    between atoms: N_12  and  N_13
REMARK    9  A    between atoms: C_14  and  O_15
REMARK                            x       y       z     vdW  Elec       q    Type
REMARK                         _______ _______ _______ _____ _____    ______ ____
ROOT
ATOM      1  C   UNL     1     -12.731   7.225 130.973  0.00  0.00    +0.000 C 
ATOM      2  C   UNL     1     -11.846   7.266 129.715  0.00  0.00    +0.000 C 
ENDROOT
BRANCH   2   3
ATOM      3  N   UNL     1     -12.352   6.220 128.769  0.00  0.00    +0.000 NA
ATOM      4  H   UNL     1     -13.212   5.805 129.160  0.00  0.00    +0.000 HD
BRANCH   3   5
ATOM      5  N   UNL     1     -12.564   6.713 127.421  0.00  0.00    +0.000 NA
ATOM      6  H   UNL     1     -11.695   7.008 126.968  0.00  0.00    +0.000 HD
ATOM      7  H   UNL     1     -13.215   7.500 127.364  0.00  0.00    +0.000 HD
ENDBRANCH   3   5
ENDBRANCH   2   3
BRANCH   2   8
ATOM      8  C   UNL     1     -11.945   8.627 128.958  0.00  0.00    +0.000 C 
ATOM      9  O   UNL     1     -12.915   9.378 129.076  0.00  0.00    +0.000 OA
BRANCH   8  10
ATOM     10  O   UNL     1     -10.926   8.966 128.141  0.00  0.00    +0.000 OA
ATOM     11  H   UNL     1     -10.527   9.847 128.251  0.00  0.00    +0.000 HD
ENDBRANCH   8  10
ENDBRANCH   2   8
BRANCH   2  12
ATOM     12  C   UNL     1     -10.342   7.018 130.033  0.00  0.00    +0.000 C 
BRANCH  12  13
ATOM     13  C   UNL     1     -10.082   5.827 130.926  0.00  0.00    +0.000 A 
ATOM     14  C   UNL     1      -9.739   5.998 132.280  0.00  0.00    +0.000 A 
ATOM     15  C   UNL     1      -9.384   4.900 133.050  0.00  0.00    +0.000 A 
ATOM     16  C   UNL     1      -9.460   3.624 132.508  0.00  0.00    +0.000 A 
ATOM     17  C   UNL     1      -9.848   3.433 131.190  0.00  0.00    +0.000 A 
ATOM     18  C   UNL     1     -10.148   4.535 130.392  0.00  0.00    +0.000 A 
BRANCH  15  19
ATOM     19  O   UNL     1      -8.943   5.041 134.336  0.00  0.00    +0.000 OA
ATOM     20  H   UNL     1      -8.530   5.916 134.433  0.00  0.00    +0.000 HD
ENDBRANCH  15  19
BRANCH  16  21
ATOM     21  O   UNL     1      -9.159   2.531 133.268  0.00  0.00    +0.000 OA
ATOM     22  H   UNL     1      -9.148   1.783 132.641  0.00  0.00    +0.000 HD
ENDBRANCH  16  21
ENDBRANCH  12  13
ENDBRANCH   2  12
TORSDOF 8
ENDMDL
MODEL 8
REMARK VINA RESULT:      -5.4      3.966      5.560
REMARK  Name = Carbidopa
REMARK  9 active torsions:
REMARK  status: ('A' for Active; 'I' for Inactive)
REMARK    1  A    between atoms: C_1  and  C_2
REMARK    2  A    between atoms: C_2  and  C_3
REMARK    3  A    between atoms: C_2  and  N_12
REMARK    4  A    between atoms: C_2  and  C_14
REMARK    5  A    between atoms: C_3  and  C_4
REMARK    6  A    between atoms: C_6  and  O_7
REMARK    7  A    between atoms: C_8  and  O_9
REMARK    8  A    between atoms: N_12  and  N_13
REMARK    9  A    between atoms: C_14  and  O_15
REMARK                            x       y       z     vdW  Elec       q    Type
REMARK                         _______ _______ _______ _____ _____    ______ ____
ROOT
ATOM      1  C   UNL     1      -5.817   4.068 123.500  0.00  0.00    +0.000 C 
ATOM      2  C   UNL     1      -6.762   3.993 124.711  0.00  0.00    +0.000 C 
ENDROOT
BRANCH   2   3
ATOM      3  N   UNL     1      -7.033   5.395 125.165  0.00  0.00    +0.000 NA
ATOM      4  H   UNL     1      -6.726   6.048 124.427  0.00  0.00    +0.000 HD
BRANCH   3   5
ATOM      5  N   UNL     1      -8.415   5.625 125.540  0.00  0.00    +0.000 NA
ATOM      6  H   UNL     1      -8.821   4.838 126.054  0.00  0.00    +0.000 HD
ATOM      7  H   UNL     1      -9.034   5.818 124.748  0.00  0.00    +0.000 HD
ENDBRANCH   3   5
ENDBRANCH   2   3
BRANCH   2   8
ATOM      8  C   UNL     1      -8.149   3.373 124.350  0.00  0.00    +0.000 C 
ATOM      9  O   UNL     1      -8.842   2.782 125.181  0.00  0.00    +0.000 OA
BRANCH   8  10
ATOM     10  O   UNL     1      -8.577   3.489 123.076  0.00  0.00    +0.000 OA
ATOM     11  H   UNL     1      -9.213   4.195 122.872  0.00  0.00    +0.000 HD
ENDBRANCH   8  10
ENDBRANCH   2   8
BRANCH   2  12
ATOM     12  C   UNL     1      -6.169   3.155 125.883  0.00  0.00    +0.000 C 
BRANCH  12  13
ATOM     13  C   UNL     1      -5.038   3.832 126.622  0.00  0.00    +0.000 A 
ATOM     14  C   UNL     1      -5.296   4.787 127.622  0.00  0.00    +0.000 A 
ATOM     15  C   UNL     1      -4.247   5.487 128.200  0.00  0.00    +0.000 A 
ATOM     16  C   UNL     1      -2.938   5.176 127.857  0.00  0.00    +0.000 A 
ATOM     17  C   UNL     1      -2.664   4.199 126.911  0.00  0.00    +0.000 A 
ATOM     18  C   UNL     1      -3.713   3.534 126.282  0.00  0.00    +0.000 A 
BRANCH  15  19
ATOM     19  O   UNL     1      -4.468   6.495 129.097  0.00  0.00    +0.000 OA
ATOM     20  H   UNL     1      -3.904   7.253 128.863  0.00  0.00    +0.000 HD
ENDBRANCH  15  19
BRANCH  16  21
ATOM     21  O   UNL     1      -1.895   5.823 128.453  0.00  0.00    +0.000 OA
ATOM     22  H   UNL     1      -1.094   5.399 128.089  0.00  0.00    +0.000 HD
ENDBRANCH  16  21
ENDBRANCH  12  13
ENDBRANCH   2  12
TORSDOF 8
ENDMDL
MODEL 9
REMARK VINA RESULT:      -5.2      3.696      6.728
REMARK  Name = Carbidopa
REMARK  9 active torsions:
REMARK  status: ('A' for Active; 'I' for Inactive)
REMARK    1  A    between atoms: C_1  and  C_2
REMARK    2  A    between atoms: C_2  and  C_3
REMARK    3  A    between atoms: C_2  and  N_12
REMARK    4  A    between atoms: C_2  and  C_14
REMARK    5  A    between atoms: C_3  and  C_4
REMARK    6  A    between atoms: C_6  and  O_7
REMARK    7  A    between atoms: C_8  and  O_9
REMARK    8  A    between atoms: N_12  and  N_13
REMARK    9  A    between atoms: C_14  and  O_15
REMARK                            x       y       z     vdW  Elec       q    Type
REMARK                         _______ _______ _______ _____ _____    ______ ____
ROOT
ATOM      1  C   UNL     1     -10.163   1.560 124.106  0.00  0.00    +0.000 C 
ATOM      2  C   UNL     1      -8.803   2.017 123.553  0.00  0.00    +0.000 C 
ENDROOT
BRANCH   2   3
ATOM      3  N   UNL     1      -9.037   2.598 122.192  0.00  0.00    +0.000 NA
ATOM      4  H   UNL     1     -10.049   2.755 122.066  0.00  0.00    +0.000 HD
BRANCH   3   5
ATOM      5  N   UNL     1      -8.275   3.805 121.938  0.00  0.00    +0.000 NA
ATOM      6  H   UNL     1      -7.272   3.625 121.836  0.00  0.00    +0.000 HD
ATOM      7  H   UNL     1      -8.379   4.522 122.661  0.00  0.00    +0.000 HD
ENDBRANCH   3   5
ENDBRANCH   2   3
BRANCH   2   8
ATOM      8  C   UNL     1      -8.159   3.153 124.409  0.00  0.00    +0.000 C 
ATOM      9  O   UNL     1      -8.836   3.981 125.021  0.00  0.00    +0.000 OA
BRANCH   8  10
ATOM     10  O   UNL     1      -6.812   3.218 124.455  0.00  0.00    +0.000 OA
ATOM     11  H   UNL     1      -6.375   3.016 125.300  0.00  0.00    +0.000 HD
ENDBRANCH   8  10
ENDBRANCH   2   8
BRANCH   2  12
ATOM     12  C   UNL     1      -7.769   0.855 123.469  0.00  0.00    +0.000 C 
BRANCH  12  13
ATOM     13  C   UNL     1      -8.133  -0.362 124.288  0.00  0.00    +0.000 A 
ATOM     14  C   UNL     1      -8.788  -1.460 123.702  0.00  0.00    +0.000 A 
ATOM     15  C   UNL     1      -9.224  -2.512 124.493  0.00  0.00    +0.000 A 
ATOM     16  C   UNL     1      -8.929  -2.522 125.850  0.00  0.00    +0.000 A 
ATOM     17  C   UNL     1      -8.238  -1.472 126.436  0.00  0.00    +0.000 A 
ATOM     18  C   UNL     1      -7.849  -0.383 125.659  0.00  0.00    +0.000 A 
BRANCH  15  19
ATOM     19  O   UNL     1      -9.955  -3.543 123.974  0.00  0.00    +0.000 OA
ATOM     20  H   UNL     1      -9.771  -3.611 123.021  0.00  0.00    +0.000 HD
ENDBRANCH  15  19
BRANCH  16  21
ATOM     21  O   UNL     1      -9.311  -3.573 126.632  0.00  0.00    +0.000 OA
ATOM     22  H   UNL     1      -8.566  -4.203 126.590  0.00  0.00    +0.000 HD
ENDBRANCH  16  21
ENDBRANCH  12  13
ENDBRANCH   2  12
TORSDOF 8
ENDMDL
