MODEL 1
REMARK VINA RESULT:      -4.7      0.000      0.000
REMARK  Name = Carbocisteine
REMARK  8 active torsions:
REMARK  status: ('A' for Active; 'I' for Inactive)
REMARK    1  A    between atoms: N_1  and  C_2
REMARK    2  A    between atoms: C_2  and  C_3
REMARK    3  A    between atoms: C_2  and  C_9
REMARK    4  A    between atoms: C_3  and  S_4
REMARK    5  A    between atoms: S_4  and  C_5
REMARK    6  A    between atoms: C_5  and  C_6
REMARK    7  A    between atoms: C_6  and  O_7
REMARK    8  A    between atoms: C_9  and  O_10
REMARK                            x       y       z     vdW  Elec       q    Type
REMARK                         _______ _______ _______ _____ _____    ______ ____
ROOT
ATOM      1  C   UNK     1     -10.895   7.456 126.565  0.00  0.00    +0.000 C 
ENDROOT
BRANCH   1   2
ATOM      2  N   UNK     1     -12.180   6.781 126.187  0.00  0.00    +0.000 NA
ATOM      3  H   UNK     1     -12.886   7.532 126.198  0.00  0.00    +0.000 HD
ATOM      4  H   UNK     1     -12.483   6.186 126.962  0.00  0.00    +0.000 HD
ENDBRANCH   1   2
BRANCH   1   5
ATOM      5  C   UNK     1      -9.821   6.408 126.867  0.00  0.00    +0.000 C 
ATOM      6  O   UNK     1      -9.176   5.825 126.002  0.00  0.00    +0.000 OA
BRANCH   5   7
ATOM      7  O   UNK     1      -9.638   6.181 128.190  0.00  0.00    +0.000 OA
ATOM      8  H   UNK     1      -9.622   7.045 128.662  0.00  0.00    +0.000 HD
ENDBRANCH   5   7
ENDBRANCH   1   5
BRANCH   1   9
ATOM      9  C   UNK     1     -11.081   8.412 127.768  0.00  0.00    +0.000 C 
BRANCH   9  10
ATOM     10  S   UNK     1     -12.817   8.240 128.378  0.00  0.00    +0.000 S 
BRANCH  10  11
ATOM     11  C   UNK     1     -12.572   7.923 130.173  0.00  0.00    +0.000 C 
BRANCH  11  12
ATOM     12  C   UNK     1     -12.232   6.456 130.430  0.00  0.00    +0.000 C 
ATOM     13  O   UNK     1     -12.083   5.639 129.529  0.00  0.00    +0.000 OA
BRANCH  12  14
ATOM     14  O   UNK     1     -12.105   6.098 131.729  0.00  0.00    +0.000 OA
ATOM     15  H   UNK     1     -12.951   6.214 132.215  0.00  0.00    +0.000 HD
ENDBRANCH  12  14
ENDBRANCH  11  12
ENDBRANCH  10  11
ENDBRANCH   9  10
ENDBRANCH   1   9
TORSDOF 8
ENDMDL
MODEL 2
REMARK VINA RESULT:      -4.5      1.796      2.197
REMARK  Name = Carbocisteine
REMARK  8 active torsions:
REMARK  status: ('A' for Active; 'I' for Inactive)
REMARK    1  A    between atoms: N_1  and  C_2
REMARK    2  A    between atoms: C_2  and  C_3
REMARK    3  A    between atoms: C_2  and  C_9
REMARK    4  A    between atoms: C_3  and  S_4
REMARK    5  A    between atoms: S_4  and  C_5
REMARK    6  A    between atoms: C_5  and  C_6
REMARK    7  A    between atoms: C_6  and  O_7
REMARK    8  A    between atoms: C_9  and  O_10
REMARK                            x       y       z     vdW  Elec       q    Type
REMARK                         _______ _______ _______ _____ _____    ______ ____
ROOT
ATOM      1  C   UNK     1     -12.108   7.385 127.552  0.00  0.00    +0.000 C 
ENDROOT
BRANCH   1   2
ATOM      2  N   UNK     1     -12.295   6.688 126.237  0.00  0.00    +0.000 NA
ATOM      3  H   UNK     1     -11.568   5.957 126.220  0.00  0.00    +0.000 HD
ATOM      4  H   UNK     1     -11.994   7.312 125.485  0.00  0.00    +0.000 HD
ENDBRANCH   1   2
BRANCH   1   5
ATOM      5  C   UNK     1     -10.618   7.617 127.815  0.00  0.00    +0.000 C 
ATOM      6  O   UNK     1     -10.138   8.711 128.098  0.00  0.00    +0.000 OA
BRANCH   5   7
ATOM      7  O   UNK     1      -9.865   6.495 127.714  0.00  0.00    +0.000 OA
ATOM      8  H   UNK     1     -10.447   5.710 127.829  0.00  0.00    +0.000 HD
ENDBRANCH   5   7
ENDBRANCH   1   5
BRANCH   1   9
ATOM      9  C   UNK     1     -12.753   6.596 128.718  0.00  0.00    +0.000 C 
BRANCH   9  10
ATOM     10  S   UNK     1     -12.596   7.609 130.256  0.00  0.00    +0.000 S 
BRANCH  10  11
ATOM     11  C   UNK     1     -12.025   6.367 131.485  0.00  0.00    +0.000 C 
BRANCH  11  12
ATOM     12  C   UNK     1     -10.514   6.456 131.695  0.00  0.00    +0.000 C 
ATOM     13  O   UNK     1      -9.716   6.515 130.767  0.00  0.00    +0.000 OA
BRANCH  12  14
ATOM     14  O   UNK     1     -10.096   6.463 132.982  0.00  0.00    +0.000 OA
ATOM     15  H   UNK     1      -9.170   6.148 133.059  0.00  0.00    +0.000 HD
ENDBRANCH  12  14
ENDBRANCH  11  12
ENDBRANCH  10  11
ENDBRANCH   9  10
ENDBRANCH   1   9
TORSDOF 8
ENDMDL
MODEL 3
REMARK VINA RESULT:      -4.5      2.086      4.365
REMARK  Name = Carbocisteine
REMARK  8 active torsions:
REMARK  status: ('A' for Active; 'I' for Inactive)
REMARK    1  A    between atoms: N_1  and  C_2
REMARK    2  A    between atoms: C_2  and  C_3
REMARK    3  A    between atoms: C_2  and  C_9
REMARK    4  A    between atoms: C_3  and  S_4
REMARK    5  A    between atoms: S_4  and  C_5
REMARK    6  A    between atoms: C_5  and  C_6
REMARK    7  A    between atoms: C_6  and  O_7
REMARK    8  A    between atoms: C_9  and  O_10
REMARK                            x       y       z     vdW  Elec       q    Type
REMARK                         _______ _______ _______ _____ _____    ______ ____
ROOT
ATOM      1  C   UNK     1     -10.435   5.828 130.467  0.00  0.00    +0.000 C 
ENDROOT
BRANCH   1   2
ATOM      2  N   UNK     1     -11.591   5.268 129.692  0.00  0.00    +0.000 NA
ATOM      3  H   UNK     1     -12.402   5.366 130.320  0.00  0.00    +0.000 HD
ATOM      4  H   UNK     1     -11.487   4.252 129.628  0.00  0.00    +0.000 HD
ENDBRANCH   1   2
BRANCH   1   5
ATOM      5  C   UNK     1     -10.872   6.155 131.898  0.00  0.00    +0.000 C 
ATOM      6  O   UNK     1     -10.090   6.409 132.808  0.00  0.00    +0.000 OA
BRANCH   5   7
ATOM      7  O   UNK     1     -12.216   6.144 132.073  0.00  0.00    +0.000 OA
ATOM      8  H   UNK     1     -12.502   5.227 132.287  0.00  0.00    +0.000 HD
ENDBRANCH   5   7
ENDBRANCH   1   5
BRANCH   1   9
ATOM      9  C   UNK     1      -9.833   7.077 129.780  0.00  0.00    +0.000 C 
BRANCH   9  10
ATOM     10  S   UNK     1     -11.226   8.153 129.217  0.00  0.00    +0.000 S 
BRANCH  10  11
ATOM     11  C   UNK     1     -10.855   8.369 127.429  0.00  0.00    +0.000 C 
BRANCH  11  12
ATOM     12  C   UNK     1     -10.848   7.025 126.703  0.00  0.00    +0.000 C 
ATOM     13  O   UNK     1      -9.823   6.499 126.287  0.00  0.00    +0.000 OA
BRANCH  12  14
ATOM     14  O   UNK     1     -12.056   6.436 126.538  0.00  0.00    +0.000 OA
ATOM     15  H   UNK     1     -11.982   5.612 126.009  0.00  0.00    +0.000 HD
ENDBRANCH  12  14
ENDBRANCH  11  12
ENDBRANCH  10  11
ENDBRANCH   9  10
ENDBRANCH   1   9
TORSDOF 8
ENDMDL
MODEL 4
REMARK VINA RESULT:      -4.5      2.278      4.352
REMARK  Name = Carbocisteine
REMARK  8 active torsions:
REMARK  status: ('A' for Active; 'I' for Inactive)
REMARK    1  A    between atoms: N_1  and  C_2
REMARK    2  A    between atoms: C_2  and  C_3
REMARK    3  A    between atoms: C_2  and  C_9
REMARK    4  A    between atoms: C_3  and  S_4
REMARK    5  A    between atoms: S_4  and  C_5
REMARK    6  A    between atoms: C_5  and  C_6
REMARK    7  A    between atoms: C_6  and  O_7
REMARK    8  A    between atoms: C_9  and  O_10
REMARK                            x       y       z     vdW  Elec       q    Type
REMARK                         _______ _______ _______ _____ _____    ______ ____
ROOT
ATOM      1  C   UNK     1     -11.968   6.187 130.978  0.00  0.00    +0.000 C 
ENDROOT
BRANCH   1   2
ATOM      2  N   UNK     1     -12.912   7.211 131.536  0.00  0.00    +0.000 NA
ATOM      3  H   UNK     1     -12.514   8.119 131.252  0.00  0.00    +0.000 HD
ATOM      4  H   UNK     1     -12.810   7.238 132.553  0.00  0.00    +0.000 HD
ENDBRANCH   1   2
BRANCH   1   5
ATOM      5  C   UNK     1     -10.605   6.302 131.665  0.00  0.00    +0.000 C 
ATOM      6  O   UNK     1      -9.606   6.763 131.123  0.00  0.00    +0.000 OA
BRANCH   5   7
ATOM      7  O   UNK     1     -10.598   5.850 132.942  0.00  0.00    +0.000 OA
ATOM      8  H   UNK     1     -10.722   4.873 132.935  0.00  0.00    +0.000 HD
ENDBRANCH   5   7
ENDBRANCH   1   5
BRANCH   1   9
ATOM      9  C   UNK     1     -11.821   6.316 129.443  0.00  0.00    +0.000 C 
BRANCH   9  10
ATOM     10  S   UNK     1     -12.087   8.087 128.985  0.00  0.00    +0.000 S 
BRANCH  10  11
ATOM     11  C   UNK     1     -10.848   8.336 127.650  0.00  0.00    +0.000 C 
BRANCH  11  12
ATOM     12  C   UNK     1     -10.812   7.137 126.704  0.00  0.00    +0.000 C 
ATOM     13  O   UNK     1      -9.807   6.459 126.526  0.00  0.00    +0.000 OA
BRANCH  12  14
ATOM     14  O   UNK     1     -11.969   6.861 126.057  0.00  0.00    +0.000 OA
ATOM     15  H   UNK     1     -11.813   6.285 125.277  0.00  0.00    +0.000 HD
ENDBRANCH  12  14
ENDBRANCH  11  12
ENDBRANCH  10  11
ENDBRANCH   9  10
ENDBRANCH   1   9
TORSDOF 8
ENDMDL
MODEL 5
REMARK VINA RESULT:      -4.4      1.669      1.850
REMARK  Name = Carbocisteine
REMARK  8 active torsions:
REMARK  status: ('A' for Active; 'I' for Inactive)
REMARK    1  A    between atoms: N_1  and  C_2
REMARK    2  A    between atoms: C_2  and  C_3
REMARK    3  A    between atoms: C_2  and  C_9
REMARK    4  A    between atoms: C_3  and  S_4
REMARK    5  A    between atoms: S_4  and  C_5
REMARK    6  A    between atoms: C_5  and  C_6
REMARK    7  A    between atoms: C_6  and  O_7
REMARK    8  A    between atoms: C_9  and  O_10
REMARK                            x       y       z     vdW  Elec       q    Type
REMARK                         _______ _______ _______ _____ _____    ______ ____
ROOT
ATOM      1  C   UNK     1     -12.115   7.846 127.711  0.00  0.00    +0.000 C 
ENDROOT
BRANCH   1   2
ATOM      2  N   UNK     1     -13.028   6.657 127.781  0.00  0.00    +0.000 NA
ATOM      3  H   UNK     1     -12.522   5.969 128.358  0.00  0.00    +0.000 HD
ATOM      4  H   UNK     1     -13.049   6.200 126.866  0.00  0.00    +0.000 HD
ENDBRANCH   1   2
BRANCH   1   5
ATOM      5  C   UNK     1     -10.893   7.518 126.848  0.00  0.00    +0.000 C 
ATOM      6  O   UNK     1     -10.716   7.966 125.721  0.00  0.00    +0.000 OA
BRANCH   5   7
ATOM      7  O   UNK     1     -10.010   6.684 127.449  0.00  0.00    +0.000 OA
ATOM      8  H   UNK     1      -9.289   7.220 127.852  0.00  0.00    +0.000 HD
ENDBRANCH   5   7
ENDBRANCH   1   5
BRANCH   1   9
ATOM      9  C   UNK     1     -11.680   8.320 129.119  0.00  0.00    +0.000 C 
BRANCH   9  10
ATOM     10  S   UNK     1     -12.726   7.448 130.369  0.00  0.00    +0.000 S 
BRANCH  10  11
ATOM     11  C   UNK     1     -11.471   6.555 131.373  0.00  0.00    +0.000 C 
BRANCH  11  12
ATOM     12  C   UNK     1     -11.113   5.212 130.737  0.00  0.00    +0.000 C 
ATOM     13  O   UNK     1     -11.419   4.918 129.587  0.00  0.00    +0.000 OA
BRANCH  12  14
ATOM     14  O   UNK     1     -10.432   4.348 131.525  0.00  0.00    +0.000 OA
ATOM     15  H   UNK     1      -9.463   4.489 131.456  0.00  0.00    +0.000 HD
ENDBRANCH  12  14
ENDBRANCH  11  12
ENDBRANCH  10  11
ENDBRANCH   9  10
ENDBRANCH   1   9
TORSDOF 8
ENDMDL
MODEL 6
REMARK VINA RESULT:      -4.3      2.397      2.952
REMARK  Name = Carbocisteine
REMARK  8 active torsions:
REMARK  status: ('A' for Active; 'I' for Inactive)
REMARK    1  A    between atoms: N_1  and  C_2
REMARK    2  A    between atoms: C_2  and  C_3
REMARK    3  A    between atoms: C_2  and  C_9
REMARK    4  A    between atoms: C_3  and  S_4
REMARK    5  A    between atoms: S_4  and  C_5
REMARK    6  A    between atoms: C_5  and  C_6
REMARK    7  A    between atoms: C_6  and  O_7
REMARK    8  A    between atoms: C_9  and  O_10
REMARK                            x       y       z     vdW  Elec       q    Type
REMARK                         _______ _______ _______ _____ _____    ______ ____
ROOT
ATOM      1  C   UNK     1     -11.531   7.317 128.560  0.00  0.00    +0.000 C 
ENDROOT
BRANCH   1   2
ATOM      2  N   UNK     1     -10.151   7.730 128.144  0.00  0.00    +0.000 NA
ATOM      3  H   UNK     1      -9.824   8.353 128.897  0.00  0.00    +0.000 HD
ATOM      4  H   UNK     1     -10.222   8.369 127.348  0.00  0.00    +0.000 HD
ENDBRANCH   1   2
BRANCH   1   5
ATOM      5  C   UNK     1     -12.432   7.182 127.330  0.00  0.00    +0.000 C 
ATOM      6  O   UNK     1     -13.620   7.488 127.318  0.00  0.00    +0.000 OA
BRANCH   5   7
ATOM      7  O   UNK     1     -11.795   6.694 126.239  0.00  0.00    +0.000 OA
ATOM      8  H   UNK     1     -10.836   6.907 126.308  0.00  0.00    +0.000 HD
ENDBRANCH   5   7
ENDBRANCH   1   5
BRANCH   1   9
ATOM      9  C   UNK     1     -12.144   8.305 129.581  0.00  0.00    +0.000 C 
BRANCH   9  10
ATOM     10  S   UNK     1     -12.695   7.341 131.059  0.00  0.00    +0.000 S 
BRANCH  10  11
ATOM     11  C   UNK     1     -11.491   5.952 131.091  0.00  0.00    +0.000 C 
BRANCH  11  12
ATOM     12  C   UNK     1     -10.179   6.378 131.749  0.00  0.00    +0.000 C 
ATOM     13  O   UNK     1      -9.190   6.713 131.108  0.00  0.00    +0.000 OA
BRANCH  12  14
ATOM     14  O   UNK     1     -10.165   6.361 133.103  0.00  0.00    +0.000 OA
ATOM     15  H   UNK     1     -11.023   6.051 133.465  0.00  0.00    +0.000 HD
ENDBRANCH  12  14
ENDBRANCH  11  12
ENDBRANCH  10  11
ENDBRANCH   9  10
ENDBRANCH   1   9
TORSDOF 8
ENDMDL
MODEL 7
REMARK VINA RESULT:      -4.3      2.732      3.920
REMARK  Name = Carbocisteine
REMARK  8 active torsions:
REMARK  status: ('A' for Active; 'I' for Inactive)
REMARK    1  A    between atoms: N_1  and  C_2
REMARK    2  A    between atoms: C_2  and  C_3
REMARK    3  A    between atoms: C_2  and  C_9
REMARK    4  A    between atoms: C_3  and  S_4
REMARK    5  A    between atoms: S_4  and  C_5
REMARK    6  A    between atoms: C_5  and  C_6
REMARK    7  A    between atoms: C_6  and  O_7
REMARK    8  A    between atoms: C_9  and  O_10
REMARK                            x       y       z     vdW  Elec       q    Type
REMARK                         _______ _______ _______ _____ _____    ______ ____
ROOT
ATOM      1  C   UNK     1     -13.071   7.445 129.143  0.00  0.00    +0.000 C 
ENDROOT
BRANCH   1   2
ATOM      2  N   UNK     1     -12.411   6.463 128.221  0.00  0.00    +0.000 NA
ATOM      3  H   UNK     1     -11.412   6.493 128.476  0.00  0.00    +0.000 HD
ATOM      4  H   UNK     1     -12.406   6.850 127.274  0.00  0.00    +0.000 HD
ENDBRANCH   1   2
BRANCH   1   5
ATOM      5  C   UNK     1     -12.733   8.876 128.716  0.00  0.00    +0.000 C 
ATOM      6  O   UNK     1     -13.541   9.799 128.724  0.00  0.00    +0.000 OA
BRANCH   5   7
ATOM      7  O   UNK     1     -11.445   9.038 128.328  0.00  0.00    +0.000 OA
ATOM      8  H   UNK     1     -11.425   9.573 127.502  0.00  0.00    +0.000 HD
ENDBRANCH   5   7
ENDBRANCH   1   5
BRANCH   1   9
ATOM      9  C   UNK     1     -12.672   7.206 130.619  0.00  0.00    +0.000 C 
BRANCH   9  10
ATOM     10  S   UNK     1     -11.529   5.755 130.679  0.00  0.00    +0.000 S 
BRANCH  10  11
ATOM     11  C   UNK     1     -10.012   6.482 131.423  0.00  0.00    +0.000 C 
BRANCH  11  12
ATOM     12  C   UNK     1      -9.051   6.972 130.342  0.00  0.00    +0.000 C 
ATOM     13  O   UNK     1      -7.911   7.349 130.586  0.00  0.00    +0.000 OA
BRANCH  12  14
ATOM     14  O   UNK     1      -9.534   6.972 129.077  0.00  0.00    +0.000 OA
ATOM     15  H   UNK     1     -10.501   6.801 129.065  0.00  0.00    +0.000 HD
ENDBRANCH  12  14
ENDBRANCH  11  12
ENDBRANCH  10  11
ENDBRANCH   9  10
ENDBRANCH   1   9
TORSDOF 8
ENDMDL
MODEL 8
REMARK VINA RESULT:      -4.2      2.451      4.059
REMARK  Name = Carbocisteine
REMARK  8 active torsions:
REMARK  status: ('A' for Active; 'I' for Inactive)
REMARK    1  A    between atoms: N_1  and  C_2
REMARK    2  A    between atoms: C_2  and  C_3
REMARK    3  A    between atoms: C_2  and  C_9
REMARK    4  A    between atoms: C_3  and  S_4
REMARK    5  A    between atoms: S_4  and  C_5
REMARK    6  A    between atoms: C_5  and  C_6
REMARK    7  A    between atoms: C_6  and  O_7
REMARK    8  A    between atoms: C_9  and  O_10
REMARK                            x       y       z     vdW  Elec       q    Type
REMARK                         _______ _______ _______ _____ _____    ______ ____
ROOT
ATOM      1  C   UNK     1     -11.068   6.016 130.364  0.00  0.00    +0.000 C 
ENDROOT
BRANCH   1   2
ATOM      2  N   UNK     1     -11.182   4.576 130.768  0.00  0.00    +0.000 NA
ATOM      3  H   UNK     1     -10.875   4.045 129.940  0.00  0.00    +0.000 HD
ATOM      4  H   UNK     1     -12.172   4.327 130.833  0.00  0.00    +0.000 HD
ENDBRANCH   1   2
BRANCH   1   5
ATOM      5  C   UNK     1      -9.825   6.644 131.000  0.00  0.00    +0.000 C 
ATOM      6  O   UNK     1      -9.560   6.570 132.196  0.00  0.00    +0.000 OA
BRANCH   5   7
ATOM      7  O   UNK     1      -9.028   7.291 130.116  0.00  0.00    +0.000 OA
ATOM      8  H   UNK     1      -8.149   7.445 130.533  0.00  0.00    +0.000 HD
ENDBRANCH   5   7
ENDBRANCH   1   5
BRANCH   1   9
ATOM      9  C   UNK     1     -12.338   6.820 130.736  0.00  0.00    +0.000 C 
BRANCH   9  10
ATOM     10  S   UNK     1     -12.564   8.156 129.479  0.00  0.00    +0.000 S 
BRANCH  10  11
ATOM     11  C   UNK     1     -12.307   7.253 127.898  0.00  0.00    +0.000 C 
BRANCH  11  12
ATOM     12  C   UNK     1     -11.106   7.811 127.137  0.00  0.00    +0.000 C 
ATOM     13  O   UNK     1     -10.955   7.662 125.930  0.00  0.00    +0.000 OA
BRANCH  12  14
ATOM     14  O   UNK     1     -10.198   8.487 127.879  0.00  0.00    +0.000 OA
ATOM     15  H   UNK     1     -10.592   8.808 128.719  0.00  0.00    +0.000 HD
ENDBRANCH  12  14
ENDBRANCH  11  12
ENDBRANCH  10  11
ENDBRANCH   9  10
ENDBRANCH   1   9
TORSDOF 8
ENDMDL
MODEL 9
REMARK VINA RESULT:      -4.1      2.396      3.951
REMARK  Name = Carbocisteine
REMARK  8 active torsions:
REMARK  status: ('A' for Active; 'I' for Inactive)
REMARK    1  A    between atoms: N_1  and  C_2
REMARK    2  A    between atoms: C_2  and  C_3
REMARK    3  A    between atoms: C_2  and  C_9
REMARK    4  A    between atoms: C_3  and  S_4
REMARK    5  A    between atoms: S_4  and  C_5
REMARK    6  A    between atoms: C_5  and  C_6
REMARK    7  A    between atoms: C_6  and  O_7
REMARK    8  A    between atoms: C_9  and  O_10
REMARK                            x       y       z     vdW  Elec       q    Type
REMARK                         _______ _______ _______ _____ _____    ______ ____
ROOT
ATOM      1  C   UNK     1     -10.712   6.011 131.250  0.00  0.00    +0.000 C 
ENDROOT
BRANCH   1   2
ATOM      2  N   UNK     1      -9.706   7.065 130.890  0.00  0.00    +0.000 NA
ATOM      3  H   UNK     1      -8.975   6.990 131.613  0.00  0.00    +0.000 HD
ATOM      4  H   UNK     1     -10.108   7.986 131.082  0.00  0.00    +0.000 HD
ENDBRANCH   1   2
BRANCH   1   5
ATOM      5  C   UNK     1     -10.508   4.772 130.374  0.00  0.00    +0.000 C 
ATOM      6  O   UNK     1      -9.721   4.723 129.435  0.00  0.00    +0.000 OA
BRANCH   5   7
ATOM      7  O   UNK     1     -11.280   3.718 130.735  0.00  0.00    +0.000 OA
ATOM      8  H   UNK     1     -11.848   3.984 131.493  0.00  0.00    +0.000 HD
ENDBRANCH   5   7
ENDBRANCH   1   5
BRANCH   1   9
ATOM      9  C   UNK     1     -12.162   6.536 131.128  0.00  0.00    +0.000 C 
BRANCH   9  10
ATOM     10  S   UNK     1     -12.159   7.979 129.974  0.00  0.00    +0.000 S 
BRANCH  10  11
ATOM     11  C   UNK     1     -12.456   7.179 128.345  0.00  0.00    +0.000 C 
BRANCH  11  12
ATOM     12  C   UNK     1     -11.200   7.221 127.476  0.00  0.00    +0.000 C 
ATOM     13  O   UNK     1     -10.134   7.682 127.868  0.00  0.00    +0.000 OA
BRANCH  12  14
ATOM     14  O   UNK     1     -11.330   6.718 126.226  0.00  0.00    +0.000 OA
ATOM     15  H   UNK     1     -10.834   7.256 125.571  0.00  0.00    +0.000 HD
ENDBRANCH  12  14
ENDBRANCH  11  12
ENDBRANCH  10  11
ENDBRANCH   9  10
ENDBRANCH   1   9
TORSDOF 8
ENDMDL
