MODEL 1
REMARK VINA RESULT:      -4.3      0.000      0.000
REMARK  Name = Carbamoylcholine
REMARK  7 active torsions:
REMARK  status: ('A' for Active; 'I' for Inactive)
REMARK    1  A    between atoms: C_1  and  N_2
REMARK    2  A    between atoms: N_2  and  C_3
REMARK    3  A    between atoms: N_2  and  C_4
REMARK    4  A    between atoms: N_2  and  C_5
REMARK    5  A    between atoms: C_5  and  C_6
REMARK    6  A    between atoms: C_6  and  O_7
REMARK    7  A    between atoms: O_7  and  C_8
REMARK                            x       y       z     vdW  Elec       q    Type
REMARK                         _______ _______ _______ _____ _____    ______ ____
ROOT
ATOM      1  C   UNL     1      -6.703   3.872 120.919  0.00  0.00    +0.000 C 
ENDROOT
BRANCH   1   2
ATOM      2  C   UNL     1      -6.357   3.550 122.378  0.00  0.00    +0.000 C 
BRANCH   2   4
ATOM      3  C   UNL     1      -7.150   1.390 123.381  0.00  0.00    +0.000 C 
ATOM      4  N   UNL     1      -7.532   2.845 123.100  0.00  0.00    +0.000 N 
ATOM      5  C   UNL     1      -8.779   2.846 122.222  0.00  0.00    +0.000 C 
ATOM      6  C   UNL     1      -7.824   3.522 124.435  0.00  0.00    +0.000 C 
ENDBRANCH   2   4
ENDBRANCH   1   2
BRANCH   1   7
ATOM      7  O   UNL     1      -5.528   4.139 120.163  0.00  0.00    +0.000 OA
BRANCH   7   8
ATOM      8  C   UNL     1      -5.267   5.411 119.751  0.00  0.00    +0.000 C 
ATOM      9  N   UNL     1      -5.726   5.787 118.524  0.00  0.00    +0.000 N 
ATOM     10  O   UNL     1      -4.643   6.193 120.454  0.00  0.00    +0.000 OA
ATOM     11  H   UNL     1      -6.246   5.234 117.866  0.00  0.00    +0.000 HD
ATOM     12  H   UNL     1      -5.515   6.740 118.250  0.00  0.00    +0.000 HD
ENDBRANCH   7   8
ENDBRANCH   1   7
TORSDOF 4
ENDMDL
MODEL 2
REMARK VINA RESULT:      -4.3      9.806     11.339
REMARK  Name = Carbamoylcholine
REMARK  7 active torsions:
REMARK  status: ('A' for Active; 'I' for Inactive)
REMARK    1  A    between atoms: C_1  and  N_2
REMARK    2  A    between atoms: N_2  and  C_3
REMARK    3  A    between atoms: N_2  and  C_4
REMARK    4  A    between atoms: N_2  and  C_5
REMARK    5  A    between atoms: C_5  and  C_6
REMARK    6  A    between atoms: C_6  and  O_7
REMARK    7  A    between atoms: O_7  and  C_8
REMARK                            x       y       z     vdW  Elec       q    Type
REMARK                         _______ _______ _______ _____ _____    ______ ____
ROOT
ATOM      1  C   UNL     1     -12.429   7.320 130.841  0.00  0.00    +0.000 C 
ENDROOT
BRANCH   1   2
ATOM      2  C   UNL     1     -12.627   6.705 129.449  0.00  0.00    +0.000 C 
BRANCH   2   4
ATOM      3  C   UNL     1     -13.209   8.957 128.506  0.00  0.00    +0.000 C 
ATOM      4  N   UNL     1     -12.318   7.726 128.326  0.00  0.00    +0.000 N 
ATOM      5  C   UNL     1     -12.614   7.123 126.957  0.00  0.00    +0.000 C 
ATOM      6  C   UNL     1     -10.864   8.180 128.401  0.00  0.00    +0.000 C 
ENDBRANCH   2   4
ENDBRANCH   1   2
BRANCH   1   7
ATOM      7  O   UNL     1     -12.034   6.330 131.784  0.00  0.00    +0.000 OA
BRANCH   7   8
ATOM      8  C   UNL     1     -10.715   6.177 132.085  0.00  0.00    +0.000 C 
ATOM      9  N   UNL     1     -10.378   5.216 132.991  0.00  0.00    +0.000 N 
ATOM     10  O   UNL     1      -9.857   6.877 131.565  0.00  0.00    +0.000 OA
ATOM     11  H   UNL     1     -10.992   4.588 133.478  0.00  0.00    +0.000 HD
ATOM     12  H   UNL     1      -9.388   5.130 133.191  0.00  0.00    +0.000 HD
ENDBRANCH   7   8
ENDBRANCH   1   7
TORSDOF 4
ENDMDL
MODEL 3
REMARK VINA RESULT:      -4.2      9.674     11.222
REMARK  Name = Carbamoylcholine
REMARK  7 active torsions:
REMARK  status: ('A' for Active; 'I' for Inactive)
REMARK    1  A    between atoms: C_1  and  N_2
REMARK    2  A    between atoms: N_2  and  C_3
REMARK    3  A    between atoms: N_2  and  C_4
REMARK    4  A    between atoms: N_2  and  C_5
REMARK    5  A    between atoms: C_5  and  C_6
REMARK    6  A    between atoms: C_6  and  O_7
REMARK    7  A    between atoms: O_7  and  C_8
REMARK                            x       y       z     vdW  Elec       q    Type
REMARK                         _______ _______ _______ _____ _____    ______ ____
ROOT
ATOM      1  C   UNL     1     -12.179   7.196 130.736  0.00  0.00    +0.000 C 
ENDROOT
BRANCH   1   2
ATOM      2  C   UNL     1     -12.435   6.655 129.324  0.00  0.00    +0.000 C 
BRANCH   2   4
ATOM      3  C   UNL     1     -10.785   8.268 128.339  0.00  0.00    +0.000 C 
ATOM      4  N   UNL     1     -12.220   7.748 128.247  0.00  0.00    +0.000 N 
ATOM      5  C   UNL     1     -13.165   8.922 128.479  0.00  0.00    +0.000 C 
ATOM      6  C   UNL     1     -12.425   7.171 126.850  0.00  0.00    +0.000 C 
ENDBRANCH   2   4
ENDBRANCH   1   2
BRANCH   1   7
ATOM      7  O   UNL     1     -11.773   6.153 131.616  0.00  0.00    +0.000 OA
BRANCH   7   8
ATOM      8  C   UNL     1     -10.486   6.109 132.057  0.00  0.00    +0.000 C 
ATOM      9  N   UNL     1     -10.194   5.253 133.077  0.00  0.00    +0.000 N 
ATOM     10  O   UNL     1      -9.617   6.812 131.560  0.00  0.00    +0.000 OA
ATOM     11  H   UNL     1     -10.821   4.633 133.558  0.00  0.00    +0.000 HD
ATOM     12  H   UNL     1      -9.226   5.246 133.380  0.00  0.00    +0.000 HD
ENDBRANCH   7   8
ENDBRANCH   1   7
TORSDOF 4
ENDMDL
MODEL 4
REMARK VINA RESULT:      -4.2      7.874      9.424
REMARK  Name = Carbamoylcholine
REMARK  7 active torsions:
REMARK  status: ('A' for Active; 'I' for Inactive)
REMARK    1  A    between atoms: C_1  and  N_2
REMARK    2  A    between atoms: N_2  and  C_3
REMARK    3  A    between atoms: N_2  and  C_4
REMARK    4  A    between atoms: N_2  and  C_5
REMARK    5  A    between atoms: C_5  and  C_6
REMARK    6  A    between atoms: C_6  and  O_7
REMARK    7  A    between atoms: O_7  and  C_8
REMARK                            x       y       z     vdW  Elec       q    Type
REMARK                         _______ _______ _______ _____ _____    ______ ____
ROOT
ATOM      1  C   UNL     1     -10.841   7.927 129.187  0.00  0.00    +0.000 C 
ENDROOT
BRANCH   1   2
ATOM      2  C   UNL     1     -10.001   7.132 130.195  0.00  0.00    +0.000 C 
BRANCH   2   4
ATOM      3  C   UNL     1     -10.165   5.961 132.409  0.00  0.00    +0.000 C 
ATOM      4  N   UNL     1     -10.888   6.228 131.088  0.00  0.00    +0.000 N 
ATOM      5  C   UNL     1     -11.142   4.887 130.408  0.00  0.00    +0.000 C 
ATOM      6  C   UNL     1     -12.210   6.920 131.405  0.00  0.00    +0.000 C 
ENDBRANCH   2   4
ENDBRANCH   1   2
BRANCH   1   7
ATOM      7  O   UNL     1     -10.188   7.999 127.925  0.00  0.00    +0.000 OA
BRANCH   7   8
ATOM      8  C   UNL     1     -10.574   7.165 126.919  0.00  0.00    +0.000 C 
ATOM      9  N   UNL     1     -11.868   7.237 126.498  0.00  0.00    +0.000 N 
ATOM     10  O   UNL     1      -9.791   6.377 126.408  0.00  0.00    +0.000 OA
ATOM     11  H   UNL     1     -12.594   7.840 126.841  0.00  0.00    +0.000 HD
ATOM     12  H   UNL     1     -12.121   6.603 125.748  0.00  0.00    +0.000 HD
ENDBRANCH   7   8
ENDBRANCH   1   7
TORSDOF 4
ENDMDL
MODEL 5
REMARK VINA RESULT:      -4.1      8.048      9.521
REMARK  Name = Carbamoylcholine
REMARK  7 active torsions:
REMARK  status: ('A' for Active; 'I' for Inactive)
REMARK    1  A    between atoms: C_1  and  N_2
REMARK    2  A    between atoms: N_2  and  C_3
REMARK    3  A    between atoms: N_2  and  C_4
REMARK    4  A    between atoms: N_2  and  C_5
REMARK    5  A    between atoms: C_5  and  C_6
REMARK    6  A    between atoms: C_6  and  O_7
REMARK    7  A    between atoms: O_7  and  C_8
REMARK                            x       y       z     vdW  Elec       q    Type
REMARK                         _______ _______ _______ _____ _____    ______ ____
ROOT
ATOM      1  C   UNL     1     -10.474   8.496 128.447  0.00  0.00    +0.000 C 
ENDROOT
BRANCH   1   2
ATOM      2  C   UNL     1     -11.077   7.303 129.200  0.00  0.00    +0.000 C 
BRANCH   2   4
ATOM      3  C   UNL     1     -13.557   6.944 129.069  0.00  0.00    +0.000 C 
ATOM      4  N   UNL     1     -12.445   7.662 129.834  0.00  0.00    +0.000 N 
ATOM      5  C   UNL     1     -12.700   9.162 129.744  0.00  0.00    +0.000 C 
ATOM      6  C   UNL     1     -12.497   7.201 131.287  0.00  0.00    +0.000 C 
ENDBRANCH   2   4
ENDBRANCH   1   2
BRANCH   1   7
ATOM      7  O   UNL     1     -10.851   8.477 127.075  0.00  0.00    +0.000 OA
BRANCH   7   8
ATOM      8  C   UNL     1     -11.022   7.282 126.442  0.00  0.00    +0.000 C 
ATOM      9  N   UNL     1     -12.275   6.969 126.008  0.00  0.00    +0.000 N 
ATOM     10  O   UNL     1     -10.087   6.514 126.267  0.00  0.00    +0.000 OA
ATOM     11  H   UNL     1     -13.112   7.517 126.096  0.00  0.00    +0.000 HD
ATOM     12  H   UNL     1     -12.366   6.073 125.541  0.00  0.00    +0.000 HD
ENDBRANCH   7   8
ENDBRANCH   1   7
TORSDOF 4
ENDMDL
MODEL 6
REMARK VINA RESULT:      -4.0      9.978     10.615
REMARK  Name = Carbamoylcholine
REMARK  7 active torsions:
REMARK  status: ('A' for Active; 'I' for Inactive)
REMARK    1  A    between atoms: C_1  and  N_2
REMARK    2  A    between atoms: N_2  and  C_3
REMARK    3  A    between atoms: N_2  and  C_4
REMARK    4  A    between atoms: N_2  and  C_5
REMARK    5  A    between atoms: C_5  and  C_6
REMARK    6  A    between atoms: C_6  and  O_7
REMARK    7  A    between atoms: O_7  and  C_8
REMARK                            x       y       z     vdW  Elec       q    Type
REMARK                         _______ _______ _______ _____ _____    ______ ____
ROOT
ATOM      1  C   UNL     1     -12.653   6.500 129.414  0.00  0.00    +0.000 C 
ENDROOT
BRANCH   1   2
ATOM      2  C   UNL     1     -12.093   6.795 130.811  0.00  0.00    +0.000 C 
BRANCH   2   4
ATOM      3  C   UNL     1     -10.636   4.798 130.373  0.00  0.00    +0.000 C 
ATOM      4  N   UNL     1     -10.675   6.195 130.994  0.00  0.00    +0.000 N 
ATOM      5  C   UNL     1     -10.336   6.065 132.475  0.00  0.00    +0.000 C 
ATOM      6  C   UNL     1      -9.635   7.056 130.286  0.00  0.00    +0.000 C 
ENDBRANCH   2   4
ENDBRANCH   1   2
BRANCH   1   7
ATOM      7  O   UNL     1     -13.309   7.643 128.876  0.00  0.00    +0.000 OA
BRANCH   7   8
ATOM      8  C   UNL     1     -12.570   8.715 128.475  0.00  0.00    +0.000 C 
ATOM      9  N   UNL     1     -12.958   9.948 128.904  0.00  0.00    +0.000 N 
ATOM     10  O   UNL     1     -11.591   8.580 127.754  0.00  0.00    +0.000 OA
ATOM     11  H   UNL     1     -13.738  10.177 129.494  0.00  0.00    +0.000 HD
ATOM     12  H   UNL     1     -12.385  10.723 128.587  0.00  0.00    +0.000 HD
ENDBRANCH   7   8
ENDBRANCH   1   7
TORSDOF 4
ENDMDL
MODEL 7
REMARK VINA RESULT:      -3.9      8.374      9.544
REMARK  Name = Carbamoylcholine
REMARK  7 active torsions:
REMARK  status: ('A' for Active; 'I' for Inactive)
REMARK    1  A    between atoms: C_1  and  N_2
REMARK    2  A    between atoms: N_2  and  C_3
REMARK    3  A    between atoms: N_2  and  C_4
REMARK    4  A    between atoms: N_2  and  C_5
REMARK    5  A    between atoms: C_5  and  C_6
REMARK    6  A    between atoms: C_6  and  O_7
REMARK    7  A    between atoms: O_7  and  C_8
REMARK                            x       y       z     vdW  Elec       q    Type
REMARK                         _______ _______ _______ _____ _____    ______ ____
ROOT
ATOM      1  C   UNL     1     -11.791   6.766 129.545  0.00  0.00    +0.000 C 
ENDROOT
BRANCH   1   2
ATOM      2  C   UNL     1     -11.326   5.511 130.296  0.00  0.00    +0.000 C 
BRANCH   2   4
ATOM      3  C   UNL     1     -10.203   5.923 132.502  0.00  0.00    +0.000 C 
ATOM      4  N   UNL     1      -9.966   5.740 131.002  0.00  0.00    +0.000 N 
ATOM      5  C   UNL     1      -9.293   7.001 130.472  0.00  0.00    +0.000 C 
ATOM      6  C   UNL     1      -9.054   4.532 130.812  0.00  0.00    +0.000 C 
ENDBRANCH   2   4
ENDBRANCH   1   2
BRANCH   1   7
ATOM      7  O   UNL     1     -11.862   6.524 128.145  0.00  0.00    +0.000 OA
BRANCH   7   8
ATOM      8  C   UNL     1     -11.123   7.288 127.293  0.00  0.00    +0.000 C 
ATOM      9  N   UNL     1     -10.903   8.588 127.635  0.00  0.00    +0.000 N 
ATOM     10  O   UNL     1     -10.671   6.828 126.254  0.00  0.00    +0.000 OA
ATOM     11  H   UNL     1     -11.222   9.071 128.456  0.00  0.00    +0.000 HD
ATOM     12  H   UNL     1     -10.349   9.127 126.978  0.00  0.00    +0.000 HD
ENDBRANCH   7   8
ENDBRANCH   1   7
TORSDOF 4
ENDMDL
MODEL 8
REMARK VINA RESULT:      -3.9      9.108     10.405
REMARK  Name = Carbamoylcholine
REMARK  7 active torsions:
REMARK  status: ('A' for Active; 'I' for Inactive)
REMARK    1  A    between atoms: C_1  and  N_2
REMARK    2  A    between atoms: N_2  and  C_3
REMARK    3  A    between atoms: N_2  and  C_4
REMARK    4  A    between atoms: N_2  and  C_5
REMARK    5  A    between atoms: C_5  and  C_6
REMARK    6  A    between atoms: C_6  and  O_7
REMARK    7  A    between atoms: O_7  and  C_8
REMARK                            x       y       z     vdW  Elec       q    Type
REMARK                         _______ _______ _______ _____ _____    ______ ____
ROOT
ATOM      1  C   UNL     1     -11.621   5.858 130.184  0.00  0.00    +0.000 C 
ENDROOT
BRANCH   1   2
ATOM      2  C   UNL     1     -12.648   6.501 129.242  0.00  0.00    +0.000 C 
BRANCH   2   4
ATOM      3  C   UNL     1     -12.778   8.915 128.567  0.00  0.00    +0.000 C 
ATOM      4  N   UNL     1     -12.005   7.610 128.371  0.00  0.00    +0.000 N 
ATOM      5  C   UNL     1     -12.073   7.237 126.894  0.00  0.00    +0.000 C 
ATOM      6  C   UNL     1     -10.559   7.849 128.790  0.00  0.00    +0.000 C 
ENDBRANCH   2   4
ENDBRANCH   1   2
BRANCH   1   7
ATOM      7  O   UNL     1     -11.564   4.450 129.991  0.00  0.00    +0.000 OA
BRANCH   7   8
ATOM      8  C   UNL     1     -10.450   3.764 130.370  0.00  0.00    +0.000 C 
ATOM      9  N   UNL     1     -10.278   3.518 131.699  0.00  0.00    +0.000 N 
ATOM     10  O   UNL     1      -9.628   3.381 129.550  0.00  0.00    +0.000 OA
ATOM     11  H   UNL     1     -10.882   3.782 132.457  0.00  0.00    +0.000 HD
ATOM     12  H   UNL     1      -9.439   3.005 131.945  0.00  0.00    +0.000 HD
ENDBRANCH   7   8
ENDBRANCH   1   7
TORSDOF 4
ENDMDL
MODEL 9
REMARK VINA RESULT:      -3.8      9.369     10.166
REMARK  Name = Carbamoylcholine
REMARK  7 active torsions:
REMARK  status: ('A' for Active; 'I' for Inactive)
REMARK    1  A    between atoms: C_1  and  N_2
REMARK    2  A    between atoms: N_2  and  C_3
REMARK    3  A    between atoms: N_2  and  C_4
REMARK    4  A    between atoms: N_2  and  C_5
REMARK    5  A    between atoms: C_5  and  C_6
REMARK    6  A    between atoms: C_6  and  O_7
REMARK    7  A    between atoms: O_7  and  C_8
REMARK                            x       y       z     vdW  Elec       q    Type
REMARK                         _______ _______ _______ _____ _____    ______ ____
ROOT
ATOM      1  C   UNL     1     -12.347   6.837 130.307  0.00  0.00    +0.000 C 
ENDROOT
BRANCH   1   2
ATOM      2  C   UNL     1     -11.487   5.569 130.242  0.00  0.00    +0.000 C 
BRANCH   2   4
ATOM      3  C   UNL     1      -9.468   7.058 130.313  0.00  0.00    +0.000 C 
ATOM      4  N   UNL     1     -10.097   5.789 130.891  0.00  0.00    +0.000 N 
ATOM      5  C   UNL     1      -9.170   4.619 130.582  0.00  0.00    +0.000 C 
ATOM      6  C   UNL     1     -10.234   5.974 132.398  0.00  0.00    +0.000 C 
ENDBRANCH   2   4
ENDBRANCH   1   2
BRANCH   1   7
ATOM      7  O   UNL     1     -13.042   7.045 129.083  0.00  0.00    +0.000 OA
BRANCH   7   8
ATOM      8  C   UNL     1     -12.354   7.454 127.980  0.00  0.00    +0.000 C 
ATOM      9  N   UNL     1     -11.799   8.698 128.004  0.00  0.00    +0.000 N 
ATOM     10  O   UNL     1     -12.236   6.732 127.000  0.00  0.00    +0.000 OA
ATOM     11  H   UNL     1     -11.830   9.372 128.748  0.00  0.00    +0.000 HD
ATOM     12  H   UNL     1     -11.294   8.968 127.167  0.00  0.00    +0.000 HD
ENDBRANCH   7   8
ENDBRANCH   1   7
TORSDOF 4
ENDMDL
