MODEL 1
REMARK VINA RESULT:      -6.4      0.000      0.000
REMARK  Name = Carbinoxamine
REMARK  8 active torsions:
REMARK  status: ('A' for Active; 'I' for Inactive)
REMARK    1  A    between atoms: C_1  and  N_2
REMARK    2  A    between atoms: N_2  and  C_3
REMARK    3  A    between atoms: N_2  and  C_4
REMARK    4  A    between atoms: C_4  and  C_5
REMARK    5  A    between atoms: C_5  and  O_6
REMARK    6  A    between atoms: O_6  and  C_7
REMARK    7  A    between atoms: C_7  and  C_8
REMARK    8  A    between atoms: C_7  and  C_15
REMARK                            x       y       z     vdW  Elec       q    Type
REMARK                         _______ _______ _______ _____ _____    ______ ____
ROOT
ATOM      1  C   UNL     1      -8.952   6.584 131.265  0.00  0.00    +0.000 C 
ENDROOT
BRANCH   1   2
ATOM      2  C   UNL     1     -10.172   7.062 130.477  0.00  0.00    +0.000 A 
ATOM      3  C   UNL     1      -9.982   7.768 129.272  0.00  0.00    +0.000 A 
ATOM      4  C   UNL     1     -11.065   8.283 128.570  0.00  0.00    +0.000 A 
ATOM      5  C   UNL     1     -12.349   8.101 129.072  0.00  0.00    +0.000 A 
ATOM      6 CL   UNL     1     -13.689   8.763 128.221  0.00  0.00    +0.000 Cl
ATOM      7  C   UNL     1     -12.558   7.400 130.261  0.00  0.00    +0.000 A 
ATOM      8  C   UNL     1     -11.472   6.877 130.966  0.00  0.00    +0.000 A 
ENDBRANCH   1   2
BRANCH   1   9
ATOM      9  C   UNL     1      -9.123   5.167 131.804  0.00  0.00    +0.000 A 
ATOM     10  C   UNL     1      -9.070   4.937 133.177  0.00  0.00    +0.000 A 
ATOM     11  C   UNL     1      -9.203   3.627 133.637  0.00  0.00    +0.000 A 
ATOM     12  C   UNL     1      -9.376   2.591 132.729  0.00  0.00    +0.000 A 
ATOM     13  C   UNL     1      -9.415   2.897 131.384  0.00  0.00    +0.000 A 
ATOM     14  N   UNL     1      -9.291   4.152 130.916  0.00  0.00    +0.000 NA
ENDBRANCH   1   9
BRANCH   1  15
ATOM     15  O   UNL     1      -7.762   6.628 130.443  0.00  0.00    +0.000 OA
BRANCH  15  16
ATOM     16  C   UNL     1      -6.599   6.887 131.233  0.00  0.00    +0.000 C 
BRANCH  16  17
ATOM     17  C   UNL     1      -5.373   6.156 130.687  0.00  0.00    +0.000 C 
BRANCH  17  19
ATOM     18  C   UNL     1      -4.158   8.098 129.954  0.00  0.00    +0.000 C 
ATOM     19  N   UNL     1      -4.799   6.856 129.519  0.00  0.00    +0.000 NA
ATOM     20  C   UNL     1      -3.816   6.027 128.807  0.00  0.00    +0.000 C 
ENDBRANCH  17  19
ENDBRANCH  16  17
ENDBRANCH  15  16
ENDBRANCH   1  15
TORSDOF 6
ENDMDL
MODEL 2
REMARK VINA RESULT:      -6.4      8.142      9.903
REMARK  Name = Carbinoxamine
REMARK  8 active torsions:
REMARK  status: ('A' for Active; 'I' for Inactive)
REMARK    1  A    between atoms: C_1  and  N_2
REMARK    2  A    between atoms: N_2  and  C_3
REMARK    3  A    between atoms: N_2  and  C_4
REMARK    4  A    between atoms: C_4  and  C_5
REMARK    5  A    between atoms: C_5  and  O_6
REMARK    6  A    between atoms: O_6  and  C_7
REMARK    7  A    between atoms: C_7  and  C_8
REMARK    8  A    between atoms: C_7  and  C_15
REMARK                            x       y       z     vdW  Elec       q    Type
REMARK                         _______ _______ _______ _____ _____    ______ ____
ROOT
ATOM      1  C   UNL     1      -7.479   2.814 123.430  0.00  0.00    +0.000 C 
ENDROOT
BRANCH   1   2
ATOM      2  C   UNL     1      -7.929   1.353 123.395  0.00  0.00    +0.000 A 
ATOM      3  C   UNL     1      -6.961   0.331 123.445  0.00  0.00    +0.000 A 
ATOM      4  C   UNL     1      -7.328  -1.005 123.338  0.00  0.00    +0.000 A 
ATOM      5  C   UNL     1      -8.671  -1.329 123.173  0.00  0.00    +0.000 A 
ATOM      6 CL   UNL     1      -9.125  -2.980 123.010  0.00  0.00    +0.000 Cl
ATOM      7  C   UNL     1      -9.646  -0.332 123.127  0.00  0.00    +0.000 A 
ATOM      8  C   UNL     1      -9.280   1.011 123.240  0.00  0.00    +0.000 A 
ENDBRANCH   1   2
BRANCH   1   9
ATOM      9  C   UNL     1      -7.162   3.362 122.042  0.00  0.00    +0.000 A 
ATOM     10  C   UNL     1      -5.844   3.644 121.693  0.00  0.00    +0.000 A 
ATOM     11  C   UNL     1      -5.589   4.169 120.427  0.00  0.00    +0.000 A 
ATOM     12  C   UNL     1      -6.642   4.403 119.553  0.00  0.00    +0.000 A 
ATOM     13  C   UNL     1      -7.922   4.101 119.971  0.00  0.00    +0.000 A 
ATOM     14  N   UNL     1      -8.193   3.593 121.186  0.00  0.00    +0.000 NA
ENDBRANCH   1   9
BRANCH   1  15
ATOM     15  O   UNL     1      -8.495   3.647 124.038  0.00  0.00    +0.000 OA
BRANCH  15  16
ATOM     16  C   UNL     1      -8.115   4.044 125.357  0.00  0.00    +0.000 C 
BRANCH  16  17
ATOM     17  C   UNL     1      -6.779   4.784 125.360  0.00  0.00    +0.000 C 
BRANCH  17  19
ATOM     18  C   UNL     1      -6.737   3.752 127.532  0.00  0.00    +0.000 C 
ATOM     19  N   UNL     1      -6.190   4.836 126.715  0.00  0.00    +0.000 NA
ATOM     20  C   UNL     1      -4.725   4.728 126.685  0.00  0.00    +0.000 C 
ENDBRANCH  17  19
ENDBRANCH  16  17
ENDBRANCH  15  16
ENDBRANCH   1  15
TORSDOF 6
ENDMDL
MODEL 3
REMARK VINA RESULT:      -6.3      8.214      9.410
REMARK  Name = Carbinoxamine
REMARK  8 active torsions:
REMARK  status: ('A' for Active; 'I' for Inactive)
REMARK    1  A    between atoms: C_1  and  N_2
REMARK    2  A    between atoms: N_2  and  C_3
REMARK    3  A    between atoms: N_2  and  C_4
REMARK    4  A    between atoms: C_4  and  C_5
REMARK    5  A    between atoms: C_5  and  O_6
REMARK    6  A    between atoms: O_6  and  C_7
REMARK    7  A    between atoms: C_7  and  C_8
REMARK    8  A    between atoms: C_7  and  C_15
REMARK                            x       y       z     vdW  Elec       q    Type
REMARK                         _______ _______ _______ _____ _____    ______ ____
ROOT
ATOM      1  C   UNL     1      -7.506   1.848 123.745  0.00  0.00    +0.000 C 
ENDROOT
BRANCH   1   2
ATOM      2  C   UNL     1      -7.344   2.692 122.481  0.00  0.00    +0.000 A 
ATOM      3  C   UNL     1      -8.491   3.160 121.810  0.00  0.00    +0.000 A 
ATOM      4  C   UNL     1      -8.382   3.864 120.617  0.00  0.00    +0.000 A 
ATOM      5  C   UNL     1      -7.120   4.100 120.081  0.00  0.00    +0.000 A 
ATOM      6 CL   UNL     1      -6.984   4.944 118.589  0.00  0.00    +0.000 Cl
ATOM      7  C   UNL     1      -5.971   3.649 120.732  0.00  0.00    +0.000 A 
ATOM      8  C   UNL     1      -6.078   2.946 121.934  0.00  0.00    +0.000 A 
ENDBRANCH   1   2
BRANCH   1   9
ATOM      9  C   UNL     1      -7.806   0.384 123.437  0.00  0.00    +0.000 A 
ATOM     10  C   UNL     1      -6.758  -0.512 123.244  0.00  0.00    +0.000 A 
ATOM     11  C   UNL     1      -7.064  -1.837 122.937  0.00  0.00    +0.000 A 
ATOM     12  C   UNL     1      -8.391  -2.230 122.825  0.00  0.00    +0.000 A 
ATOM     13  C   UNL     1      -9.375  -1.284 123.028  0.00  0.00    +0.000 A 
ATOM     14  N   UNL     1      -9.105  -0.001 123.325  0.00  0.00    +0.000 NA
ENDBRANCH   1   9
BRANCH   1  15
ATOM     15  O   UNL     1      -6.313   1.916 124.562  0.00  0.00    +0.000 OA
BRANCH  15  16
ATOM     16  C   UNL     1      -6.620   2.351 125.888  0.00  0.00    +0.000 C 
BRANCH  16  17
ATOM     17  C   UNL     1      -6.107   3.766 126.150  0.00  0.00    +0.000 C 
BRANCH  17  19
ATOM     18  C   UNL     1      -8.204   4.886 125.789  0.00  0.00    +0.000 C 
ATOM     19  N   UNL     1      -7.148   4.616 126.765  0.00  0.00    +0.000 NA
ATOM     20  C   UNL     1      -7.738   3.992 127.957  0.00  0.00    +0.000 C 
ENDBRANCH  17  19
ENDBRANCH  16  17
ENDBRANCH  15  16
ENDBRANCH   1  15
TORSDOF 6
ENDMDL
MODEL 4
REMARK VINA RESULT:      -6.2      1.645      4.107
REMARK  Name = Carbinoxamine
REMARK  8 active torsions:
REMARK  status: ('A' for Active; 'I' for Inactive)
REMARK    1  A    between atoms: C_1  and  N_2
REMARK    2  A    between atoms: N_2  and  C_3
REMARK    3  A    between atoms: N_2  and  C_4
REMARK    4  A    between atoms: C_4  and  C_5
REMARK    5  A    between atoms: C_5  and  O_6
REMARK    6  A    between atoms: O_6  and  C_7
REMARK    7  A    between atoms: C_7  and  C_8
REMARK    8  A    between atoms: C_7  and  C_15
REMARK                            x       y       z     vdW  Elec       q    Type
REMARK                         _______ _______ _______ _____ _____    ______ ____
ROOT
ATOM      1  C   UNL     1      -9.843   5.277 129.983  0.00  0.00    +0.000 C 
ENDROOT
BRANCH   1   2
ATOM      2  C   UNL     1     -10.679   6.539 129.770  0.00  0.00    +0.000 A 
ATOM      3  C   UNL     1     -11.755   6.810 130.638  0.00  0.00    +0.000 A 
ATOM      4  C   UNL     1     -12.582   7.906 130.428  0.00  0.00    +0.000 A 
ATOM      5  C   UNL     1     -12.343   8.739 129.339  0.00  0.00    +0.000 A 
ATOM      6 CL   UNL     1     -13.384  10.079 129.059  0.00  0.00    +0.000 Cl
ATOM      7  C   UNL     1     -11.279   8.491 128.470  0.00  0.00    +0.000 A 
ATOM      8  C   UNL     1     -10.443   7.393 128.683  0.00  0.00    +0.000 A 
ENDBRANCH   1   2
BRANCH   1   9
ATOM      9  C   UNL     1      -8.376   5.589 130.267  0.00  0.00    +0.000 A 
ATOM     10  C   UNL     1      -8.044   6.540 131.229  0.00  0.00    +0.000 A 
ATOM     11  C   UNL     1      -6.696   6.822 131.447  0.00  0.00    +0.000 A 
ATOM     12  C   UNL     1      -5.725   6.163 130.705  0.00  0.00    +0.000 A 
ATOM     13  C   UNL     1      -6.131   5.236 129.767  0.00  0.00    +0.000 A 
ATOM     14  N   UNL     1      -7.424   4.946 129.540  0.00  0.00    +0.000 NA
ENDBRANCH   1   9
BRANCH   1  15
ATOM     15  O   UNL     1     -10.371   4.492 131.078  0.00  0.00    +0.000 OA
BRANCH  15  16
ATOM     16  C   UNL     1     -10.112   3.100 130.887  0.00  0.00    +0.000 C 
BRANCH  16  17
ATOM     17  C   UNL     1      -9.705   2.418 132.192  0.00  0.00    +0.000 C 
BRANCH  17  19
ATOM     18  C   UNL     1      -8.932   3.805 133.998  0.00  0.00    +0.000 C 
ATOM     19  N   UNL     1      -8.526   3.069 132.801  0.00  0.00    +0.000 NA
ATOM     20  C   UNL     1      -7.483   2.099 133.159  0.00  0.00    +0.000 C 
ENDBRANCH  17  19
ENDBRANCH  16  17
ENDBRANCH  15  16
ENDBRANCH   1  15
TORSDOF 6
ENDMDL
MODEL 5
REMARK VINA RESULT:      -6.1      8.240      9.313
REMARK  Name = Carbinoxamine
REMARK  8 active torsions:
REMARK  status: ('A' for Active; 'I' for Inactive)
REMARK    1  A    between atoms: C_1  and  N_2
REMARK    2  A    between atoms: N_2  and  C_3
REMARK    3  A    between atoms: N_2  and  C_4
REMARK    4  A    between atoms: C_4  and  C_5
REMARK    5  A    between atoms: C_5  and  O_6
REMARK    6  A    between atoms: O_6  and  C_7
REMARK    7  A    between atoms: C_7  and  C_8
REMARK    8  A    between atoms: C_7  and  C_15
REMARK                            x       y       z     vdW  Elec       q    Type
REMARK                         _______ _______ _______ _____ _____    ______ ____
ROOT
ATOM      1  C   UNL     1      -8.311   2.397 123.306  0.00  0.00    +0.000 C 
ENDROOT
BRANCH   1   2
ATOM      2  C   UNL     1      -7.805   3.067 122.028  0.00  0.00    +0.000 A 
ATOM      3  C   UNL     1      -6.433   3.355 121.895  0.00  0.00    +0.000 A 
ATOM      4  C   UNL     1      -5.950   4.031 120.782  0.00  0.00    +0.000 A 
ATOM      5  C   UNL     1      -6.841   4.431 119.791  0.00  0.00    +0.000 A 
ATOM      6 CL   UNL     1      -6.251   5.295 118.426  0.00  0.00    +0.000 Cl
ATOM      7  C   UNL     1      -8.204   4.151 119.901  0.00  0.00    +0.000 A 
ATOM      8  C   UNL     1      -8.690   3.467 121.017  0.00  0.00    +0.000 A 
ENDBRANCH   1   2
BRANCH   1   9
ATOM      9  C   UNL     1      -8.261   0.874 123.227  0.00  0.00    +0.000 A 
ATOM     10  C   UNL     1      -9.424   0.156 122.962  0.00  0.00    +0.000 A 
ATOM     11  C   UNL     1      -9.352  -1.236 122.923  0.00  0.00    +0.000 A 
ATOM     12  C   UNL     1      -8.139  -1.870 123.154  0.00  0.00    +0.000 A 
ATOM     13  C   UNL     1      -7.030  -1.091 123.413  0.00  0.00    +0.000 A 
ATOM     14  N   UNL     1      -7.074   0.252 123.455  0.00  0.00    +0.000 NA
ENDBRANCH   1   9
BRANCH   1  15
ATOM     15  O   UNL     1      -7.538   2.829 124.450  0.00  0.00    +0.000 OA
BRANCH  15  16
ATOM     16  C   UNL     1      -8.219   3.854 125.177  0.00  0.00    +0.000 C 
BRANCH  16  17
ATOM     17  C   UNL     1      -7.419   4.306 126.397  0.00  0.00    +0.000 C 
BRANCH  17  19
ATOM     18  C   UNL     1      -5.031   4.585 126.369  0.00  0.00    +0.000 C 
ATOM     19  N   UNL     1      -6.117   3.612 126.481  0.00  0.00    +0.000 NA
ATOM     20  C   UNL     1      -5.970   2.864 127.737  0.00  0.00    +0.000 C 
ENDBRANCH  17  19
ENDBRANCH  16  17
ENDBRANCH  15  16
ENDBRANCH   1  15
TORSDOF 6
ENDMDL
MODEL 6
REMARK VINA RESULT:      -5.8      7.427      8.662
REMARK  Name = Carbinoxamine
REMARK  8 active torsions:
REMARK  status: ('A' for Active; 'I' for Inactive)
REMARK    1  A    between atoms: C_1  and  N_2
REMARK    2  A    between atoms: N_2  and  C_3
REMARK    3  A    between atoms: N_2  and  C_4
REMARK    4  A    between atoms: C_4  and  C_5
REMARK    5  A    between atoms: C_5  and  O_6
REMARK    6  A    between atoms: O_6  and  C_7
REMARK    7  A    between atoms: C_7  and  C_8
REMARK    8  A    between atoms: C_7  and  C_15
REMARK                            x       y       z     vdW  Elec       q    Type
REMARK                         _______ _______ _______ _____ _____    ______ ____
ROOT
ATOM      1  C   UNL     1      -7.088   2.753 124.167  0.00  0.00    +0.000 C 
ENDROOT
BRANCH   1   2
ATOM      2  C   UNL     1      -7.194   3.258 122.728  0.00  0.00    +0.000 A 
ATOM      3  C   UNL     1      -8.450   3.269 122.090  0.00  0.00    +0.000 A 
ATOM      4  C   UNL     1      -8.570   3.649 120.760  0.00  0.00    +0.000 A 
ATOM      5  C   UNL     1      -7.430   4.017 120.053  0.00  0.00    +0.000 A 
ATOM      6 CL   UNL     1      -7.571   4.460 118.397  0.00  0.00    +0.000 Cl
ATOM      7  C   UNL     1      -6.177   4.019 120.668  0.00  0.00    +0.000 A 
ATOM      8  C   UNL     1      -6.055   3.642 122.007  0.00  0.00    +0.000 A 
ENDBRANCH   1   2
BRANCH   1   9
ATOM      9  C   UNL     1      -7.586   1.318 124.321  0.00  0.00    +0.000 A 
ATOM     10  C   UNL     1      -7.059   0.312 123.515  0.00  0.00    +0.000 A 
ATOM     11  C   UNL     1      -7.553  -0.984 123.661  0.00  0.00    +0.000 A 
ATOM     12  C   UNL     1      -8.553  -1.240 124.590  0.00  0.00    +0.000 A 
ATOM     13  C   UNL     1      -9.027  -0.191 125.350  0.00  0.00    +0.000 A 
ATOM     14  N   UNL     1      -8.566   1.066 125.229  0.00  0.00    +0.000 NA
ENDBRANCH   1   9
BRANCH   1  15
ATOM     15  O   UNL     1      -5.720   2.823 124.635  0.00  0.00    +0.000 OA
BRANCH  15  16
ATOM     16  C   UNL     1      -5.585   3.769 125.697  0.00  0.00    +0.000 C 
BRANCH  16  17
ATOM     17  C   UNL     1      -4.128   3.934 126.124  0.00  0.00    +0.000 C 
BRANCH  17  19
ATOM     18  C   UNL     1      -4.523   3.297 128.409  0.00  0.00    +0.000 C 
ATOM     19  N   UNL     1      -4.020   4.358 127.536  0.00  0.00    +0.000 NA
ATOM     20  C   UNL     1      -2.637   4.681 127.912  0.00  0.00    +0.000 C 
ENDBRANCH  17  19
ENDBRANCH  16  17
ENDBRANCH  15  16
ENDBRANCH   1  15
TORSDOF 6
ENDMDL
MODEL 7
REMARK VINA RESULT:      -5.8      7.582      9.660
REMARK  Name = Carbinoxamine
REMARK  8 active torsions:
REMARK  status: ('A' for Active; 'I' for Inactive)
REMARK    1  A    between atoms: C_1  and  N_2
REMARK    2  A    between atoms: N_2  and  C_3
REMARK    3  A    between atoms: N_2  and  C_4
REMARK    4  A    between atoms: C_4  and  C_5
REMARK    5  A    between atoms: C_5  and  O_6
REMARK    6  A    between atoms: O_6  and  C_7
REMARK    7  A    between atoms: C_7  and  C_8
REMARK    8  A    between atoms: C_7  and  C_15
REMARK                            x       y       z     vdW  Elec       q    Type
REMARK                         _______ _______ _______ _____ _____    ______ ____
ROOT
ATOM      1  C   UNL     1      -6.687  -2.468 129.570  0.00  0.00    +0.000 C 
ENDROOT
BRANCH   1   2
ATOM      2  C   UNL     1      -7.313  -2.772 128.209  0.00  0.00    +0.000 A 
ATOM      3  C   UNL     1      -6.664  -2.338 127.037  0.00  0.00    +0.000 A 
ATOM      4  C   UNL     1      -7.242  -2.531 125.789  0.00  0.00    +0.000 A 
ATOM      5  C   UNL     1      -8.483  -3.155 125.704  0.00  0.00    +0.000 A 
ATOM      6 CL   UNL     1      -9.215  -3.367 124.162  0.00  0.00    +0.000 Cl
ATOM      7  C   UNL     1      -9.140  -3.596 126.853  0.00  0.00    +0.000 A 
ATOM      8  C   UNL     1      -8.558  -3.409 128.108  0.00  0.00    +0.000 A 
ENDBRANCH   1   2
BRANCH   1   9
ATOM      9  C   UNL     1      -7.417  -1.353 130.314  0.00  0.00    +0.000 A 
ATOM     10  C   UNL     1      -7.718  -0.163 129.656  0.00  0.00    +0.000 A 
ATOM     11  C   UNL     1      -8.361   0.847 130.369  0.00  0.00    +0.000 A 
ATOM     12  C   UNL     1      -8.679   0.652 131.707  0.00  0.00    +0.000 A 
ATOM     13  C   UNL     1      -8.346  -0.553 132.292  0.00  0.00    +0.000 A 
ATOM     14  N   UNL     1      -7.727  -1.542 131.624  0.00  0.00    +0.000 NA
ENDBRANCH   1   9
BRANCH   1  15
ATOM     15  O   UNL     1      -6.674  -3.651 130.404  0.00  0.00    +0.000 OA
BRANCH  15  16
ATOM     16  C   UNL     1      -5.424  -4.337 130.308  0.00  0.00    +0.000 C 
BRANCH  16  17
ATOM     17  C   UNL     1      -4.415  -3.814 131.329  0.00  0.00    +0.000 C 
BRANCH  17  19
ATOM     18  C   UNL     1      -3.178  -3.642 129.273  0.00  0.00    +0.000 C 
ATOM     19  N   UNL     1      -3.240  -3.206 130.668  0.00  0.00    +0.000 NA
ATOM     20  C   UNL     1      -3.278  -1.738 130.716  0.00  0.00    +0.000 C 
ENDBRANCH  17  19
ENDBRANCH  16  17
ENDBRANCH  15  16
ENDBRANCH   1  15
TORSDOF 6
ENDMDL
MODEL 8
REMARK VINA RESULT:      -5.8      7.889      9.691
REMARK  Name = Carbinoxamine
REMARK  8 active torsions:
REMARK  status: ('A' for Active; 'I' for Inactive)
REMARK    1  A    between atoms: C_1  and  N_2
REMARK    2  A    between atoms: N_2  and  C_3
REMARK    3  A    between atoms: N_2  and  C_4
REMARK    4  A    between atoms: C_4  and  C_5
REMARK    5  A    between atoms: C_5  and  O_6
REMARK    6  A    between atoms: O_6  and  C_7
REMARK    7  A    between atoms: C_7  and  C_8
REMARK    8  A    between atoms: C_7  and  C_15
REMARK                            x       y       z     vdW  Elec       q    Type
REMARK                         _______ _______ _______ _____ _____    ______ ____
ROOT
ATOM      1  C   UNL     1      -7.386   2.139 124.218  0.00  0.00    +0.000 C 
ENDROOT
BRANCH   1   2
ATOM      2  C   UNL     1      -7.708   0.645 124.170  0.00  0.00    +0.000 A 
ATOM      3  C   UNL     1      -8.674   0.117 125.049  0.00  0.00    +0.000 A 
ATOM      4  C   UNL     1      -8.936  -1.246 125.086  0.00  0.00    +0.000 A 
ATOM      5  C   UNL     1      -8.225  -2.097 124.245  0.00  0.00    +0.000 A 
ATOM      6 CL   UNL     1      -8.525  -3.789 124.310  0.00  0.00    +0.000 Cl
ATOM      7  C   UNL     1      -7.267  -1.594 123.363  0.00  0.00    +0.000 A 
ATOM      8  C   UNL     1      -7.007  -0.223 123.321  0.00  0.00    +0.000 A 
ENDBRANCH   1   2
BRANCH   1   9
ATOM      9  C   UNL     1      -7.465   2.798 122.844  0.00  0.00    +0.000 A 
ATOM     10  C   UNL     1      -8.702   2.968 122.227  0.00  0.00    +0.000 A 
ATOM     11  C   UNL     1      -8.739   3.549 120.960  0.00  0.00    +0.000 A 
ATOM     12  C   UNL     1      -7.556   3.935 120.344  0.00  0.00    +0.000 A 
ATOM     13  C   UNL     1      -6.369   3.731 121.016  0.00  0.00    +0.000 A 
ATOM     14  N   UNL     1      -6.307   3.174 122.238  0.00  0.00    +0.000 NA
ENDBRANCH   1   9
BRANCH   1  15
ATOM     15  O   UNL     1      -8.288   2.828 125.116  0.00  0.00    +0.000 OA
BRANCH  15  16
ATOM     16  C   UNL     1      -7.568   3.565 126.106  0.00  0.00    +0.000 C 
BRANCH  16  17
ATOM     17  C   UNL     1      -6.080   3.216 126.097  0.00  0.00    +0.000 C 
BRANCH  17  19
ATOM     18  C   UNL     1      -6.062   5.433 125.166  0.00  0.00    +0.000 C 
ATOM     19  N   UNL     1      -5.247   4.401 125.807  0.00  0.00    +0.000 NA
ATOM     20  C   UNL     1      -4.632   4.954 127.021  0.00  0.00    +0.000 C 
ENDBRANCH  17  19
ENDBRANCH  16  17
ENDBRANCH  15  16
ENDBRANCH   1  15
TORSDOF 6
ENDMDL
MODEL 9
REMARK VINA RESULT:      -5.8      7.647     10.114
REMARK  Name = Carbinoxamine
REMARK  8 active torsions:
REMARK  status: ('A' for Active; 'I' for Inactive)
REMARK    1  A    between atoms: C_1  and  N_2
REMARK    2  A    between atoms: N_2  and  C_3
REMARK    3  A    between atoms: N_2  and  C_4
REMARK    4  A    between atoms: C_4  and  C_5
REMARK    5  A    between atoms: C_5  and  O_6
REMARK    6  A    between atoms: O_6  and  C_7
REMARK    7  A    between atoms: C_7  and  C_8
REMARK    8  A    between atoms: C_7  and  C_15
REMARK                            x       y       z     vdW  Elec       q    Type
REMARK                         _______ _______ _______ _____ _____    ______ ____
ROOT
ATOM      1  C   UNL     1      -7.254   2.372 124.439  0.00  0.00    +0.000 C 
ENDROOT
BRANCH   1   2
ATOM      2  C   UNL     1      -6.122   3.035 125.224  0.00  0.00    +0.000 A 
ATOM      3  C   UNL     1      -5.087   2.238 125.750  0.00  0.00    +0.000 A 
ATOM      4  C   UNL     1      -4.084   2.797 126.533  0.00  0.00    +0.000 A 
ATOM      5  C   UNL     1      -4.114   4.162 126.803  0.00  0.00    +0.000 A 
ATOM      6 CL   UNL     1      -2.892   4.851 127.797  0.00  0.00    +0.000 Cl
ATOM      7  C   UNL     1      -5.128   4.970 126.287  0.00  0.00    +0.000 A 
ATOM      8  C   UNL     1      -6.134   4.411 125.495  0.00  0.00    +0.000 A 
ENDBRANCH   1   2
BRANCH   1   9
ATOM      9  C   UNL     1      -7.347   2.884 123.004  0.00  0.00    +0.000 A 
ATOM     10  C   UNL     1      -6.184   3.155 122.288  0.00  0.00    +0.000 A 
ATOM     11  C   UNL     1      -6.302   3.646 120.988  0.00  0.00    +0.000 A 
ATOM     12  C   UNL     1      -7.561   3.861 120.444  0.00  0.00    +0.000 A 
ATOM     13  C   UNL     1      -8.668   3.572 121.216  0.00  0.00    +0.000 A 
ATOM     14  N   UNL     1      -8.580   3.096 122.470  0.00  0.00    +0.000 NA
ENDBRANCH   1   9
BRANCH   1  15
ATOM     15  O   UNL     1      -7.083   0.936 124.409  0.00  0.00    +0.000 OA
BRANCH  15  16
ATOM     16  C   UNL     1      -8.269   0.266 124.841  0.00  0.00    +0.000 C 
BRANCH  16  17
ATOM     17  C   UNL     1      -8.217  -1.229 124.531  0.00  0.00    +0.000 C 
BRANCH  17  19
ATOM     18  C   UNL     1      -9.682  -0.777 122.678  0.00  0.00    +0.000 C 
ATOM     19  N   UNL     1      -9.424  -1.675 123.804  0.00  0.00    +0.000 NA
ATOM     20  C   UNL     1      -9.293  -3.051 123.306  0.00  0.00    +0.000 C 
ENDBRANCH  17  19
ENDBRANCH  16  17
ENDBRANCH  15  16
ENDBRANCH   1  15
TORSDOF 6
ENDMDL
