MODEL 1
REMARK VINA RESULT:      -6.7      0.000      0.000
REMARK  Name = Carbocromen
REMARK  14 active torsions:
REMARK  status: ('A' for Active; 'I' for Inactive)
REMARK    1  A    between atoms: C_1  and  C_2
REMARK    2  A    between atoms: C_2  and  O_3
REMARK    3  A    between atoms: O_3  and  C_4
REMARK    4  A    between atoms: C_4  and  C_6
REMARK    5  A    between atoms: C_6  and  O_7
REMARK    6  A    between atoms: O_7  and  C_8
REMARK    7  A    between atoms: C_14  and  C_15
REMARK    8  A    between atoms: C_16  and  C_17
REMARK    9  A    between atoms: C_17  and  C_18
REMARK   10  A    between atoms: C_18  and  N_19
REMARK   11  A    between atoms: N_19  and  C_20
REMARK   12  A    between atoms: N_19  and  C_22
REMARK   13  A    between atoms: C_20  and  C_21
REMARK   14  A    between atoms: C_22  and  C_23
REMARK                            x       y       z     vdW  Elec       q    Type
REMARK                         _______ _______ _______ _____ _____    ______ ____
ROOT
ATOM      1  C   UNL     1     -10.898   6.639 131.036  0.00  0.00    +0.000 A 
ATOM      2  C   UNL     1      -9.729   7.069 130.446  0.00  0.00    +0.000 A 
ATOM      3  C   UNL     1      -8.517   6.764 131.053  0.00  0.00    +0.000 A 
ATOM      4  C   UNL     1      -8.408   6.056 132.248  0.00  0.00    +0.000 A 
ATOM      5  C   UNL     1      -9.597   5.627 132.834  0.00  0.00    +0.000 A 
ATOM      6  C   UNL     1     -10.831   5.935 132.241  0.00  0.00    +0.000 A 
ATOM      7  C   UNL     1      -7.073   5.864 132.824  0.00  0.00    +0.000 A 
ATOM      8  C   UNL     1      -6.886   5.060 134.103  0.00  0.00    +0.000 C 
ATOM      9  C   UNL     1      -6.025   6.423 132.166  0.00  0.00    +0.000 A 
ATOM     10  C   UNL     1      -6.154   7.084 130.843  0.00  0.00    +0.000 A 
ATOM     11  O   UNL     1      -5.200   7.458 130.161  0.00  0.00    +0.000 OA
ATOM     12  O   UNL     1      -7.416   7.248 130.352  0.00  0.00    +0.000 OA
ENDROOT
BRANCH   1  13
ATOM     13  O   UNL     1     -12.139   6.941 130.559  0.00  0.00    +0.000 OA
BRANCH  13  14
ATOM     14  C   UNL     1     -12.339   8.288 130.102  0.00  0.00    +0.000 C 
BRANCH  14  15
ATOM     15  C   UNL     1     -13.031   8.230 128.736  0.00  0.00    +0.000 C 
ATOM     16  O   UNL     1     -13.667   9.147 128.238  0.00  0.00    +0.000 OA
BRANCH  15  17
ATOM     17  O   UNL     1     -12.844   7.013 128.124  0.00  0.00    +0.000 OA
BRANCH  17  19
ATOM     18  C   UNL     1     -10.949   7.470 126.661  0.00  0.00    +0.000 C 
ATOM     19  C   UNL     1     -12.427   7.121 126.746  0.00  0.00    +0.000 C 
ENDBRANCH  17  19
ENDBRANCH  15  17
ENDBRANCH  14  15
ENDBRANCH  13  14
ENDBRANCH   1  13
BRANCH   9  20
ATOM     20  C   UNL     1      -4.645   6.192 132.686  0.00  0.00    +0.000 C 
BRANCH  20  21
ATOM     21  C   UNL     1      -3.886   4.916 132.351  0.00  0.00    +0.000 C 
BRANCH  21  22
ATOM     22  N   UNL     1      -2.677   5.109 131.525  0.00  0.00    +0.000 NA
BRANCH  22  23
ATOM     23  C   UNL     1      -2.922   4.881 130.082  0.00  0.00    +0.000 C 
ATOM     24  C   UNL     1      -3.918   3.787 129.707  0.00  0.00    +0.000 C 
ENDBRANCH  22  23
BRANCH  22  25
ATOM     25  C   UNL     1      -2.248   6.514 131.760  0.00  0.00    +0.000 C 
ATOM     26  C   UNL     1      -0.762   6.633 132.052  0.00  0.00    +0.000 C 
ENDBRANCH  22  25
ENDBRANCH  21  22
ENDBRANCH  20  21
ENDBRANCH   9  20
TORSDOF 10
ENDMDL
MODEL 2
REMARK VINA RESULT:      -6.6      1.923      2.952
REMARK  Name = Carbocromen
REMARK  14 active torsions:
REMARK  status: ('A' for Active; 'I' for Inactive)
REMARK    1  A    between atoms: C_1  and  C_2
REMARK    2  A    between atoms: C_2  and  O_3
REMARK    3  A    between atoms: O_3  and  C_4
REMARK    4  A    between atoms: C_4  and  C_6
REMARK    5  A    between atoms: C_6  and  O_7
REMARK    6  A    between atoms: O_7  and  C_8
REMARK    7  A    between atoms: C_14  and  C_15
REMARK    8  A    between atoms: C_16  and  C_17
REMARK    9  A    between atoms: C_17  and  C_18
REMARK   10  A    between atoms: C_18  and  N_19
REMARK   11  A    between atoms: N_19  and  C_20
REMARK   12  A    between atoms: N_19  and  C_22
REMARK   13  A    between atoms: C_20  and  C_21
REMARK   14  A    between atoms: C_22  and  C_23
REMARK                            x       y       z     vdW  Elec       q    Type
REMARK                         _______ _______ _______ _____ _____    ______ ____
ROOT
ATOM      1  C   UNL     1      -9.385   6.067 132.192  0.00  0.00    +0.000 A 
ATOM      2  C   UNL     1      -8.559   6.680 131.275  0.00  0.00    +0.000 A 
ATOM      3  C   UNL     1      -7.185   6.643 131.478  0.00  0.00    +0.000 A 
ATOM      4  C   UNL     1      -6.581   6.035 132.575  0.00  0.00    +0.000 A 
ATOM      5  C   UNL     1      -7.427   5.419 133.496  0.00  0.00    +0.000 A 
ATOM      6  C   UNL     1      -8.818   5.455 133.313  0.00  0.00    +0.000 A 
ATOM      7  C   UNL     1      -5.125   6.131 132.711  0.00  0.00    +0.000 A 
ATOM      8  C   UNL     1      -4.404   5.447 133.865  0.00  0.00    +0.000 C 
ATOM      9  C   UNL     1      -4.457   6.843 131.767  0.00  0.00    +0.000 A 
ATOM     10  C   UNL     1      -5.109   7.396 130.553  0.00  0.00    +0.000 A 
ATOM     11  O   UNL     1      -4.500   7.908 129.614  0.00  0.00    +0.000 OA
ATOM     12  O   UNL     1      -6.466   7.290 130.475  0.00  0.00    +0.000 OA
ENDROOT
BRANCH   1  13
ATOM     13  O   UNL     1     -10.746   6.101 132.123  0.00  0.00    +0.000 OA
BRANCH  13  14
ATOM     14  C   UNL     1     -11.330   5.776 130.850  0.00  0.00    +0.000 C 
BRANCH  14  15
ATOM     15  C   UNL     1     -12.460   6.774 130.577  0.00  0.00    +0.000 C 
ATOM     16  O   UNL     1     -13.218   7.217 131.426  0.00  0.00    +0.000 OA
BRANCH  15  17
ATOM     17  O   UNL     1     -12.517   7.124 129.248  0.00  0.00    +0.000 OA
BRANCH  17  19
ATOM     18  C   UNL     1     -10.729   8.477 128.291  0.00  0.00    +0.000 C 
ATOM     19  C   UNL     1     -11.235   7.073 128.586  0.00  0.00    +0.000 C 
ENDBRANCH  17  19
ENDBRANCH  15  17
ENDBRANCH  14  15
ENDBRANCH  13  14
ENDBRANCH   1  13
BRANCH   9  20
ATOM     20  C   UNL     1      -2.967   6.908 131.836  0.00  0.00    +0.000 C 
BRANCH  20  21
ATOM     21  C   UNL     1      -2.262   8.152 132.360  0.00  0.00    +0.000 C 
BRANCH  21  22
ATOM     22  N   UNL     1      -2.318   8.328 133.826  0.00  0.00    +0.000 NA
BRANCH  22  23
ATOM     23  C   UNL     1      -1.119   7.796 134.515  0.00  0.00    +0.000 C 
ATOM     24  C   UNL     1       0.143   7.608 133.678  0.00  0.00    +0.000 C 
ENDBRANCH  22  23
BRANCH  22  25
ATOM     25  C   UNL     1      -2.435   9.794 134.052  0.00  0.00    +0.000 C 
ATOM     26  C   UNL     1      -2.036  10.609 132.833  0.00  0.00    +0.000 C 
ENDBRANCH  22  25
ENDBRANCH  21  22
ENDBRANCH  20  21
ENDBRANCH   9  20
TORSDOF 10
ENDMDL
MODEL 3
REMARK VINA RESULT:      -6.4      0.945      1.681
REMARK  Name = Carbocromen
REMARK  14 active torsions:
REMARK  status: ('A' for Active; 'I' for Inactive)
REMARK    1  A    between atoms: C_1  and  C_2
REMARK    2  A    between atoms: C_2  and  O_3
REMARK    3  A    between atoms: O_3  and  C_4
REMARK    4  A    between atoms: C_4  and  C_6
REMARK    5  A    between atoms: C_6  and  O_7
REMARK    6  A    between atoms: O_7  and  C_8
REMARK    7  A    between atoms: C_14  and  C_15
REMARK    8  A    between atoms: C_16  and  C_17
REMARK    9  A    between atoms: C_17  and  C_18
REMARK   10  A    between atoms: C_18  and  N_19
REMARK   11  A    between atoms: N_19  and  C_20
REMARK   12  A    between atoms: N_19  and  C_22
REMARK   13  A    between atoms: C_20  and  C_21
REMARK   14  A    between atoms: C_22  and  C_23
REMARK                            x       y       z     vdW  Elec       q    Type
REMARK                         _______ _______ _______ _____ _____    ______ ____
ROOT
ATOM      1  C   UNL     1     -10.915   6.647 130.954  0.00  0.00    +0.000 A 
ATOM      2  C   UNL     1      -9.733   7.084 130.396  0.00  0.00    +0.000 A 
ATOM      3  C   UNL     1      -8.536   6.775 131.029  0.00  0.00    +0.000 A 
ATOM      4  C   UNL     1      -8.453   6.057 132.220  0.00  0.00    +0.000 A 
ATOM      5  C   UNL     1      -9.655   5.622 132.775  0.00  0.00    +0.000 A 
ATOM      6  C   UNL     1     -10.875   5.933 132.155  0.00  0.00    +0.000 A 
ATOM      7  C   UNL     1      -7.133   5.862 132.826  0.00  0.00    +0.000 A 
ATOM      8  C   UNL     1      -6.975   5.047 134.103  0.00  0.00    +0.000 C 
ATOM      9  C   UNL     1      -6.070   6.428 132.198  0.00  0.00    +0.000 A 
ATOM     10  C   UNL     1      -6.169   7.100 130.878  0.00  0.00    +0.000 A 
ATOM     11  O   UNL     1      -5.199   7.481 130.222  0.00  0.00    +0.000 OA
ATOM     12  O   UNL     1      -7.419   7.267 130.358  0.00  0.00    +0.000 OA
ENDROOT
BRANCH   1  13
ATOM     13  O   UNL     1     -12.145   6.951 130.451  0.00  0.00    +0.000 OA
BRANCH  13  14
ATOM     14  C   UNL     1     -12.353   8.315 130.051  0.00  0.00    +0.000 C 
BRANCH  14  15
ATOM     15  C   UNL     1     -13.099   8.310 128.712  0.00  0.00    +0.000 C 
ATOM     16  O   UNL     1     -13.696   9.267 128.244  0.00  0.00    +0.000 OA
BRANCH  15  17
ATOM     17  O   UNL     1     -13.007   7.089 128.085  0.00  0.00    +0.000 OA
BRANCH  17  19
ATOM     18  C   UNL     1     -11.029   7.500 126.722  0.00  0.00    +0.000 C 
ATOM     19  C   UNL     1     -12.515   7.174 126.731  0.00  0.00    +0.000 C 
ENDBRANCH  17  19
ENDBRANCH  15  17
ENDBRANCH  14  15
ENDBRANCH  13  14
ENDBRANCH   1  13
BRANCH   9  20
ATOM     20  C   UNL     1      -4.702   6.195 132.749  0.00  0.00    +0.000 C 
BRANCH  20  21
ATOM     21  C   UNL     1      -3.873   4.998 132.304  0.00  0.00    +0.000 C 
BRANCH  21  22
ATOM     22  N   UNL     1      -4.455   4.217 131.193  0.00  0.00    +0.000 NA
BRANCH  22  23
ATOM     23  C   UNL     1      -3.549   4.113 130.026  0.00  0.00    +0.000 C 
ATOM     24  C   UNL     1      -4.131   4.454 128.657  0.00  0.00    +0.000 C 
ENDBRANCH  22  23
BRANCH  22  25
ATOM     25  C   UNL     1      -4.734   2.867 131.752  0.00  0.00    +0.000 C 
ATOM     26  C   UNL     1      -6.174   2.431 131.542  0.00  0.00    +0.000 C 
ENDBRANCH  22  25
ENDBRANCH  21  22
ENDBRANCH  20  21
ENDBRANCH   9  20
TORSDOF 10
ENDMDL
MODEL 4
REMARK VINA RESULT:      -6.4      2.317      3.174
REMARK  Name = Carbocromen
REMARK  14 active torsions:
REMARK  status: ('A' for Active; 'I' for Inactive)
REMARK    1  A    between atoms: C_1  and  C_2
REMARK    2  A    between atoms: C_2  and  O_3
REMARK    3  A    between atoms: O_3  and  C_4
REMARK    4  A    between atoms: C_4  and  C_6
REMARK    5  A    between atoms: C_6  and  O_7
REMARK    6  A    between atoms: O_7  and  C_8
REMARK    7  A    between atoms: C_14  and  C_15
REMARK    8  A    between atoms: C_16  and  C_17
REMARK    9  A    between atoms: C_17  and  C_18
REMARK   10  A    between atoms: C_18  and  N_19
REMARK   11  A    between atoms: N_19  and  C_20
REMARK   12  A    between atoms: N_19  and  C_22
REMARK   13  A    between atoms: C_20  and  C_21
REMARK   14  A    between atoms: C_22  and  C_23
REMARK                            x       y       z     vdW  Elec       q    Type
REMARK                         _______ _______ _______ _____ _____    ______ ____
ROOT
ATOM      1  C   UNL     1     -10.241   5.567 130.691  0.00  0.00    +0.000 A 
ATOM      2  C   UNL     1      -9.556   4.409 130.391  0.00  0.00    +0.000 A 
ATOM      3  C   UNL     1      -8.169   4.411 130.458  0.00  0.00    +0.000 A 
ATOM      4  C   UNL     1      -7.412   5.531 130.795  0.00  0.00    +0.000 A 
ATOM      5  C   UNL     1      -8.116   6.696 131.096  0.00  0.00    +0.000 A 
ATOM      6  C   UNL     1      -9.518   6.716 131.023  0.00  0.00    +0.000 A 
ATOM      7  C   UNL     1      -5.951   5.422 130.757  0.00  0.00    +0.000 A 
ATOM      8  C   UNL     1      -5.072   6.599 131.160  0.00  0.00    +0.000 C 
ATOM      9  C   UNL     1      -5.425   4.235 130.359  0.00  0.00    +0.000 A 
ATOM     10  C   UNL     1      -6.249   3.026 130.103  0.00  0.00    +0.000 A 
ATOM     11  O   UNL     1      -5.784   1.906 129.893  0.00  0.00    +0.000 OA
ATOM     12  O   UNL     1      -7.603   3.178 130.141  0.00  0.00    +0.000 OA
ENDROOT
BRANCH   1  13
ATOM     13  O   UNL     1     -11.595   5.691 130.592  0.00  0.00    +0.000 OA
BRANCH  13  14
ATOM     14  C   UNL     1     -12.158   6.933 131.043  0.00  0.00    +0.000 C 
BRANCH  14  15
ATOM     15  C   UNL     1     -12.683   7.690 129.818  0.00  0.00    +0.000 C 
ATOM     16  O   UNL     1     -12.929   8.887 129.792  0.00  0.00    +0.000 OA
BRANCH  15  17
ATOM     17  O   UNL     1     -12.839   6.857 128.736  0.00  0.00    +0.000 OA
BRANCH  17  19
ATOM     18  C   UNL     1     -10.828   7.423 127.479  0.00  0.00    +0.000 C 
ATOM     19  C   UNL     1     -12.349   7.423 127.501  0.00  0.00    +0.000 C 
ENDBRANCH  17  19
ENDBRANCH  15  17
ENDBRANCH  14  15
ENDBRANCH  13  14
ENDBRANCH   1  13
BRANCH   9  20
ATOM     20  C   UNL     1      -3.942   4.066 130.370  0.00  0.00    +0.000 C 
BRANCH  20  21
ATOM     21  C   UNL     1      -3.127   4.233 129.096  0.00  0.00    +0.000 C 
BRANCH  21  22
ATOM     22  N   UNL     1      -3.881   4.758 127.939  0.00  0.00    +0.000 NA
BRANCH  22  23
ATOM     23  C   UNL     1      -3.622   6.194 127.687  0.00  0.00    +0.000 C 
ATOM     24  C   UNL     1      -2.380   6.805 128.332  0.00  0.00    +0.000 C 
ENDBRANCH  22  23
BRANCH  22  25
ATOM     25  C   UNL     1      -3.449   3.942 126.772  0.00  0.00    +0.000 C 
ATOM     26  C   UNL     1      -2.065   3.342 126.957  0.00  0.00    +0.000 C 
ENDBRANCH  22  25
ENDBRANCH  21  22
ENDBRANCH  20  21
ENDBRANCH   9  20
TORSDOF 10
ENDMDL
MODEL 5
REMARK VINA RESULT:      -6.3      8.440      9.892
REMARK  Name = Carbocromen
REMARK  14 active torsions:
REMARK  status: ('A' for Active; 'I' for Inactive)
REMARK    1  A    between atoms: C_1  and  C_2
REMARK    2  A    between atoms: C_2  and  O_3
REMARK    3  A    between atoms: O_3  and  C_4
REMARK    4  A    between atoms: C_4  and  C_6
REMARK    5  A    between atoms: C_6  and  O_7
REMARK    6  A    between atoms: O_7  and  C_8
REMARK    7  A    between atoms: C_14  and  C_15
REMARK    8  A    between atoms: C_16  and  C_17
REMARK    9  A    between atoms: C_17  and  C_18
REMARK   10  A    between atoms: C_18  and  N_19
REMARK   11  A    between atoms: N_19  and  C_20
REMARK   12  A    between atoms: N_19  and  C_22
REMARK   13  A    between atoms: C_20  and  C_21
REMARK   14  A    between atoms: C_22  and  C_23
REMARK                            x       y       z     vdW  Elec       q    Type
REMARK                         _______ _______ _______ _____ _____    ______ ____
ROOT
ATOM      1  C   UNL     1      -9.087  -2.723 126.215  0.00  0.00    +0.000 A 
ATOM      2  C   UNL     1      -8.199  -1.692 126.433  0.00  0.00    +0.000 A 
ATOM      3  C   UNL     1      -7.482  -1.661 127.622  0.00  0.00    +0.000 A 
ATOM      4  C   UNL     1      -7.620  -2.610 128.633  0.00  0.00    +0.000 A 
ATOM      5  C   UNL     1      -8.522  -3.648 128.400  0.00  0.00    +0.000 A 
ATOM      6  C   UNL     1      -9.262  -3.689 127.209  0.00  0.00    +0.000 A 
ATOM      7  C   UNL     1      -6.860  -2.424 129.872  0.00  0.00    +0.000 A 
ATOM      8  C   UNL     1      -6.935  -3.452 130.993  0.00  0.00    +0.000 C 
ATOM      9  C   UNL     1      -6.090  -1.309 129.969  0.00  0.00    +0.000 A 
ATOM     10  C   UNL     1      -5.880  -0.365 128.841  0.00  0.00    +0.000 A 
ATOM     11  O   UNL     1      -5.070   0.561 128.857  0.00  0.00    +0.000 OA
ATOM     12  O   UNL     1      -6.616  -0.575 127.712  0.00  0.00    +0.000 OA
ENDROOT
BRANCH   1  13
ATOM     13  O   UNL     1      -9.886  -2.810 125.113  0.00  0.00    +0.000 OA
BRANCH  13  14
ATOM     14  C   UNL     1      -9.257  -3.257 123.901  0.00  0.00    +0.000 C 
BRANCH  14  15
ATOM     15  C   UNL     1      -9.039  -2.035 123.001  0.00  0.00    +0.000 C 
ATOM     16  O   UNL     1      -9.816  -1.098 122.900  0.00  0.00    +0.000 OA
BRANCH  15  17
ATOM     17  O   UNL     1      -7.848  -2.114 122.319  0.00  0.00    +0.000 OA
BRANCH  17  19
ATOM     18  C   UNL     1      -5.678  -2.536 123.344  0.00  0.00    +0.000 C 
ATOM     19  C   UNL     1      -6.744  -1.501 123.019  0.00  0.00    +0.000 C 
ENDBRANCH  17  19
ENDBRANCH  15  17
ENDBRANCH  14  15
ENDBRANCH  13  14
ENDBRANCH   1  13
BRANCH   9  20
ATOM     20  C   UNL     1      -5.252  -1.118 131.189  0.00  0.00    +0.000 C 
BRANCH  20  21
ATOM     21  C   UNL     1      -3.739  -1.278 131.130  0.00  0.00    +0.000 C 
BRANCH  21  22
ATOM     22  N   UNL     1      -3.222  -2.529 131.720  0.00  0.00    +0.000 NA
BRANCH  22  23
ATOM     23  C   UNL     1      -3.847  -2.853 133.024  0.00  0.00    +0.000 C 
ATOM     24  C   UNL     1      -4.105  -4.327 133.328  0.00  0.00    +0.000 C 
ENDBRANCH  22  23
BRANCH  22  25
ATOM     25  C   UNL     1      -3.518  -3.596 130.726  0.00  0.00    +0.000 C 
ATOM     26  C   UNL     1      -2.972  -3.278 129.345  0.00  0.00    +0.000 C 
ENDBRANCH  22  25
ENDBRANCH  21  22
ENDBRANCH  20  21
ENDBRANCH   9  20
TORSDOF 10
ENDMDL
MODEL 6
REMARK VINA RESULT:      -6.3      8.831     12.119
REMARK  Name = Carbocromen
REMARK  14 active torsions:
REMARK  status: ('A' for Active; 'I' for Inactive)
REMARK    1  A    between atoms: C_1  and  C_2
REMARK    2  A    between atoms: C_2  and  O_3
REMARK    3  A    between atoms: O_3  and  C_4
REMARK    4  A    between atoms: C_4  and  C_6
REMARK    5  A    between atoms: C_6  and  O_7
REMARK    6  A    between atoms: O_7  and  C_8
REMARK    7  A    between atoms: C_14  and  C_15
REMARK    8  A    between atoms: C_16  and  C_17
REMARK    9  A    between atoms: C_17  and  C_18
REMARK   10  A    between atoms: C_18  and  N_19
REMARK   11  A    between atoms: N_19  and  C_20
REMARK   12  A    between atoms: N_19  and  C_22
REMARK   13  A    between atoms: C_20  and  C_21
REMARK   14  A    between atoms: C_22  and  C_23
REMARK                            x       y       z     vdW  Elec       q    Type
REMARK                         _______ _______ _______ _____ _____    ______ ____
ROOT
ATOM      1  C   UNL     1      -4.025  -3.741 131.402  0.00  0.00    +0.000 A 
ATOM      2  C   UNL     1      -3.839  -2.955 130.285  0.00  0.00    +0.000 A 
ATOM      3  C   UNL     1      -4.915  -2.726 129.437  0.00  0.00    +0.000 A 
ATOM      4  C   UNL     1      -6.185  -3.263 129.636  0.00  0.00    +0.000 A 
ATOM      5  C   UNL     1      -6.360  -4.056 130.768  0.00  0.00    +0.000 A 
ATOM      6  C   UNL     1      -5.282  -4.307 131.631  0.00  0.00    +0.000 A 
ATOM      7  C   UNL     1      -7.216  -3.006 128.626  0.00  0.00    +0.000 A 
ATOM      8  C   UNL     1      -8.633  -3.528 128.811  0.00  0.00    +0.000 C 
ATOM      9  C   UNL     1      -6.853  -2.282 127.536  0.00  0.00    +0.000 A 
ATOM     10  C   UNL     1      -5.524  -1.634 127.395  0.00  0.00    +0.000 A 
ATOM     11  O   UNL     1      -5.229  -0.850 126.493  0.00  0.00    +0.000 OA
ATOM     12  O   UNL     1      -4.595  -1.910 128.354  0.00  0.00    +0.000 OA
ENDROOT
BRANCH   1  13
ATOM     13  O   UNL     1      -3.023  -4.081 132.261  0.00  0.00    +0.000 OA
BRANCH  13  14
ATOM     14  C   UNL     1      -3.236  -3.771 133.648  0.00  0.00    +0.000 C 
BRANCH  14  15
ATOM     15  C   UNL     1      -2.629  -2.392 133.926  0.00  0.00    +0.000 C 
ATOM     16  O   UNL     1      -1.432  -2.148 133.941  0.00  0.00    +0.000 OA
BRANCH  15  17
ATOM     17  O   UNL     1      -3.601  -1.446 134.150  0.00  0.00    +0.000 OA
BRANCH  17  19
ATOM     18  C   UNL     1      -5.144  -0.333 132.626  0.00  0.00    +0.000 C 
ATOM     19  C   UNL     1      -3.703  -0.466 133.094  0.00  0.00    +0.000 C 
ENDBRANCH  17  19
ENDBRANCH  15  17
ENDBRANCH  14  15
ENDBRANCH  13  14
ENDBRANCH   1  13
BRANCH   9  20
ATOM     20  C   UNL     1      -7.892  -1.944 126.519  0.00  0.00    +0.000 C 
BRANCH  20  21
ATOM     21  C   UNL     1      -7.970  -2.701 125.200  0.00  0.00    +0.000 C 
BRANCH  21  22
ATOM     22  N   UNL     1      -7.600  -1.913 124.007  0.00  0.00    +0.000 NA
BRANCH  22  23
ATOM     23  C   UNL     1      -6.276  -2.286 123.458  0.00  0.00    +0.000 C 
ATOM     24  C   UNL     1      -5.596  -3.518 124.050  0.00  0.00    +0.000 C 
ENDBRANCH  22  23
BRANCH  22  25
ATOM     25  C   UNL     1      -8.668  -2.173 123.004  0.00  0.00    +0.000 C 
ATOM     26  C   UNL     1      -9.579  -3.322 123.403  0.00  0.00    +0.000 C 
ENDBRANCH  22  25
ENDBRANCH  21  22
ENDBRANCH  20  21
ENDBRANCH   9  20
TORSDOF 10
ENDMDL
MODEL 7
REMARK VINA RESULT:      -6.1      7.944      9.456
REMARK  Name = Carbocromen
REMARK  14 active torsions:
REMARK  status: ('A' for Active; 'I' for Inactive)
REMARK    1  A    between atoms: C_1  and  C_2
REMARK    2  A    between atoms: C_2  and  O_3
REMARK    3  A    between atoms: O_3  and  C_4
REMARK    4  A    between atoms: C_4  and  C_6
REMARK    5  A    between atoms: C_6  and  O_7
REMARK    6  A    between atoms: O_7  and  C_8
REMARK    7  A    between atoms: C_14  and  C_15
REMARK    8  A    between atoms: C_16  and  C_17
REMARK    9  A    between atoms: C_17  and  C_18
REMARK   10  A    between atoms: C_18  and  N_19
REMARK   11  A    between atoms: N_19  and  C_20
REMARK   12  A    between atoms: N_19  and  C_22
REMARK   13  A    between atoms: C_20  and  C_21
REMARK   14  A    between atoms: C_22  and  C_23
REMARK                            x       y       z     vdW  Elec       q    Type
REMARK                         _______ _______ _______ _____ _____    ______ ____
ROOT
ATOM      1  C   UNL     1      -9.060  -2.731 126.290  0.00  0.00    +0.000 A 
ATOM      2  C   UNL     1      -8.428  -1.544 126.595  0.00  0.00    +0.000 A 
ATOM      3  C   UNL     1      -7.842  -1.397 127.846  0.00  0.00    +0.000 A 
ATOM      4  C   UNL     1      -7.870  -2.379 128.834  0.00  0.00    +0.000 A 
ATOM      5  C   UNL     1      -8.512  -3.573 128.513  0.00  0.00    +0.000 A 
ATOM      6  C   UNL     1      -9.119  -3.737 127.258  0.00  0.00    +0.000 A 
ATOM      7  C   UNL     1      -7.278  -2.070 130.139  0.00  0.00    +0.000 A 
ATOM      8  C   UNL     1      -7.238  -3.119 131.242  0.00  0.00    +0.000 C 
ATOM      9  C   UNL     1      -6.768  -0.823 130.313  0.00  0.00    +0.000 A 
ATOM     10  C   UNL     1      -6.659   0.171 129.215  0.00  0.00    +0.000 A 
ATOM     11  O   UNL     1      -6.063   1.243 129.311  0.00  0.00    +0.000 OA
ATOM     12  O   UNL     1      -7.231  -0.157 128.022  0.00  0.00    +0.000 OA
ENDROOT
BRANCH   1  13
ATOM     13  O   UNL     1      -9.722  -2.954 125.120  0.00  0.00    +0.000 OA
BRANCH  13  14
ATOM     14  C   UNL     1      -8.911  -3.265 123.975  0.00  0.00    +0.000 C 
BRANCH  14  15
ATOM     15  C   UNL     1      -8.749  -1.987 123.145  0.00  0.00    +0.000 C 
ATOM     16  O   UNL     1      -9.669  -1.262 122.798  0.00  0.00    +0.000 OA
BRANCH  15  17
ATOM     17  O   UNL     1      -7.431  -1.743 122.840  0.00  0.00    +0.000 OA
BRANCH  17  19
ATOM     18  C   UNL     1      -5.542  -1.824 124.379  0.00  0.00    +0.000 C 
ATOM     19  C   UNL     1      -6.512  -2.623 123.522  0.00  0.00    +0.000 C 
ENDBRANCH  17  19
ENDBRANCH  15  17
ENDBRANCH  14  15
ENDBRANCH  13  14
ENDBRANCH   1  13
BRANCH   9  20
ATOM     20  C   UNL     1      -6.100  -0.494 131.607  0.00  0.00    +0.000 C 
BRANCH  20  21
ATOM     21  C   UNL     1      -4.584  -0.555 131.740  0.00  0.00    +0.000 C 
BRANCH  21  22
ATOM     22  N   UNL     1      -4.000  -1.904 131.591  0.00  0.00    +0.000 NA
BRANCH  22  23
ATOM     23  C   UNL     1      -3.181  -2.044 130.365  0.00  0.00    +0.000 C 
ATOM     24  C   UNL     1      -3.641  -3.068 129.331  0.00  0.00    +0.000 C 
ENDBRANCH  22  23
BRANCH  22  25
ATOM     25  C   UNL     1      -3.159  -2.115 132.801  0.00  0.00    +0.000 C 
ATOM     26  C   UNL     1      -2.583  -0.820 133.347  0.00  0.00    +0.000 C 
ENDBRANCH  22  25
ENDBRANCH  21  22
ENDBRANCH  20  21
ENDBRANCH   9  20
TORSDOF 10
ENDMDL
MODEL 8
REMARK VINA RESULT:      -6.0      2.719      3.656
REMARK  Name = Carbocromen
REMARK  14 active torsions:
REMARK  status: ('A' for Active; 'I' for Inactive)
REMARK    1  A    between atoms: C_1  and  C_2
REMARK    2  A    between atoms: C_2  and  O_3
REMARK    3  A    between atoms: O_3  and  C_4
REMARK    4  A    between atoms: C_4  and  C_6
REMARK    5  A    between atoms: C_6  and  O_7
REMARK    6  A    between atoms: O_7  and  C_8
REMARK    7  A    between atoms: C_14  and  C_15
REMARK    8  A    between atoms: C_16  and  C_17
REMARK    9  A    between atoms: C_17  and  C_18
REMARK   10  A    between atoms: C_18  and  N_19
REMARK   11  A    between atoms: N_19  and  C_20
REMARK   12  A    between atoms: N_19  and  C_22
REMARK   13  A    between atoms: C_20  and  C_21
REMARK   14  A    between atoms: C_22  and  C_23
REMARK                            x       y       z     vdW  Elec       q    Type
REMARK                         _______ _______ _______ _____ _____    ______ ____
ROOT
ATOM      1  C   UNL     1     -11.679   6.062 131.176  0.00  0.00    +0.000 A 
ATOM      2  C   UNL     1     -11.333   5.050 130.307  0.00  0.00    +0.000 A 
ATOM      3  C   UNL     1     -10.132   4.378 130.502  0.00  0.00    +0.000 A 
ATOM      4  C   UNL     1      -9.234   4.679 131.523  0.00  0.00    +0.000 A 
ATOM      5  C   UNL     1      -9.596   5.705 132.394  0.00  0.00    +0.000 A 
ATOM      6  C   UNL     1     -10.799   6.402 132.207  0.00  0.00    +0.000 A 
ATOM      7  C   UNL     1      -7.966   3.945 131.574  0.00  0.00    +0.000 A 
ATOM      8  C   UNL     1      -6.965   4.199 132.693  0.00  0.00    +0.000 C 
ATOM      9  C   UNL     1      -7.734   3.034 130.594  0.00  0.00    +0.000 A 
ATOM     10  C   UNL     1      -8.748   2.658 129.576  0.00  0.00    +0.000 A 
ATOM     11  O   UNL     1      -8.615   1.730 128.779  0.00  0.00    +0.000 OA
ATOM     12  O   UNL     1      -9.908   3.375 129.562  0.00  0.00    +0.000 OA
ENDROOT
BRANCH   1  13
ATOM     13  O   UNL     1     -12.799   6.826 131.036  0.00  0.00    +0.000 OA
BRANCH  13  14
ATOM     14  C   UNL     1     -13.153   7.203 129.695  0.00  0.00    +0.000 C 
BRANCH  14  15
ATOM     15  C   UNL     1     -12.776   8.676 129.500  0.00  0.00    +0.000 C 
ATOM     16  O   UNL     1     -12.926   9.550 130.340  0.00  0.00    +0.000 OA
BRANCH  15  17
ATOM     17  O   UNL     1     -12.232   8.899 128.257  0.00  0.00    +0.000 OA
BRANCH  17  19
ATOM     18  C   UNL     1     -10.901   7.567 126.709  0.00  0.00    +0.000 C 
ATOM     19  C   UNL     1     -10.954   8.255 128.065  0.00  0.00    +0.000 C 
ENDBRANCH  17  19
ENDBRANCH  15  17
ENDBRANCH  14  15
ENDBRANCH  13  14
ENDBRANCH   1  13
BRANCH   9  20
ATOM     20  C   UNL     1      -6.483   2.221 130.650  0.00  0.00    +0.000 C 
BRANCH  20  21
ATOM     21  C   UNL     1      -5.219   2.681 129.937  0.00  0.00    +0.000 C 
BRANCH  21  22
ATOM     22  N   UNL     1      -5.370   2.905 128.485  0.00  0.00    +0.000 NA
BRANCH  22  23
ATOM     23  C   UNL     1      -4.445   3.937 127.962  0.00  0.00    +0.000 C 
ATOM     24  C   UNL     1      -3.109   4.107 128.681  0.00  0.00    +0.000 C 
ENDBRANCH  22  23
BRANCH  22  25
ATOM     25  C   UNL     1      -5.095   1.591 127.843  0.00  0.00    +0.000 C 
ATOM     26  C   UNL     1      -4.868   1.707 126.345  0.00  0.00    +0.000 C 
ENDBRANCH  22  25
ENDBRANCH  21  22
ENDBRANCH  20  21
ENDBRANCH   9  20
TORSDOF 10
ENDMDL
MODEL 9
REMARK VINA RESULT:      -6.0      6.404      8.234
REMARK  Name = Carbocromen
REMARK  14 active torsions:
REMARK  status: ('A' for Active; 'I' for Inactive)
REMARK    1  A    between atoms: C_1  and  C_2
REMARK    2  A    between atoms: C_2  and  O_3
REMARK    3  A    between atoms: O_3  and  C_4
REMARK    4  A    between atoms: C_4  and  C_6
REMARK    5  A    between atoms: C_6  and  O_7
REMARK    6  A    between atoms: O_7  and  C_8
REMARK    7  A    between atoms: C_14  and  C_15
REMARK    8  A    between atoms: C_16  and  C_17
REMARK    9  A    between atoms: C_17  and  C_18
REMARK   10  A    between atoms: C_18  and  N_19
REMARK   11  A    between atoms: N_19  and  C_20
REMARK   12  A    between atoms: N_19  and  C_22
REMARK   13  A    between atoms: C_20  and  C_21
REMARK   14  A    between atoms: C_22  and  C_23
REMARK                            x       y       z     vdW  Elec       q    Type
REMARK                         _______ _______ _______ _____ _____    ______ ____
ROOT
ATOM      1  C   UNL     1      -8.107   3.513 129.595  0.00  0.00    +0.000 A 
ATOM      2  C   UNL     1      -8.154   3.920 128.279  0.00  0.00    +0.000 A 
ATOM      3  C   UNL     1      -8.256   2.959 127.281  0.00  0.00    +0.000 A 
ATOM      4  C   UNL     1      -8.294   1.589 127.528  0.00  0.00    +0.000 A 
ATOM      5  C   UNL     1      -8.245   1.190 128.863  0.00  0.00    +0.000 A 
ATOM      6  C   UNL     1      -8.132   2.146 129.884  0.00  0.00    +0.000 A 
ATOM      7  C   UNL     1      -8.327   0.675 126.383  0.00  0.00    +0.000 A 
ATOM      8  C   UNL     1      -8.416  -0.831 126.591  0.00  0.00    +0.000 C 
ATOM      9  C   UNL     1      -8.283   1.228 125.143  0.00  0.00    +0.000 A 
ATOM     10  C   UNL     1      -8.345   2.692 124.904  0.00  0.00    +0.000 A 
ATOM     11  O   UNL     1      -8.462   3.206 123.792  0.00  0.00    +0.000 OA
ATOM     12  O   UNL     1      -8.303   3.503 126.000  0.00  0.00    +0.000 OA
ENDROOT
BRANCH   1  13
ATOM     13  O   UNL     1      -7.941   4.369 130.644  0.00  0.00    +0.000 OA
BRANCH  13  14
ATOM     14  C   UNL     1      -9.137   4.789 131.321  0.00  0.00    +0.000 C 
BRANCH  14  15
ATOM     15  C   UNL     1      -9.270   6.306 131.153  0.00  0.00    +0.000 C 
ATOM     16  O   UNL     1      -8.661   6.971 130.328  0.00  0.00    +0.000 OA
BRANCH  15  17
ATOM     17  O   UNL     1     -10.174   6.838 132.043  0.00  0.00    +0.000 OA
BRANCH  17  19
ATOM     18  C   UNL     1     -12.191   7.213 130.726  0.00  0.00    +0.000 C 
ATOM     19  C   UNL     1     -11.528   6.391 131.822  0.00  0.00    +0.000 C 
ENDBRANCH  17  19
ENDBRANCH  15  17
ENDBRANCH  14  15
ENDBRANCH  13  14
ENDBRANCH   1  13
BRANCH   9  20
ATOM     20  C   UNL     1      -8.381   0.333 123.952  0.00  0.00    +0.000 C 
BRANCH  20  21
ATOM     21  C   UNL     1      -7.137  -0.306 123.351  0.00  0.00    +0.000 C 
BRANCH  21  22
ATOM     22  N   UNL     1      -7.284  -1.729 122.982  0.00  0.00    +0.000 NA
BRANCH  22  23
ATOM     23  C   UNL     1      -6.616  -2.643 123.937  0.00  0.00    +0.000 C 
ATOM     24  C   UNL     1      -5.199  -3.096 123.597  0.00  0.00    +0.000 C 
ENDBRANCH  22  23
BRANCH  22  25
ATOM     25  C   UNL     1      -8.749  -1.989 122.956  0.00  0.00    +0.000 C 
ATOM     26  C   UNL     1      -9.127  -3.281 123.659  0.00  0.00    +0.000 C 
ENDBRANCH  22  25
ENDBRANCH  21  22
ENDBRANCH  20  21
ENDBRANCH   9  20
TORSDOF 10
ENDMDL
