MODEL 1
REMARK VINA RESULT:      -5.4      0.000      0.000
REMARK  Name = Carglumic acid
REMARK  7 active torsions:
REMARK  status: ('A' for Active; 'I' for Inactive)
REMARK    1  A    between atoms: N_4  and  CA_5
REMARK    2  A    between atoms: CA_5  and  CB_6
REMARK    3  A    between atoms: CA_5  and  C_11
REMARK    4  A    between atoms: CB_6  and  CG_7
REMARK    5  A    between atoms: CG_7  and  CD_8
REMARK    6  A    between atoms: CD_8  and  OE1_9
REMARK    7  A    between atoms: C_11  and  O_12
REMARK                            x       y       z     vdW  Elec       q    Type
REMARK                         _______ _______ _______ _____ _____    ______ ____
ROOT
ATOM      1  CA  GLU A   1     -12.322   6.728 128.585  0.00  0.00    +0.000 C 
ENDROOT
BRANCH   1   5
ATOM      2  N   UNK A   0     -11.327   5.767 131.974  0.00  0.00    +0.000 N 
ATOM      3  C   UNK A   0     -11.450   5.595 130.637  0.00  0.00    +0.000 C 
ATOM      4  O   UNK A   0     -11.342   4.482 130.144  0.00  0.00    +0.000 OA
ATOM      5  N   GLU A   1     -11.834   6.730 129.980  0.00  0.00    +0.000 N 
ATOM      6  H   UNK A   0     -11.096   4.918 132.479  0.00  0.00    +0.000 HD
ATOM      7  H   UNK A   0     -11.003   6.626 132.387  0.00  0.00    +0.000 HD
ATOM      8  H   GLU A   1     -11.656   7.571 130.493  0.00  0.00    +0.000 HD
ENDBRANCH   1   5
BRANCH   1   9
ATOM      9  C   GLU A   1     -11.295   7.121 127.489  0.00  0.00    +0.000 C 
ATOM     10  OXT GLU A   1     -10.228   7.667 127.746  0.00  0.00    +0.000 OA
BRANCH   9  11
ATOM     11  O   GLU A   1     -11.592   6.789 126.216  0.00  0.00    +0.000 OA
ATOM     12  H   GLU A   1     -12.153   6.015 126.072  0.00  0.00    +0.000 HD
ENDBRANCH   9  11
ENDBRANCH   1   9
BRANCH   1  13
ATOM     13  CB  GLU A   1     -13.529   7.690 128.389  0.00  0.00    +0.000 C 
BRANCH  13  14
ATOM     14  CG  GLU A   1     -13.151   9.164 128.293  0.00  0.00    +0.000 C 
BRANCH  14  15
ATOM     15  CD  GLU A   1     -13.141  10.007 129.537  0.00  0.00    +0.000 C 
ATOM     16  OE2 GLU A   1     -13.059   9.507 130.654  0.00  0.00    +0.000 OA
BRANCH  15  17
ATOM     17  OE1 GLU A   1     -13.159  11.339 129.366  0.00  0.00    +0.000 OA
ATOM     18  HE1 GLU A   1     -14.028  11.769 129.442  0.00  0.00    +0.000 HD
ENDBRANCH  15  17
ENDBRANCH  14  15
ENDBRANCH  13  14
ENDBRANCH   1  13
TORSDOF 7
ENDMDL
MODEL 2
REMARK VINA RESULT:      -5.4      2.606      3.983
REMARK  Name = Carglumic acid
REMARK  7 active torsions:
REMARK  status: ('A' for Active; 'I' for Inactive)
REMARK    1  A    between atoms: N_4  and  CA_5
REMARK    2  A    between atoms: CA_5  and  CB_6
REMARK    3  A    between atoms: CA_5  and  C_11
REMARK    4  A    between atoms: CB_6  and  CG_7
REMARK    5  A    between atoms: CG_7  and  CD_8
REMARK    6  A    between atoms: CD_8  and  OE1_9
REMARK    7  A    between atoms: C_11  and  O_12
REMARK                            x       y       z     vdW  Elec       q    Type
REMARK                         _______ _______ _______ _____ _____    ______ ____
ROOT
ATOM      1  CA  GLU A   1     -10.880   7.227 130.252  0.00  0.00    +0.000 C 
ENDROOT
BRANCH   1   5
ATOM      2  N   UNK A   0      -7.294   7.087 130.975  0.00  0.00    +0.000 N 
ATOM      3  C   UNK A   0      -8.601   6.805 131.191  0.00  0.00    +0.000 C 
ATOM      4  O   UNK A   0      -8.974   6.401 132.282  0.00  0.00    +0.000 OA
ATOM      5  N   GLU A   1      -9.408   7.154 130.145  0.00  0.00    +0.000 N 
ATOM      6  H   UNK A   0      -6.692   6.884 131.766  0.00  0.00    +0.000 HD
ATOM      7  H   UNK A   0      -6.864   7.021 130.067  0.00  0.00    +0.000 HD
ATOM      8  H   GLU A   1      -8.921   7.251 129.276  0.00  0.00    +0.000 HD
ENDBRANCH   1   5
BRANCH   1   9
ATOM      9  C   GLU A   1     -11.654   5.887 130.131  0.00  0.00    +0.000 C 
ATOM     10  OXT GLU A   1     -12.390   5.631 129.185  0.00  0.00    +0.000 OA
BRANCH   9  11
ATOM     11  O   GLU A   1     -11.448   4.965 131.093  0.00  0.00    +0.000 OA
ATOM     12  H   GLU A   1     -10.535   4.782 131.353  0.00  0.00    +0.000 HD
ENDBRANCH   9  11
ENDBRANCH   1   9
BRANCH   1  13
ATOM     13  CB  GLU A   1     -11.497   8.163 129.174  0.00  0.00    +0.000 C 
BRANCH  13  14
ATOM     14  CG  GLU A   1     -10.595   8.419 127.971  0.00  0.00    +0.000 C 
BRANCH  14  15
ATOM     15  CD  GLU A   1     -10.546   7.412 126.856  0.00  0.00    +0.000 C 
ATOM     16  OE2 GLU A   1     -11.161   7.579 125.809  0.00  0.00    +0.000 OA
BRANCH  15  17
ATOM     17  OE1 GLU A   1      -9.742   6.351 127.034  0.00  0.00    +0.000 OA
ATOM     18  HE1 GLU A   1     -10.085   5.497 126.721  0.00  0.00    +0.000 HD
ENDBRANCH  15  17
ENDBRANCH  14  15
ENDBRANCH  13  14
ENDBRANCH   1  13
TORSDOF 7
ENDMDL
MODEL 3
REMARK VINA RESULT:      -5.4      1.331      3.535
REMARK  Name = Carglumic acid
REMARK  7 active torsions:
REMARK  status: ('A' for Active; 'I' for Inactive)
REMARK    1  A    between atoms: N_4  and  CA_5
REMARK    2  A    between atoms: CA_5  and  CB_6
REMARK    3  A    between atoms: CA_5  and  C_11
REMARK    4  A    between atoms: CB_6  and  CG_7
REMARK    5  A    between atoms: CG_7  and  CD_8
REMARK    6  A    between atoms: CD_8  and  OE1_9
REMARK    7  A    between atoms: C_11  and  O_12
REMARK                            x       y       z     vdW  Elec       q    Type
REMARK                         _______ _______ _______ _____ _____    ______ ____
ROOT
ATOM      1  CA  GLU A   1     -12.674   8.497 129.336  0.00  0.00    +0.000 C 
ENDROOT
BRANCH   1   5
ATOM      2  N   UNK A   0     -11.740   5.983 131.828  0.00  0.00    +0.000 N 
ATOM      3  C   UNK A   0     -11.500   6.962 130.924  0.00  0.00    +0.000 C 
ATOM      4  O   UNK A   0     -10.380   7.115 130.461  0.00  0.00    +0.000 OA
ATOM      5  N   GLU A   1     -12.632   7.610 130.518  0.00  0.00    +0.000 N 
ATOM      6  H   UNK A   0     -10.915   5.457 132.096  0.00  0.00    +0.000 HD
ATOM      7  H   UNK A   0     -12.465   6.047 132.524  0.00  0.00    +0.000 HD
ATOM      8  H   GLU A   1     -13.400   7.514 131.152  0.00  0.00    +0.000 HD
ENDBRANCH   1   5
BRANCH   1   9
ATOM      9  C   GLU A   1     -13.227   9.930 129.561  0.00  0.00    +0.000 C 
ATOM     10  OXT GLU A   1     -13.207  10.483 130.654  0.00  0.00    +0.000 OA
BRANCH   9  11
ATOM     11  O   GLU A   1     -13.696  10.588 128.481  0.00  0.00    +0.000 OA
ATOM     12  H   GLU A   1     -13.881  11.532 128.575  0.00  0.00    +0.000 HD
ENDBRANCH   9  11
ENDBRANCH   1   9
BRANCH   1  13
ATOM     13  CB  GLU A   1     -13.531   7.895 128.186  0.00  0.00    +0.000 C 
BRANCH  13  14
ATOM     14  CG  GLU A   1     -12.740   7.074 127.173  0.00  0.00    +0.000 C 
BRANCH  14  15
ATOM     15  CD  GLU A   1     -11.272   7.338 126.993  0.00  0.00    +0.000 C 
ATOM     16  OE2 GLU A   1     -10.863   8.285 126.329  0.00  0.00    +0.000 OA
BRANCH  15  17
ATOM     17  OE1 GLU A   1     -10.426   6.525 127.648  0.00  0.00    +0.000 OA
ATOM     18  HE1 GLU A   1      -9.622   6.267 127.166  0.00  0.00    +0.000 HD
ENDBRANCH  15  17
ENDBRANCH  14  15
ENDBRANCH  13  14
ENDBRANCH   1  13
TORSDOF 7
ENDMDL
MODEL 4
REMARK VINA RESULT:      -5.2      1.942      2.439
REMARK  Name = Carglumic acid
REMARK  7 active torsions:
REMARK  status: ('A' for Active; 'I' for Inactive)
REMARK    1  A    between atoms: N_4  and  CA_5
REMARK    2  A    between atoms: CA_5  and  CB_6
REMARK    3  A    between atoms: CA_5  and  C_11
REMARK    4  A    between atoms: CB_6  and  CG_7
REMARK    5  A    between atoms: CG_7  and  CD_8
REMARK    6  A    between atoms: CD_8  and  OE1_9
REMARK    7  A    between atoms: C_11  and  O_12
REMARK                            x       y       z     vdW  Elec       q    Type
REMARK                         _______ _______ _______ _____ _____    ______ ____
ROOT
ATOM      1  CA  GLU A   1     -11.109   5.785 130.103  0.00  0.00    +0.000 C 
ENDROOT
BRANCH   1   5
ATOM      2  N   UNK A   0     -10.411   2.559 131.687  0.00  0.00    +0.000 N 
ATOM      3  C   UNK A   0     -10.339   3.481 130.698  0.00  0.00    +0.000 C 
ATOM      4  O   UNK A   0     -10.004   3.153 129.570  0.00  0.00    +0.000 OA
ATOM      5  N   GLU A   1     -10.805   4.710 131.071  0.00  0.00    +0.000 N 
ATOM      6  H   UNK A   0     -10.120   1.629 131.406  0.00  0.00    +0.000 HD
ATOM      7  H   UNK A   0     -10.274   2.787 132.658  0.00  0.00    +0.000 HD
ATOM      8  H   GLU A   1     -10.820   4.850 132.062  0.00  0.00    +0.000 HD
ENDBRANCH   1   5
BRANCH   1   9
ATOM      9  C   GLU A   1      -9.897   6.439 129.386  0.00  0.00    +0.000 C 
ATOM     10  OXT GLU A   1      -9.368   7.469 129.786  0.00  0.00    +0.000 OA
BRANCH   9  11
ATOM     11  O   GLU A   1      -9.395   5.796 128.312  0.00  0.00    +0.000 OA
ATOM     12  H   GLU A   1      -8.553   5.333 128.417  0.00  0.00    +0.000 HD
ENDBRANCH   9  11
ENDBRANCH   1   9
BRANCH   1  13
ATOM     13  CB  GLU A   1     -11.886   6.960 130.763  0.00  0.00    +0.000 C 
BRANCH  13  14
ATOM     14  CG  GLU A   1     -12.892   7.645 129.846  0.00  0.00    +0.000 C 
BRANCH  14  15
ATOM     15  CD  GLU A   1     -12.591   9.017 129.311  0.00  0.00    +0.000 C 
ATOM     16  OE2 GLU A   1     -13.124  10.021 129.773  0.00  0.00    +0.000 OA
BRANCH  15  17
ATOM     17  OE1 GLU A   1     -11.660   9.100 128.346  0.00  0.00    +0.000 OA
ATOM     18  HE1 GLU A   1     -10.947   8.440 128.382  0.00  0.00    +0.000 HD
ENDBRANCH  15  17
ENDBRANCH  14  15
ENDBRANCH  13  14
ENDBRANCH   1  13
TORSDOF 7
ENDMDL
MODEL 5
REMARK VINA RESULT:      -5.2      1.736      3.288
REMARK  Name = Carglumic acid
REMARK  7 active torsions:
REMARK  status: ('A' for Active; 'I' for Inactive)
REMARK    1  A    between atoms: N_4  and  CA_5
REMARK    2  A    between atoms: CA_5  and  CB_6
REMARK    3  A    between atoms: CA_5  and  C_11
REMARK    4  A    between atoms: CB_6  and  CG_7
REMARK    5  A    between atoms: CG_7  and  CD_8
REMARK    6  A    between atoms: CD_8  and  OE1_9
REMARK    7  A    between atoms: C_11  and  O_12
REMARK                            x       y       z     vdW  Elec       q    Type
REMARK                         _______ _______ _______ _____ _____    ______ ____
ROOT
ATOM      1  CA  GLU A   1     -11.818   7.365 129.512  0.00  0.00    +0.000 C 
ENDROOT
BRANCH   1   5
ATOM      2  N   UNK A   0     -11.864   7.137 125.858  0.00  0.00    +0.000 N 
ATOM      3  C   UNK A   0     -11.325   6.978 127.090  0.00  0.00    +0.000 C 
ATOM      4  O   UNK A   0     -10.124   6.799 127.222  0.00  0.00    +0.000 OA
ATOM      5  N   GLU A   1     -12.221   7.183 128.101  0.00  0.00    +0.000 N 
ATOM      6  H   UNK A   0     -11.196   7.042 125.101  0.00  0.00    +0.000 HD
ATOM      7  H   UNK A   0     -12.814   6.884 125.640  0.00  0.00    +0.000 HD
ATOM      8  H   GLU A   1     -13.176   7.095 127.816  0.00  0.00    +0.000 HD
ENDBRANCH   1   5
BRANCH   1   9
ATOM      9  C   GLU A   1     -11.888   6.108 130.422  0.00  0.00    +0.000 C 
ATOM     10  OXT GLU A   1     -11.566   4.991 130.033  0.00  0.00    +0.000 OA
BRANCH   9  11
ATOM     11  O   GLU A   1     -12.273   6.292 131.701  0.00  0.00    +0.000 OA
ATOM     12  H   GLU A   1     -12.839   5.619 132.102  0.00  0.00    +0.000 HD
ENDBRANCH   9  11
ENDBRANCH   1   9
BRANCH   1  13
ATOM     13  CB  GLU A   1     -12.676   8.446 130.228  0.00  0.00    +0.000 C 
BRANCH  13  14
ATOM     14  CG  GLU A   1     -13.074   9.623 129.344  0.00  0.00    +0.000 C 
BRANCH  14  15
ATOM     15  CD  GLU A   1     -13.317  10.968 129.969  0.00  0.00    +0.000 C 
ATOM     16  OE2 GLU A   1     -13.299  11.127 131.185  0.00  0.00    +0.000 OA
BRANCH  15  17
ATOM     17  OE1 GLU A   1     -13.491  12.003 129.130  0.00  0.00    +0.000 OA
ATOM     18  HE1 GLU A   1     -13.131  11.892 128.234  0.00  0.00    +0.000 HD
ENDBRANCH  15  17
ENDBRANCH  14  15
ENDBRANCH  13  14
ENDBRANCH   1  13
TORSDOF 7
ENDMDL
MODEL 6
REMARK VINA RESULT:      -5.2      2.019      2.687
REMARK  Name = Carglumic acid
REMARK  7 active torsions:
REMARK  status: ('A' for Active; 'I' for Inactive)
REMARK    1  A    between atoms: N_4  and  CA_5
REMARK    2  A    between atoms: CA_5  and  CB_6
REMARK    3  A    between atoms: CA_5  and  C_11
REMARK    4  A    between atoms: CB_6  and  CG_7
REMARK    5  A    between atoms: CG_7  and  CD_8
REMARK    6  A    between atoms: CD_8  and  OE1_9
REMARK    7  A    between atoms: C_11  and  O_12
REMARK                            x       y       z     vdW  Elec       q    Type
REMARK                         _______ _______ _______ _____ _____    ______ ____
ROOT
ATOM      1  CA  GLU A   1     -11.124   5.906 130.254  0.00  0.00    +0.000 C 
ENDROOT
BRANCH   1   5
ATOM      2  N   UNK A   0      -9.803   4.459 133.347  0.00  0.00    +0.000 N 
ATOM      3  C   UNK A   0     -10.064   5.462 132.476  0.00  0.00    +0.000 C 
ATOM      4  O   UNK A   0      -9.463   6.522 132.556  0.00  0.00    +0.000 OA
ATOM      5  N   GLU A   1     -10.921   5.099 131.476  0.00  0.00    +0.000 N 
ATOM      6  H   UNK A   0      -9.125   4.699 134.061  0.00  0.00    +0.000 HD
ATOM      7  H   UNK A   0     -10.488   3.767 133.605  0.00  0.00    +0.000 HD
ATOM      8  H   GLU A   1     -11.476   4.295 131.694  0.00  0.00    +0.000 HD
ENDBRANCH   1   5
BRANCH   1   9
ATOM      9  C   GLU A   1      -9.845   6.333 129.483  0.00  0.00    +0.000 C 
ATOM     10  OXT GLU A   1      -9.311   5.620 128.641  0.00  0.00    +0.000 OA
BRANCH   9  11
ATOM     11  O   GLU A   1      -9.354   7.563 129.733  0.00  0.00    +0.000 OA
ATOM     12  H   GLU A   1      -9.253   7.828 130.657  0.00  0.00    +0.000 HD
ENDBRANCH   9  11
ENDBRANCH   1   9
BRANCH   1  13
ATOM     13  CB  GLU A   1     -11.893   7.226 130.548  0.00  0.00    +0.000 C 
BRANCH  13  14
ATOM     14  CG  GLU A   1     -12.907   7.616 129.479  0.00  0.00    +0.000 C 
BRANCH  14  15
ATOM     15  CD  GLU A   1     -12.690   8.868 128.675  0.00  0.00    +0.000 C 
ATOM     16  OE2 GLU A   1     -13.575   9.706 128.537  0.00  0.00    +0.000 OA
BRANCH  15  17
ATOM     17  OE1 GLU A   1     -11.460   9.057 128.170  0.00  0.00    +0.000 OA
ATOM     18  HE1 GLU A   1     -11.355   8.877 127.220  0.00  0.00    +0.000 HD
ENDBRANCH  15  17
ENDBRANCH  14  15
ENDBRANCH  13  14
ENDBRANCH   1  13
TORSDOF 7
ENDMDL
MODEL 7
REMARK VINA RESULT:      -5.1      2.243      4.115
REMARK  Name = Carglumic acid
REMARK  7 active torsions:
REMARK  status: ('A' for Active; 'I' for Inactive)
REMARK    1  A    between atoms: N_4  and  CA_5
REMARK    2  A    between atoms: CA_5  and  CB_6
REMARK    3  A    between atoms: CA_5  and  C_11
REMARK    4  A    between atoms: CB_6  and  CG_7
REMARK    5  A    between atoms: CG_7  and  CD_8
REMARK    6  A    between atoms: CD_8  and  OE1_9
REMARK    7  A    between atoms: C_11  and  O_12
REMARK                            x       y       z     vdW  Elec       q    Type
REMARK                         _______ _______ _______ _____ _____    ______ ____
ROOT
ATOM      1  CA  GLU A   1     -11.223   6.808 130.028  0.00  0.00    +0.000 C 
ENDROOT
BRANCH   1   5
ATOM      2  N   UNK A   0      -8.176   4.837 129.548  0.00  0.00    +0.000 N 
ATOM      3  C   UNK A   0      -8.903   5.872 130.029  0.00  0.00    +0.000 C 
ATOM      4  O   UNK A   0      -8.348   6.881 130.439  0.00  0.00    +0.000 OA
ATOM      5  N   GLU A   1     -10.250   5.708 129.865  0.00  0.00    +0.000 N 
ATOM      6  H   UNK A   0      -7.172   4.972 129.613  0.00  0.00    +0.000 HD
ATOM      7  H   UNK A   0      -8.494   3.882 129.583  0.00  0.00    +0.000 HD
ATOM      8  H   GLU A   1     -10.525   4.755 129.728  0.00  0.00    +0.000 HD
ENDBRANCH   1   5
BRANCH   1   9
ATOM      9  C   GLU A   1     -12.187   6.709 131.241  0.00  0.00    +0.000 C 
ATOM     10  OXT GLU A   1     -13.270   7.283 131.274  0.00  0.00    +0.000 OA
BRANCH   9  11
ATOM     11  O   GLU A   1     -11.816   5.911 132.262  0.00  0.00    +0.000 OA
ATOM     12  H   GLU A   1     -11.220   5.176 132.065  0.00  0.00    +0.000 HD
ENDBRANCH   9  11
ENDBRANCH   1   9
BRANCH   1  13
ATOM     13  CB  GLU A   1     -12.137   6.967 128.780  0.00  0.00    +0.000 C 
BRANCH  13  14
ATOM     14  CG  GLU A   1     -11.637   7.980 127.756  0.00  0.00    +0.000 C 
BRANCH  14  15
ATOM     15  CD  GLU A   1     -10.819   7.507 126.587  0.00  0.00    +0.000 C 
ATOM     16  OE2 GLU A   1     -10.894   8.047 125.488  0.00  0.00    +0.000 OA
BRANCH  15  17
ATOM     17  OE1 GLU A   1      -9.953   6.507 126.818  0.00  0.00    +0.000 OA
ATOM     18  HE1 GLU A   1      -9.119   6.539 126.321  0.00  0.00    +0.000 HD
ENDBRANCH  15  17
ENDBRANCH  14  15
ENDBRANCH  13  14
ENDBRANCH   1  13
TORSDOF 7
ENDMDL
MODEL 8
REMARK VINA RESULT:      -4.7      2.744      5.534
REMARK  Name = Carglumic acid
REMARK  7 active torsions:
REMARK  status: ('A' for Active; 'I' for Inactive)
REMARK    1  A    between atoms: N_4  and  CA_5
REMARK    2  A    between atoms: CA_5  and  CB_6
REMARK    3  A    between atoms: CA_5  and  C_11
REMARK    4  A    between atoms: CB_6  and  CG_7
REMARK    5  A    between atoms: CG_7  and  CD_8
REMARK    6  A    between atoms: CD_8  and  OE1_9
REMARK    7  A    between atoms: C_11  and  O_12
REMARK                            x       y       z     vdW  Elec       q    Type
REMARK                         _______ _______ _______ _____ _____    ______ ____
ROOT
ATOM      1  CA  GLU A   1     -10.623   6.485 130.423  0.00  0.00    +0.000 C 
ENDROOT
BRANCH   1   5
ATOM      2  N   UNK A   0     -10.912   8.650 127.484  0.00  0.00    +0.000 N 
ATOM      3  C   UNK A   0     -10.664   7.487 128.131  0.00  0.00    +0.000 C 
ATOM      4  O   UNK A   0     -10.036   6.595 127.580  0.00  0.00    +0.000 OA
ATOM      5  N   GLU A   1     -11.051   7.504 129.441  0.00  0.00    +0.000 N 
ATOM      6  H   UNK A   0     -10.579   8.669 126.527  0.00  0.00    +0.000 HD
ATOM      7  H   UNK A   0     -11.716   9.224 127.681  0.00  0.00    +0.000 HD
ATOM      8  H   GLU A   1     -11.734   8.206 129.649  0.00  0.00    +0.000 HD
ENDBRANCH   1   5
BRANCH   1   9
ATOM      9  C   GLU A   1     -11.456   6.386 131.729  0.00  0.00    +0.000 C 
ATOM     10  OXT GLU A   1     -12.614   6.780 131.808  0.00  0.00    +0.000 OA
BRANCH   9  11
ATOM     11  O   GLU A   1     -10.873   5.791 132.790  0.00  0.00    +0.000 OA
ATOM     12  H   GLU A   1     -10.335   5.005 132.625  0.00  0.00    +0.000 HD
ENDBRANCH   9  11
ENDBRANCH   1   9
BRANCH   1  13
ATOM     13  CB  GLU A   1      -9.153   6.700 130.881  0.00  0.00    +0.000 C 
BRANCH  13  14
ATOM     14  CG  GLU A   1      -8.203   5.569 130.503  0.00  0.00    +0.000 C 
BRANCH  14  15
ATOM     15  CD  GLU A   1      -8.733   4.167 130.381  0.00  0.00    +0.000 C 
ATOM     16  OE2 GLU A   1      -9.079   3.521 131.365  0.00  0.00    +0.000 OA
BRANCH  15  17
ATOM     17  OE1 GLU A   1      -8.873   3.679 129.138  0.00  0.00    +0.000 OA
ATOM     18  HE1 GLU A   1      -8.073   3.301 128.734  0.00  0.00    +0.000 HD
ENDBRANCH  15  17
ENDBRANCH  14  15
ENDBRANCH  13  14
ENDBRANCH   1  13
TORSDOF 7
ENDMDL
MODEL 9
REMARK VINA RESULT:      -4.6     10.024     11.491
REMARK  Name = Carglumic acid
REMARK  7 active torsions:
REMARK  status: ('A' for Active; 'I' for Inactive)
REMARK    1  A    between atoms: N_4  and  CA_5
REMARK    2  A    between atoms: CA_5  and  CB_6
REMARK    3  A    between atoms: CA_5  and  C_11
REMARK    4  A    between atoms: CB_6  and  CG_7
REMARK    5  A    between atoms: CG_7  and  CD_8
REMARK    6  A    between atoms: CD_8  and  OE1_9
REMARK    7  A    between atoms: C_11  and  O_12
REMARK                            x       y       z     vdW  Elec       q    Type
REMARK                         _______ _______ _______ _____ _____    ______ ____
ROOT
ATOM      1  CA  GLU A   1      -8.083  -2.140 124.172  0.00  0.00    +0.000 C 
ENDROOT
BRANCH   1   5
ATOM      2  N   UNK A   0      -4.774  -3.661 123.804  0.00  0.00    +0.000 N 
ATOM      3  C   UNK A   0      -5.775  -3.052 124.482  0.00  0.00    +0.000 C 
ATOM      4  O   UNK A   0      -5.555  -2.507 125.553  0.00  0.00    +0.000 OA
ATOM      5  N   GLU A   1      -6.948  -3.002 123.783  0.00  0.00    +0.000 N 
ATOM      6  H   UNK A   0      -3.883  -3.655 124.290  0.00  0.00    +0.000 HD
ATOM      7  H   UNK A   0      -4.929  -4.437 123.180  0.00  0.00    +0.000 HD
ATOM      8  H   GLU A   1      -7.007  -3.679 123.048  0.00  0.00    +0.000 HD
ENDBRANCH   1   5
BRANCH   1   9
ATOM      9  C   GLU A   1      -9.423  -2.856 124.492  0.00  0.00    +0.000 C 
ATOM     10  OXT GLU A   1      -9.905  -2.887 125.618  0.00  0.00    +0.000 OA
BRANCH   9  11
ATOM     11  O   GLU A   1     -10.088  -3.413 123.459  0.00  0.00    +0.000 OA
ATOM     12  H   GLU A   1     -10.155  -2.904 122.640  0.00  0.00    +0.000 HD
ENDBRANCH   9  11
ENDBRANCH   1   9
BRANCH   1  13
ATOM     13  CB  GLU A   1      -8.423  -1.092 123.073  0.00  0.00    +0.000 C 
BRANCH  13  14
ATOM     14  CG  GLU A   1      -8.697   0.311 123.602  0.00  0.00    +0.000 C 
BRANCH  14  15
ATOM     15  CD  GLU A   1     -10.066   0.909 123.436  0.00  0.00    +0.000 C 
ATOM     16  OE2 GLU A   1     -10.875   0.456 122.633  0.00  0.00    +0.000 OA
BRANCH  15  17
ATOM     17  OE1 GLU A   1     -10.387   1.923 124.256  0.00  0.00    +0.000 OA
ATOM     18  HE1 GLU A   1     -11.257   1.866 124.687  0.00  0.00    +0.000 HD
ENDBRANCH  15  17
ENDBRANCH  14  15
ENDBRANCH  13  14
ENDBRANCH   1  13
TORSDOF 7
ENDMDL
