MODEL 1
REMARK VINA RESULT:      -5.4      0.000      0.000
REMARK  Name = Carisoprodol
REMARK  13 active torsions:
REMARK  status: ('A' for Active; 'I' for Inactive)
REMARK    1  A    between atoms: C_1  and  C_2
REMARK    2  A    between atoms: C_2  and  C_3
REMARK    3  A    between atoms: C_3  and  C_4
REMARK    4  A    between atoms: C_4  and  C_5
REMARK    5  A    between atoms: C_4  and  C_6
REMARK    6  A    between atoms: C_4  and  C_11
REMARK    7  A    between atoms: C_6  and  O_7
REMARK    8  A    between atoms: O_7  and  C_8
REMARK    9  A    between atoms: C_11  and  O_12
REMARK   10  A    between atoms: O_12  and  C_13
REMARK   11  A    between atoms: N_15  and  C_16
REMARK   12  A    between atoms: C_16  and  C_17
REMARK   13  A    between atoms: C_16  and  C_18
REMARK                            x       y       z     vdW  Elec       q    Type
REMARK                         _______ _______ _______ _____ _____    ______ ____
ROOT
ATOM      1  C   UNL     1      -8.073  -2.377 124.569  0.00  0.00    +0.000 C 
ATOM      2  C   UNL     1      -9.137  -3.431 124.208  0.00  0.00    +0.000 C 
ENDROOT
BRANCH   1   3
ATOM      3  C   UNL     1      -6.670  -3.068 124.620  0.00  0.00    +0.000 C 
BRANCH   3   5
ATOM      4  C   UNL     1      -4.459  -3.457 123.413  0.00  0.00    +0.000 C 
ATOM      5  C   UNL     1      -5.693  -2.595 123.531  0.00  0.00    +0.000 C 
ENDBRANCH   3   5
ENDBRANCH   1   3
BRANCH   1   6
ATOM      6  C   UNL     1      -8.412  -1.710 125.929  0.00  0.00    +0.000 C 
BRANCH   6   7
ATOM      7  O   UNL     1      -8.030  -0.322 125.936  0.00  0.00    +0.000 OA
BRANCH   7   8
ATOM      8  C   UNL     1      -8.675   0.629 126.646  0.00  0.00    +0.000 C 
ATOM      9  N   UNL     1      -8.177   0.912 127.873  0.00  0.00    +0.000 N 
ATOM     10  O   UNL     1      -9.643   1.236 126.199  0.00  0.00    +0.000 OA
ATOM     11  H   UNL     1      -7.369   0.465 128.269  0.00  0.00    +0.000 HD
ATOM     12  H   UNL     1      -8.594   1.693 128.360  0.00  0.00    +0.000 HD
ENDBRANCH   7   8
ENDBRANCH   6   7
ENDBRANCH   1   6
BRANCH   1  13
ATOM     13  C   UNL     1      -8.085  -1.269 123.475  0.00  0.00    +0.000 C 
BRANCH  13  14
ATOM     14  O   UNL     1      -9.428  -1.069 122.955  0.00  0.00    +0.000 OA
BRANCH  14  15
ATOM     15  C   UNL     1      -9.804   0.238 122.852  0.00  0.00    +0.000 C 
ATOM     16  O   UNL     1     -10.945   0.594 122.593  0.00  0.00    +0.000 OA
ATOM     17  N   UNL     1      -8.750   1.094 123.080  0.00  0.00    +0.000 N 
ATOM     18  H   UNL     1      -7.844   0.685 123.263  0.00  0.00    +0.000 HD
BRANCH  17  19
ATOM     19  C   UNL     1      -8.918   2.548 123.058  0.00  0.00    +0.000 C 
ATOM     20  C   UNL     1      -7.934   3.232 124.011  0.00  0.00    +0.000 C 
ATOM     21  C   UNL     1      -8.732   3.147 121.659  0.00  0.00    +0.000 C 
ENDBRANCH  17  19
ENDBRANCH  14  15
ENDBRANCH  13  14
ENDBRANCH   1  13
TORSDOF 9
ENDMDL
MODEL 2
REMARK VINA RESULT:      -5.4      1.736      2.019
REMARK  Name = Carisoprodol
REMARK  13 active torsions:
REMARK  status: ('A' for Active; 'I' for Inactive)
REMARK    1  A    between atoms: C_1  and  C_2
REMARK    2  A    between atoms: C_2  and  C_3
REMARK    3  A    between atoms: C_3  and  C_4
REMARK    4  A    between atoms: C_4  and  C_5
REMARK    5  A    between atoms: C_4  and  C_6
REMARK    6  A    between atoms: C_4  and  C_11
REMARK    7  A    between atoms: C_6  and  O_7
REMARK    8  A    between atoms: O_7  and  C_8
REMARK    9  A    between atoms: C_11  and  O_12
REMARK   10  A    between atoms: O_12  and  C_13
REMARK   11  A    between atoms: N_15  and  C_16
REMARK   12  A    between atoms: C_16  and  C_17
REMARK   13  A    between atoms: C_16  and  C_18
REMARK                            x       y       z     vdW  Elec       q    Type
REMARK                         _______ _______ _______ _____ _____    ______ ____
ROOT
ATOM      1  C   UNL     1      -8.094  -2.512 124.486  0.00  0.00    +0.000 C 
ATOM      2  C   UNL     1      -9.383  -3.348 124.369  0.00  0.00    +0.000 C 
ENDROOT
BRANCH   1   3
ATOM      3  C   UNL     1      -6.859  -3.453 124.287  0.00  0.00    +0.000 C 
BRANCH   3   5
ATOM      4  C   UNL     1      -4.443  -3.673 123.507  0.00  0.00    +0.000 C 
ATOM      5  C   UNL     1      -5.662  -2.786 123.590  0.00  0.00    +0.000 C 
ENDBRANCH   3   5
ENDBRANCH   1   3
BRANCH   1   6
ATOM      6  C   UNL     1      -8.034  -1.800 125.863  0.00  0.00    +0.000 C 
BRANCH   6   7
ATOM      7  O   UNL     1      -7.528  -2.682 126.882  0.00  0.00    +0.000 OA
BRANCH   7   8
ATOM      8  C   UNL     1      -8.220  -3.018 127.993  0.00  0.00    +0.000 C 
ATOM      9  N   UNL     1      -9.065  -4.069 127.886  0.00  0.00    +0.000 N 
ATOM     10  O   UNL     1      -8.074  -2.426 129.058  0.00  0.00    +0.000 OA
ATOM     11  H   UNL     1      -9.195  -4.604 127.046  0.00  0.00    +0.000 HD
ATOM     12  H   UNL     1      -9.502  -4.385 128.741  0.00  0.00    +0.000 HD
ENDBRANCH   7   8
ENDBRANCH   6   7
ENDBRANCH   1   6
BRANCH   1  13
ATOM     13  C   UNL     1      -8.115  -1.416 123.379  0.00  0.00    +0.000 C 
BRANCH  13  14
ATOM     14  O   UNL     1      -9.462  -1.225 122.865  0.00  0.00    +0.000 OA
BRANCH  14  15
ATOM     15  C   UNL     1      -9.874   0.075 122.834  0.00  0.00    +0.000 C 
ATOM     16  O   UNL     1     -11.013   0.415 122.547  0.00  0.00    +0.000 OA
ATOM     17  N   UNL     1      -8.859   0.942 123.166  0.00  0.00    +0.000 N 
ATOM     18  H   UNL     1      -7.949   0.548 123.363  0.00  0.00    +0.000 HD
BRANCH  17  19
ATOM     19  C   UNL     1      -9.071   2.389 123.235  0.00  0.00    +0.000 C 
ATOM     20  C   UNL     1      -8.462   2.977 124.511  0.00  0.00    +0.000 C 
ATOM     21  C   UNL     1      -8.483   3.134 122.031  0.00  0.00    +0.000 C 
ENDBRANCH  17  19
ENDBRANCH  14  15
ENDBRANCH  13  14
ENDBRANCH   1  13
TORSDOF 9
ENDMDL
MODEL 3
REMARK VINA RESULT:      -5.2      8.401      9.776
REMARK  Name = Carisoprodol
REMARK  13 active torsions:
REMARK  status: ('A' for Active; 'I' for Inactive)
REMARK    1  A    between atoms: C_1  and  C_2
REMARK    2  A    between atoms: C_2  and  C_3
REMARK    3  A    between atoms: C_3  and  C_4
REMARK    4  A    between atoms: C_4  and  C_5
REMARK    5  A    between atoms: C_4  and  C_6
REMARK    6  A    between atoms: C_4  and  C_11
REMARK    7  A    between atoms: C_6  and  O_7
REMARK    8  A    between atoms: O_7  and  C_8
REMARK    9  A    between atoms: C_11  and  O_12
REMARK   10  A    between atoms: O_12  and  C_13
REMARK   11  A    between atoms: N_15  and  C_16
REMARK   12  A    between atoms: C_16  and  C_17
REMARK   13  A    between atoms: C_16  and  C_18
REMARK                            x       y       z     vdW  Elec       q    Type
REMARK                         _______ _______ _______ _____ _____    ______ ____
ROOT
ATOM      1  C   UNL     1      -9.381   5.094 130.557  0.00  0.00    +0.000 C 
ATOM      2  C   UNL     1      -9.077   5.498 129.102  0.00  0.00    +0.000 C 
ENDROOT
BRANCH   1   3
ATOM      3  C   UNL     1      -8.755   6.157 131.521  0.00  0.00    +0.000 C 
BRANCH   3   5
ATOM      4  C   UNL     1      -6.279   6.736 131.348  0.00  0.00    +0.000 C 
ATOM      5  C   UNL     1      -7.679   7.042 130.872  0.00  0.00    +0.000 C 
ENDBRANCH   3   5
ENDBRANCH   1   3
BRANCH   1   6
ATOM      6  C   UNL     1      -8.820   3.678 130.853  0.00  0.00    +0.000 C 
BRANCH   6   7
ATOM      7  O   UNL     1      -9.559   3.037 131.910  0.00  0.00    +0.000 OA
BRANCH   7   8
ATOM      8  C   UNL     1      -9.133   2.974 133.191  0.00  0.00    +0.000 C 
ATOM      9  N   UNL     1      -9.727   3.815 134.069  0.00  0.00    +0.000 N 
ATOM     10  O   UNL     1      -8.275   2.176 133.556  0.00  0.00    +0.000 OA
ATOM     11  H   UNL     1     -10.455   4.462 133.824  0.00  0.00    +0.000 HD
ATOM     12  H   UNL     1      -9.484   3.695 135.043  0.00  0.00    +0.000 HD
ENDBRANCH   7   8
ENDBRANCH   6   7
ENDBRANCH   1   6
BRANCH   1  13
ATOM     13  C   UNL     1     -10.926   5.046 130.743  0.00  0.00    +0.000 C 
BRANCH  13  14
ATOM     14  O   UNL     1     -11.385   6.163 131.554  0.00  0.00    +0.000 OA
BRANCH  14  15
ATOM     15  C   UNL     1     -12.429   6.858 131.018  0.00  0.00    +0.000 C 
ATOM     16  O   UNL     1     -13.363   7.290 131.679  0.00  0.00    +0.000 OA
ATOM     17  N   UNL     1     -12.297   7.011 129.657  0.00  0.00    +0.000 N 
ATOM     18  H   UNL     1     -11.493   6.590 129.212  0.00  0.00    +0.000 HD
BRANCH  17  19
ATOM     19  C   UNL     1     -13.280   7.753 128.864  0.00  0.00    +0.000 C 
ATOM     20  C   UNL     1     -12.917   9.238 128.784  0.00  0.00    +0.000 C 
ATOM     21  C   UNL     1     -13.423   7.212 127.437  0.00  0.00    +0.000 C 
ENDBRANCH  17  19
ENDBRANCH  14  15
ENDBRANCH  13  14
ENDBRANCH   1  13
TORSDOF 9
ENDMDL
MODEL 4
REMARK VINA RESULT:      -5.0      2.651      5.388
REMARK  Name = Carisoprodol
REMARK  13 active torsions:
REMARK  status: ('A' for Active; 'I' for Inactive)
REMARK    1  A    between atoms: C_1  and  C_2
REMARK    2  A    between atoms: C_2  and  C_3
REMARK    3  A    between atoms: C_3  and  C_4
REMARK    4  A    between atoms: C_4  and  C_5
REMARK    5  A    between atoms: C_4  and  C_6
REMARK    6  A    between atoms: C_4  and  C_11
REMARK    7  A    between atoms: C_6  and  O_7
REMARK    8  A    between atoms: O_7  and  C_8
REMARK    9  A    between atoms: C_11  and  O_12
REMARK   10  A    between atoms: O_12  and  C_13
REMARK   11  A    between atoms: N_15  and  C_16
REMARK   12  A    between atoms: C_16  and  C_17
REMARK   13  A    between atoms: C_16  and  C_18
REMARK                            x       y       z     vdW  Elec       q    Type
REMARK                         _______ _______ _______ _____ _____    ______ ____
ROOT
ATOM      1  C   UNL     1      -7.349  -1.801 124.224  0.00  0.00    +0.000 C 
ATOM      2  C   UNL     1      -6.794  -0.592 125.001  0.00  0.00    +0.000 C 
ENDROOT
BRANCH   1   3
ATOM      3  C   UNL     1      -6.242  -2.334 123.255  0.00  0.00    +0.000 C 
BRANCH   3   5
ATOM      4  C   UNL     1      -4.543  -4.202 123.600  0.00  0.00    +0.000 C 
ATOM      5  C   UNL     1      -4.954  -2.794 123.957  0.00  0.00    +0.000 C 
ENDBRANCH   3   5
ENDBRANCH   1   3
BRANCH   1   6
ATOM      6  C   UNL     1      -8.627  -1.400 123.441  0.00  0.00    +0.000 C 
BRANCH   6   7
ATOM      7  O   UNL     1      -8.701   0.027 123.265  0.00  0.00    +0.000 OA
BRANCH   7   8
ATOM      8  C   UNL     1      -9.863   0.714 123.203  0.00  0.00    +0.000 C 
ATOM      9  N   UNL     1      -9.939   1.844 123.943  0.00  0.00    +0.000 N 
ATOM     10  O   UNL     1     -10.796   0.358 122.489  0.00  0.00    +0.000 OA
ATOM     11  H   UNL     1      -9.191   2.193 124.517  0.00  0.00    +0.000 HD
ATOM     12  H   UNL     1     -10.765   2.412 123.816  0.00  0.00    +0.000 HD
ENDBRANCH   7   8
ENDBRANCH   6   7
ENDBRANCH   1   6
BRANCH   1  13
ATOM     13  C   UNL     1      -7.741  -2.908 125.248  0.00  0.00    +0.000 C 
BRANCH  13  14
ATOM     14  O   UNL     1      -8.386  -2.328 126.416  0.00  0.00    +0.000 OA
BRANCH  14  15
ATOM     15  C   UNL     1      -8.311  -3.096 127.540  0.00  0.00    +0.000 C 
ATOM     16  O   UNL     1      -9.117  -3.974 127.814  0.00  0.00    +0.000 OA
ATOM     17  N   UNL     1      -7.224  -2.763 128.316  0.00  0.00    +0.000 N 
ATOM     18  H   UNL     1      -6.637  -2.002 128.001  0.00  0.00    +0.000 HD
BRANCH  17  19
ATOM     19  C   UNL     1      -6.914  -3.473 129.558  0.00  0.00    +0.000 C 
ATOM     20  C   UNL     1      -5.402  -3.587 129.769  0.00  0.00    +0.000 C 
ATOM     21  C   UNL     1      -7.526  -2.803 130.794  0.00  0.00    +0.000 C 
ENDBRANCH  17  19
ENDBRANCH  14  15
ENDBRANCH  13  14
ENDBRANCH   1  13
TORSDOF 9
ENDMDL
MODEL 5
REMARK VINA RESULT:      -5.0      3.424      6.129
REMARK  Name = Carisoprodol
REMARK  13 active torsions:
REMARK  status: ('A' for Active; 'I' for Inactive)
REMARK    1  A    between atoms: C_1  and  C_2
REMARK    2  A    between atoms: C_2  and  C_3
REMARK    3  A    between atoms: C_3  and  C_4
REMARK    4  A    between atoms: C_4  and  C_5
REMARK    5  A    between atoms: C_4  and  C_6
REMARK    6  A    between atoms: C_4  and  C_11
REMARK    7  A    between atoms: C_6  and  O_7
REMARK    8  A    between atoms: O_7  and  C_8
REMARK    9  A    between atoms: C_11  and  O_12
REMARK   10  A    between atoms: O_12  and  C_13
REMARK   11  A    between atoms: N_15  and  C_16
REMARK   12  A    between atoms: C_16  and  C_17
REMARK   13  A    between atoms: C_16  and  C_18
REMARK                            x       y       z     vdW  Elec       q    Type
REMARK                         _______ _______ _______ _____ _____    ______ ____
ROOT
ATOM      1  C   UNL     1      -6.330  -1.932 125.338  0.00  0.00    +0.000 C 
ATOM      2  C   UNL     1      -5.231  -0.891 125.054  0.00  0.00    +0.000 C 
ENDROOT
BRANCH   1   3
ATOM      3  C   UNL     1      -6.044  -3.216 124.492  0.00  0.00    +0.000 C 
BRANCH   3   5
ATOM      4  C   UNL     1      -4.039  -4.478 123.552  0.00  0.00    +0.000 C 
ATOM      5  C   UNL     1      -4.752  -3.152 123.662  0.00  0.00    +0.000 C 
ENDBRANCH   3   5
ENDBRANCH   1   3
BRANCH   1   6
ATOM      6  C   UNL     1      -7.728  -1.347 125.005  0.00  0.00    +0.000 C 
BRANCH   6   7
ATOM      7  O   UNL     1      -8.395  -2.135 124.001  0.00  0.00    +0.000 OA
BRANCH   7   8
ATOM      8  C   UNL     1      -9.438  -2.953 124.263  0.00  0.00    +0.000 C 
ATOM      9  N   UNL     1      -9.789  -3.092 125.563  0.00  0.00    +0.000 N 
ATOM     10  O   UNL     1     -10.064  -3.519 123.373  0.00  0.00    +0.000 OA
ATOM     11  H   UNL     1      -9.327  -2.625 126.323  0.00  0.00    +0.000 HD
ATOM     12  H   UNL     1     -10.631  -3.618 125.749  0.00  0.00    +0.000 HD
ENDBRANCH   7   8
ENDBRANCH   6   7
ENDBRANCH   1   6
BRANCH   1  13
ATOM     13  C   UNL     1      -6.303  -2.275 126.857  0.00  0.00    +0.000 C 
BRANCH  13  14
ATOM     14  O   UNL     1      -7.632  -2.162 127.438  0.00  0.00    +0.000 OA
BRANCH  14  15
ATOM     15  C   UNL     1      -7.847  -2.969 128.516  0.00  0.00    +0.000 C 
ATOM     16  O   UNL     1      -8.877  -3.604 128.689  0.00  0.00    +0.000 OA
ATOM     17  N   UNL     1      -6.768  -2.981 129.370  0.00  0.00    +0.000 N 
ATOM     18  H   UNL     1      -5.976  -2.397 129.136  0.00  0.00    +0.000 HD
BRANCH  17  19
ATOM     19  C   UNL     1      -6.751  -3.803 130.582  0.00  0.00    +0.000 C 
ATOM     20  C   UNL     1      -5.479  -4.652 130.656  0.00  0.00    +0.000 C 
ATOM     21  C   UNL     1      -6.854  -2.972 131.865  0.00  0.00    +0.000 C 
ENDBRANCH  17  19
ENDBRANCH  14  15
ENDBRANCH  13  14
ENDBRANCH   1  13
TORSDOF 9
ENDMDL
MODEL 6
REMARK VINA RESULT:      -5.0      2.457      5.087
REMARK  Name = Carisoprodol
REMARK  13 active torsions:
REMARK  status: ('A' for Active; 'I' for Inactive)
REMARK    1  A    between atoms: C_1  and  C_2
REMARK    2  A    between atoms: C_2  and  C_3
REMARK    3  A    between atoms: C_3  and  C_4
REMARK    4  A    between atoms: C_4  and  C_5
REMARK    5  A    between atoms: C_4  and  C_6
REMARK    6  A    between atoms: C_4  and  C_11
REMARK    7  A    between atoms: C_6  and  O_7
REMARK    8  A    between atoms: O_7  and  C_8
REMARK    9  A    between atoms: C_11  and  O_12
REMARK   10  A    between atoms: O_12  and  C_13
REMARK   11  A    between atoms: N_15  and  C_16
REMARK   12  A    between atoms: C_16  and  C_17
REMARK   13  A    between atoms: C_16  and  C_18
REMARK                            x       y       z     vdW  Elec       q    Type
REMARK                         _______ _______ _______ _____ _____    ______ ____
ROOT
ATOM      1  C   UNL     1      -7.078   2.254 124.033  0.00  0.00    +0.000 C 
ATOM      2  C   UNL     1      -6.284   1.959 125.320  0.00  0.00    +0.000 C 
ENDROOT
BRANCH   1   3
ATOM      3  C   UNL     1      -6.208   3.156 123.096  0.00  0.00    +0.000 C 
BRANCH   3   5
ATOM      4  C   UNL     1      -5.842   3.876 120.678  0.00  0.00    +0.000 C 
ATOM      5  C   UNL     1      -6.839   3.435 121.723  0.00  0.00    +0.000 C 
ENDBRANCH   3   5
ENDBRANCH   1   3
BRANCH   1   6
ATOM      6  C   UNL     1      -8.425   2.945 124.375  0.00  0.00    +0.000 C 
BRANCH   6   7
ATOM      7  O   UNL     1      -8.336   3.672 125.614  0.00  0.00    +0.000 OA
BRANCH   7   8
ATOM      8  C   UNL     1      -8.234   5.017 125.688  0.00  0.00    +0.000 C 
ATOM      9  N   UNL     1      -7.093   5.566 125.209  0.00  0.00    +0.000 N 
ATOM     10  O   UNL     1      -9.137   5.718 126.134  0.00  0.00    +0.000 OA
ATOM     11  H   UNL     1      -6.340   5.037 124.806  0.00  0.00    +0.000 HD
ATOM     12  H   UNL     1      -7.061   6.575 125.167  0.00  0.00    +0.000 HD
ENDBRANCH   7   8
ENDBRANCH   6   7
ENDBRANCH   1   6
BRANCH   1  13
ATOM     13  C   UNL     1      -7.397   0.902 123.330  0.00  0.00    +0.000 C 
BRANCH  13  14
ATOM     14  O   UNL     1      -8.829   0.746 123.130  0.00  0.00    +0.000 OA
BRANCH  14  15
ATOM     15  C   UNL     1      -9.280  -0.534 123.254  0.00  0.00    +0.000 C 
ATOM     16  O   UNL     1     -10.243  -0.974 122.642  0.00  0.00    +0.000 OA
ATOM     17  N   UNL     1      -8.520  -1.261 124.142  0.00  0.00    +0.000 N 
ATOM     18  H   UNL     1      -7.759  -0.786 124.610  0.00  0.00    +0.000 HD
BRANCH  17  19
ATOM     19  C   UNL     1      -8.792  -2.673 124.416  0.00  0.00    +0.000 C 
ATOM     20  C   UNL     1      -7.505  -3.502 124.373  0.00  0.00    +0.000 C 
ATOM     21  C   UNL     1      -9.466  -2.897 125.774  0.00  0.00    +0.000 C 
ENDBRANCH  17  19
ENDBRANCH  14  15
ENDBRANCH  13  14
ENDBRANCH   1  13
TORSDOF 9
ENDMDL
MODEL 7
REMARK VINA RESULT:      -4.9      1.953      2.509
REMARK  Name = Carisoprodol
REMARK  13 active torsions:
REMARK  status: ('A' for Active; 'I' for Inactive)
REMARK    1  A    between atoms: C_1  and  C_2
REMARK    2  A    between atoms: C_2  and  C_3
REMARK    3  A    between atoms: C_3  and  C_4
REMARK    4  A    between atoms: C_4  and  C_5
REMARK    5  A    between atoms: C_4  and  C_6
REMARK    6  A    between atoms: C_4  and  C_11
REMARK    7  A    between atoms: C_6  and  O_7
REMARK    8  A    between atoms: O_7  and  C_8
REMARK    9  A    between atoms: C_11  and  O_12
REMARK   10  A    between atoms: O_12  and  C_13
REMARK   11  A    between atoms: N_15  and  C_16
REMARK   12  A    between atoms: C_16  and  C_17
REMARK   13  A    between atoms: C_16  and  C_18
REMARK                            x       y       z     vdW  Elec       q    Type
REMARK                         _______ _______ _______ _____ _____    ______ ____
ROOT
ATOM      1  C   UNL     1      -8.499  -2.685 124.314  0.00  0.00    +0.000 C 
ATOM      2  C   UNL     1      -9.452  -3.116 123.183  0.00  0.00    +0.000 C 
ENDROOT
BRANCH   1   3
ATOM      3  C   UNL     1      -7.315  -3.706 124.398  0.00  0.00    +0.000 C 
BRANCH   3   5
ATOM      4  C   UNL     1      -4.871  -4.085 123.784  0.00  0.00    +0.000 C 
ATOM      5  C   UNL     1      -5.927  -3.083 124.186  0.00  0.00    +0.000 C 
ENDBRANCH   3   5
ENDBRANCH   1   3
BRANCH   1   6
ATOM      6  C   UNL     1      -9.261  -2.606 125.663  0.00  0.00    +0.000 C 
BRANCH   6   7
ATOM      7  O   UNL     1      -8.591  -3.371 126.683  0.00  0.00    +0.000 OA
BRANCH   7   8
ATOM      8  C   UNL     1      -8.199  -2.855 127.869  0.00  0.00    +0.000 C 
ATOM      9  N   UNL     1      -7.479  -1.710 127.824  0.00  0.00    +0.000 N 
ATOM     10  O   UNL     1      -8.504  -3.372 128.940  0.00  0.00    +0.000 OA
ATOM     11  H   UNL     1      -7.232  -1.233 126.975  0.00  0.00    +0.000 HD
ATOM     12  H   UNL     1      -7.276  -1.270 128.711  0.00  0.00    +0.000 HD
ENDBRANCH   7   8
ENDBRANCH   6   7
ENDBRANCH   1   6
BRANCH   1  13
ATOM     13  C   UNL     1      -7.956  -1.262 123.986  0.00  0.00    +0.000 C 
BRANCH  13  14
ATOM     14  O   UNL     1      -8.013  -0.403 125.157  0.00  0.00    +0.000 OA
BRANCH  14  15
ATOM     15  C   UNL     1      -8.108   0.928 124.876  0.00  0.00    +0.000 C 
ATOM     16  O   UNL     1      -9.078   1.612 125.169  0.00  0.00    +0.000 OA
ATOM     17  N   UNL     1      -6.986   1.398 124.232  0.00  0.00    +0.000 N 
ATOM     18  H   UNL     1      -6.253   0.733 124.020  0.00  0.00    +0.000 HD
BRANCH  17  19
ATOM     19  C   UNL     1      -6.842   2.806 123.858  0.00  0.00    +0.000 C 
ATOM     20  C   UNL     1      -5.735   3.483 124.670  0.00  0.00    +0.000 C 
ATOM     21  C   UNL     1      -6.535   2.997 122.369  0.00  0.00    +0.000 C 
ENDBRANCH  17  19
ENDBRANCH  14  15
ENDBRANCH  13  14
ENDBRANCH   1  13
TORSDOF 9
ENDMDL
MODEL 8
REMARK VINA RESULT:      -4.9      7.270      9.884
REMARK  Name = Carisoprodol
REMARK  13 active torsions:
REMARK  status: ('A' for Active; 'I' for Inactive)
REMARK    1  A    between atoms: C_1  and  C_2
REMARK    2  A    between atoms: C_2  and  C_3
REMARK    3  A    between atoms: C_3  and  C_4
REMARK    4  A    between atoms: C_4  and  C_5
REMARK    5  A    between atoms: C_4  and  C_6
REMARK    6  A    between atoms: C_4  and  C_11
REMARK    7  A    between atoms: C_6  and  O_7
REMARK    8  A    between atoms: O_7  and  C_8
REMARK    9  A    between atoms: C_11  and  O_12
REMARK   10  A    between atoms: O_12  and  C_13
REMARK   11  A    between atoms: N_15  and  C_16
REMARK   12  A    between atoms: C_16  and  C_17
REMARK   13  A    between atoms: C_16  and  C_18
REMARK                            x       y       z     vdW  Elec       q    Type
REMARK                         _______ _______ _______ _____ _____    ______ ____
ROOT
ATOM      1  C   UNL     1      -8.667   6.004 131.535  0.00  0.00    +0.000 C 
ATOM      2  C   UNL     1      -7.409   6.841 131.234  0.00  0.00    +0.000 C 
ENDROOT
BRANCH   1   3
ATOM      3  C   UNL     1      -8.871   5.933 133.085  0.00  0.00    +0.000 C 
BRANCH   3   5
ATOM      4  C   UNL     1      -7.760   4.341 134.736  0.00  0.00    +0.000 C 
ATOM      5  C   UNL     1      -8.812   4.512 133.666  0.00  0.00    +0.000 C 
ENDBRANCH   3   5
ENDBRANCH   1   3
BRANCH   1   6
ATOM      6  C   UNL     1      -8.528   4.582 130.928  0.00  0.00    +0.000 C 
BRANCH   6   7
ATOM      7  O   UNL     1      -7.864   4.626 129.651  0.00  0.00    +0.000 OA
BRANCH   7   8
ATOM      8  C   UNL     1      -8.199   3.837 128.606  0.00  0.00    +0.000 C 
ATOM      9  N   UNL     1      -8.506   2.551 128.892  0.00  0.00    +0.000 N 
ATOM     10  O   UNL     1      -8.256   4.263 127.457  0.00  0.00    +0.000 OA
ATOM     11  H   UNL     1      -8.505   2.164 129.819  0.00  0.00    +0.000 HD
ATOM     12  H   UNL     1      -8.857   1.990 128.127  0.00  0.00    +0.000 HD
ENDBRANCH   7   8
ENDBRANCH   6   7
ENDBRANCH   1   6
BRANCH   1  13
ATOM     13  C   UNL     1      -9.891   6.694 130.864  0.00  0.00    +0.000 C 
BRANCH  13  14
ATOM     14  O   UNL     1     -11.113   6.411 131.600  0.00  0.00    +0.000 OA
BRANCH  14  15
ATOM     15  C   UNL     1     -12.243   6.929 131.038  0.00  0.00    +0.000 C 
ATOM     16  O   UNL     1     -13.254   7.190 131.673  0.00  0.00    +0.000 OA
ATOM     17  N   UNL     1     -12.098   7.122 129.683  0.00  0.00    +0.000 N 
ATOM     18  H   UNL     1     -11.222   6.847 129.259  0.00  0.00    +0.000 HD
BRANCH  17  19
ATOM     19  C   UNL     1     -13.167   7.701 128.867  0.00  0.00    +0.000 C 
ATOM     20  C   UNL     1     -13.032   9.223 128.778  0.00  0.00    +0.000 C 
ATOM     21  C   UNL     1     -13.202   7.134 127.443  0.00  0.00    +0.000 C 
ENDBRANCH  17  19
ENDBRANCH  14  15
ENDBRANCH  13  14
ENDBRANCH   1  13
TORSDOF 9
ENDMDL
MODEL 9
REMARK VINA RESULT:      -4.9      2.084      5.306
REMARK  Name = Carisoprodol
REMARK  13 active torsions:
REMARK  status: ('A' for Active; 'I' for Inactive)
REMARK    1  A    between atoms: C_1  and  C_2
REMARK    2  A    between atoms: C_2  and  C_3
REMARK    3  A    between atoms: C_3  and  C_4
REMARK    4  A    between atoms: C_4  and  C_5
REMARK    5  A    between atoms: C_4  and  C_6
REMARK    6  A    between atoms: C_4  and  C_11
REMARK    7  A    between atoms: C_6  and  O_7
REMARK    8  A    between atoms: O_7  and  C_8
REMARK    9  A    between atoms: C_11  and  O_12
REMARK   10  A    between atoms: O_12  and  C_13
REMARK   11  A    between atoms: N_15  and  C_16
REMARK   12  A    between atoms: C_16  and  C_17
REMARK   13  A    between atoms: C_16  and  C_18
REMARK                            x       y       z     vdW  Elec       q    Type
REMARK                         _______ _______ _______ _____ _____    ______ ____
ROOT
ATOM      1  C   UNL     1      -7.177   2.557 124.117  0.00  0.00    +0.000 C 
ATOM      2  C   UNL     1      -6.168   3.394 124.926  0.00  0.00    +0.000 C 
ENDROOT
BRANCH   1   3
ATOM      3  C   UNL     1      -7.109   2.994 122.615  0.00  0.00    +0.000 C 
BRANCH   3   5
ATOM      4  C   UNL     1      -5.284   3.542 120.922  0.00  0.00    +0.000 C 
ATOM      5  C   UNL     1      -5.894   3.867 122.265  0.00  0.00    +0.000 C 
ENDBRANCH   3   5
ENDBRANCH   1   3
BRANCH   1   6
ATOM      6  C   UNL     1      -8.609   2.740 124.684  0.00  0.00    +0.000 C 
BRANCH   6   7
ATOM      7  O   UNL     1      -9.343   1.502 124.650  0.00  0.00    +0.000 OA
BRANCH   7   8
ATOM      8  C   UNL     1     -10.362   1.258 123.796  0.00  0.00    +0.000 C 
ATOM      9  N   UNL     1     -10.024   0.945 122.524  0.00  0.00    +0.000 N 
ATOM     10  O   UNL     1     -11.535   1.283 124.154  0.00  0.00    +0.000 OA
ATOM     11  H   UNL     1      -9.078   0.881 122.192  0.00  0.00    +0.000 HD
ATOM     12  H   UNL     1     -10.778   0.661 121.914  0.00  0.00    +0.000 HD
ENDBRANCH   7   8
ENDBRANCH   6   7
ENDBRANCH   1   6
BRANCH   1  13
ATOM     13  C   UNL     1      -6.794   1.054 124.254  0.00  0.00    +0.000 C 
BRANCH  13  14
ATOM     14  O   UNL     1      -6.880   0.377 122.970  0.00  0.00    +0.000 OA
BRANCH  14  15
ATOM     15  C   UNL     1      -7.185  -0.950 123.051  0.00  0.00    +0.000 C 
ATOM     16  O   UNL     1      -8.237  -1.426 122.650  0.00  0.00    +0.000 OA
ATOM     17  N   UNL     1      -6.169  -1.674 123.630  0.00  0.00    +0.000 N 
ATOM     18  H   UNL     1      -5.352  -1.169 123.947  0.00  0.00    +0.000 HD
BRANCH  17  19
ATOM     19  C   UNL     1      -6.252  -3.127 123.794  0.00  0.00    +0.000 C 
ATOM     20  C   UNL     1      -4.874  -3.731 124.078  0.00  0.00    +0.000 C 
ATOM     21  C   UNL     1      -7.205  -3.544 124.920  0.00  0.00    +0.000 C 
ENDBRANCH  17  19
ENDBRANCH  14  15
ENDBRANCH  13  14
ENDBRANCH   1  13
TORSDOF 9
ENDMDL
