MODEL 1
REMARK VINA RESULT:      -7.9      0.000      0.000
REMARK  Name = Cariprazine
REMARK  7 active torsions:
REMARK  status: ('A' for Active; 'I' for Inactive)
REMARK    1  A    between atoms: C_1  and  N_2
REMARK    2  A    between atoms: N_2  and  C_3
REMARK    3  A    between atoms: N_6  and  C_7
REMARK    4  A    between atoms: C_10  and  C_11
REMARK    5  A    between atoms: C_11  and  C_12
REMARK    6  A    between atoms: C_12  and  N_13
REMARK    7  A    between atoms: N_16  and  C_19
REMARK                            x       y       z     vdW  Elec       q    Type
REMARK                         _______ _______ _______ _____ _____    ______ ____
ROOT
ATOM      1  C   UNL     1      -7.972   0.051 131.209  0.00  0.00    +0.000 C 
ENDROOT
BRANCH   1   2
ATOM      2  N   UNL     1      -6.788  -0.374 130.454  0.00  0.00    +0.000 NA
ATOM      3  C   UNL     1      -6.790  -1.827 130.140  0.00  0.00    +0.000 C 
ATOM      4  C   UNL     1      -7.997  -2.262 129.273  0.00  0.00    +0.000 C 
ATOM      5  N   UNL     1      -8.015  -1.474 128.035  0.00  0.00    +0.000 N 
ATOM      6  C   UNL     1      -7.899  -0.017 128.189  0.00  0.00    +0.000 C 
ATOM      7  C   UNL     1      -6.753   0.363 129.167  0.00  0.00    +0.000 C 
BRANCH   5   8
ATOM      8  C   UNL     1      -7.899  -2.105 126.809  0.00  0.00    +0.000 A 
ATOM      9  C   UNL     1      -6.684  -2.343 126.122  0.00  0.00    +0.000 A 
ATOM     10 CL   UNL     1      -5.151  -1.954 126.844  0.00  0.00    +0.000 Cl
ATOM     11  C   UNL     1      -6.690  -2.969 124.863  0.00  0.00    +0.000 A 
ATOM     12 CL   UNL     1      -5.239  -3.280 123.967  0.00  0.00    +0.000 Cl
ATOM     13  C   UNL     1      -7.890  -3.375 124.279  0.00  0.00    +0.000 A 
ATOM     14  C   UNL     1      -9.090  -3.160 124.942  0.00  0.00    +0.000 A 
ATOM     15  C   UNL     1      -9.089  -2.533 126.189  0.00  0.00    +0.000 A 
ENDBRANCH   5   8
ENDBRANCH   1   2
BRANCH   1  16
ATOM     16  C   UNL     1      -7.811   1.449 131.776  0.00  0.00    +0.000 C 
BRANCH  16  20
ATOM     17  C   UNL     1      -9.559   4.444 131.216  0.00  0.00    +0.000 C 
ATOM     18  C   UNL     1      -8.462   4.319 132.260  0.00  0.00    +0.000 C 
ATOM     19  C   UNL     1      -8.770   3.217 133.246  0.00  0.00    +0.000 C 
ATOM     20  C   UNL     1      -9.073   1.902 132.513  0.00  0.00    +0.000 C 
ATOM     21  C   UNL     1     -10.239   2.048 131.529  0.00  0.00    +0.000 C 
ATOM     22  C   UNL     1      -9.959   3.146 130.516  0.00  0.00    +0.000 C 
BRANCH  17  28
ATOM     23  C   UNL     1     -11.801   8.022 129.716  0.00  0.00    +0.000 C 
ATOM     24  N   UNL     1     -11.030   6.868 130.126  0.00  0.00    +0.000 N 
ATOM     25  C   UNL     1      -9.847   6.615 129.333  0.00  0.00    +0.000 C 
ATOM     26  C   UNL     1     -11.445   6.177 131.239  0.00  0.00    +0.000 C 
ATOM     27  O   UNL     1     -12.480   6.476 131.854  0.00  0.00    +0.000 OA
ATOM     28  N   UNL     1     -10.729   5.136 131.729  0.00  0.00    +0.000 N 
ATOM     29  H   UNL     1     -11.217   4.695 132.502  0.00  0.00    +0.000 HD
ENDBRANCH  17  28
ENDBRANCH  16  20
ENDBRANCH   1  16
TORSDOF 5
ENDMDL
MODEL 2
REMARK VINA RESULT:      -7.5      6.856     10.004
REMARK  Name = Cariprazine
REMARK  7 active torsions:
REMARK  status: ('A' for Active; 'I' for Inactive)
REMARK    1  A    between atoms: C_1  and  N_2
REMARK    2  A    between atoms: N_2  and  C_3
REMARK    3  A    between atoms: N_6  and  C_7
REMARK    4  A    between atoms: C_10  and  C_11
REMARK    5  A    between atoms: C_11  and  C_12
REMARK    6  A    between atoms: C_12  and  N_13
REMARK    7  A    between atoms: N_16  and  C_19
REMARK                            x       y       z     vdW  Elec       q    Type
REMARK                         _______ _______ _______ _____ _____    ______ ____
ROOT
ATOM      1  C   UNL     1      -5.699   5.092 130.085  0.00  0.00    +0.000 C 
ENDROOT
BRANCH   1   2
ATOM      2  N   UNL     1      -6.707   4.747 131.093  0.00  0.00    +0.000 NA
ATOM      3  C   UNL     1      -7.191   5.927 131.858  0.00  0.00    +0.000 C 
ATOM      4  C   UNL     1      -7.864   6.998 130.966  0.00  0.00    +0.000 C 
ATOM      5  N   UNL     1      -8.972   6.385 130.223  0.00  0.00    +0.000 N 
ATOM      6  C   UNL     1      -8.665   5.137 129.510  0.00  0.00    +0.000 C 
ATOM      7  C   UNL     1      -7.879   4.145 130.410  0.00  0.00    +0.000 C 
BRANCH   5   8
ATOM      8  C   UNL     1     -10.265   6.840 130.404  0.00  0.00    +0.000 A 
ATOM      9  C   UNL     1     -10.952   7.723 129.536  0.00  0.00    +0.000 A 
ATOM     10 CL   UNL     1     -10.244   8.244 128.037  0.00  0.00    +0.000 Cl
ATOM     11  C   UNL     1     -12.260   8.144 129.839  0.00  0.00    +0.000 A 
ATOM     12 CL   UNL     1     -13.150   9.231 128.823  0.00  0.00    +0.000 Cl
ATOM     13  C   UNL     1     -12.903   7.688 130.989  0.00  0.00    +0.000 A 
ATOM     14  C   UNL     1     -12.249   6.813 131.847  0.00  0.00    +0.000 A 
ATOM     15  C   UNL     1     -10.950   6.398 131.554  0.00  0.00    +0.000 A 
ENDBRANCH   5   8
ENDBRANCH   1   2
BRANCH   1  16
ATOM     16  C   UNL     1      -4.300   5.123 130.670  0.00  0.00    +0.000 C 
BRANCH  16  20
ATOM     17  C   UNL     1      -2.069   6.903 132.719  0.00  0.00    +0.000 C 
ATOM     18  C   UNL     1      -3.555   7.217 132.660  0.00  0.00    +0.000 C 
ATOM     19  C   UNL     1      -3.991   7.527 131.248  0.00  0.00    +0.000 C 
ATOM     20  C   UNL     1      -3.562   6.408 130.288  0.00  0.00    +0.000 C 
ATOM     21  C   UNL     1      -2.046   6.177 130.316  0.00  0.00    +0.000 C 
ATOM     22  C   UNL     1      -1.573   5.854 131.724  0.00  0.00    +0.000 C 
BRANCH  17  28
ATOM     23  C   UNL     1       0.421   8.977 135.813  0.00  0.00    +0.000 C 
ATOM     24  N   UNL     1      -0.396   8.241 134.872  0.00  0.00    +0.000 N 
ATOM     25  C   UNL     1      -1.130   7.132 135.441  0.00  0.00    +0.000 C 
ATOM     26  C   UNL     1      -0.447   8.691 133.574  0.00  0.00    +0.000 C 
ATOM     27  O   UNL     1       0.224   9.658 133.183  0.00  0.00    +0.000 OA
ATOM     28  N   UNL     1      -1.251   8.102 132.657  0.00  0.00    +0.000 N 
ATOM     29  H   UNL     1      -1.107   8.508 131.738  0.00  0.00    +0.000 HD
ENDBRANCH  17  28
ENDBRANCH  16  20
ENDBRANCH   1  16
TORSDOF 5
ENDMDL
MODEL 3
REMARK VINA RESULT:      -7.3      2.091      3.140
REMARK  Name = Cariprazine
REMARK  7 active torsions:
REMARK  status: ('A' for Active; 'I' for Inactive)
REMARK    1  A    between atoms: C_1  and  N_2
REMARK    2  A    between atoms: N_2  and  C_3
REMARK    3  A    between atoms: N_6  and  C_7
REMARK    4  A    between atoms: C_10  and  C_11
REMARK    5  A    between atoms: C_11  and  C_12
REMARK    6  A    between atoms: C_12  and  N_13
REMARK    7  A    between atoms: N_16  and  C_19
REMARK                            x       y       z     vdW  Elec       q    Type
REMARK                         _______ _______ _______ _____ _____    ______ ____
ROOT
ATOM      1  C   UNL     1      -5.993   2.505 131.045  0.00  0.00    +0.000 C 
ENDROOT
BRANCH   1   2
ATOM      2  N   UNL     1      -6.706   1.352 131.607  0.00  0.00    +0.000 NA
ATOM      3  C   UNL     1      -8.052   1.153 131.006  0.00  0.00    +0.000 C 
ATOM      4  C   UNL     1      -8.007   0.894 129.481  0.00  0.00    +0.000 C 
ATOM      5  N   UNL     1      -7.153  -0.268 129.210  0.00  0.00    +0.000 N 
ATOM      6  C   UNL     1      -5.827  -0.263 129.843  0.00  0.00    +0.000 C 
ATOM      7  C   UNL     1      -5.913   0.126 131.344  0.00  0.00    +0.000 C 
BRANCH   5   8
ATOM      8  C   UNL     1      -7.682  -1.391 128.601  0.00  0.00    +0.000 A 
ATOM      9  C   UNL     1      -7.959  -1.519 127.218  0.00  0.00    +0.000 A 
ATOM     10 CL   UNL     1      -7.528  -0.265 126.094  0.00  0.00    +0.000 Cl
ATOM     11  C   UNL     1      -8.528  -2.702 126.713  0.00  0.00    +0.000 A 
ATOM     12 CL   UNL     1      -8.899  -2.917 125.033  0.00  0.00    +0.000 Cl
ATOM     13  C   UNL     1      -8.815  -3.770 127.563  0.00  0.00    +0.000 A 
ATOM     14  C   UNL     1      -8.541  -3.667 128.920  0.00  0.00    +0.000 A 
ATOM     15  C   UNL     1      -7.983  -2.493 129.427  0.00  0.00    +0.000 A 
ENDBRANCH   5   8
ENDBRANCH   1   2
BRANCH   1  16
ATOM     16  C   UNL     1      -6.609   3.820 131.483  0.00  0.00    +0.000 C 
BRANCH  16  20
ATOM     17  C   UNL     1      -9.249   5.900 130.459  0.00  0.00    +0.000 C 
ATOM     18  C   UNL     1      -8.970   4.553 129.813  0.00  0.00    +0.000 C 
ATOM     19  C   UNL     1      -7.559   4.486 129.278  0.00  0.00    +0.000 C 
ATOM     20  C   UNL     1      -6.546   4.866 130.367  0.00  0.00    +0.000 C 
ATOM     21  C   UNL     1      -6.811   6.265 130.936  0.00  0.00    +0.000 C 
ATOM     22  C   UNL     1      -8.223   6.365 131.492  0.00  0.00    +0.000 C 
BRANCH  17  28
ATOM     23  C   UNL     1     -12.791   8.556 129.765  0.00  0.00    +0.000 C 
ATOM     24  N   UNL     1     -11.686   7.669 130.064  0.00  0.00    +0.000 N 
ATOM     25  C   UNL     1     -11.949   6.699 131.103  0.00  0.00    +0.000 C 
ATOM     26  C   UNL     1     -10.543   7.787 129.308  0.00  0.00    +0.000 C 
ATOM     27  O   UNL     1     -10.416   8.657 128.433  0.00  0.00    +0.000 OA
ATOM     28  N   UNL     1      -9.499   6.940 129.475  0.00  0.00    +0.000 N 
ATOM     29  H   UNL     1      -8.715   7.216 128.894  0.00  0.00    +0.000 HD
ENDBRANCH  17  28
ENDBRANCH  16  20
ENDBRANCH   1  16
TORSDOF 5
ENDMDL
MODEL 4
REMARK VINA RESULT:      -7.3      3.896      4.276
REMARK  Name = Cariprazine
REMARK  7 active torsions:
REMARK  status: ('A' for Active; 'I' for Inactive)
REMARK    1  A    between atoms: C_1  and  N_2
REMARK    2  A    between atoms: N_2  and  C_3
REMARK    3  A    between atoms: N_6  and  C_7
REMARK    4  A    between atoms: C_10  and  C_11
REMARK    5  A    between atoms: C_11  and  C_12
REMARK    6  A    between atoms: C_12  and  N_13
REMARK    7  A    between atoms: N_16  and  C_19
REMARK                            x       y       z     vdW  Elec       q    Type
REMARK                         _______ _______ _______ _____ _____    ______ ____
ROOT
ATOM      1  C   UNL     1      -6.609   2.728 129.658  0.00  0.00    +0.000 C 
ENDROOT
BRANCH   1   2
ATOM      2  N   UNL     1      -5.618   3.004 128.611  0.00  0.00    +0.000 NA
ATOM      3  C   UNL     1      -5.528   1.918 127.598  0.00  0.00    +0.000 C 
ATOM      4  C   UNL     1      -6.857   1.677 126.842  0.00  0.00    +0.000 C 
ATOM      5  N   UNL     1      -7.290   2.928 126.209  0.00  0.00    +0.000 N 
ATOM      6  C   UNL     1      -7.313   4.119 127.069  0.00  0.00    +0.000 C 
ATOM      7  C   UNL     1      -6.008   4.247 127.901  0.00  0.00    +0.000 C 
BRANCH   5   8
ATOM      8  C   UNL     1      -7.421   3.000 124.834  0.00  0.00    +0.000 A 
ATOM      9  C   UNL     1      -6.439   3.498 123.942  0.00  0.00    +0.000 A 
ATOM     10 CL   UNL     1      -4.866   3.973 124.509  0.00  0.00    +0.000 Cl
ATOM     11  C   UNL     1      -6.695   3.551 122.560  0.00  0.00    +0.000 A 
ATOM     12 CL   UNL     1      -5.540   4.158 121.419  0.00  0.00    +0.000 Cl
ATOM     13  C   UNL     1      -7.912   3.104 122.047  0.00  0.00    +0.000 A 
ATOM     14  C   UNL     1      -8.883   2.603 122.904  0.00  0.00    +0.000 A 
ATOM     15  C   UNL     1      -8.635   2.553 124.277  0.00  0.00    +0.000 A 
ENDBRANCH   5   8
ENDBRANCH   1   2
BRANCH   1  16
ATOM     16  C   UNL     1      -6.758   3.895 130.616  0.00  0.00    +0.000 C 
BRANCH  16  20
ATOM     17  C   UNL     1      -9.361   6.254 130.615  0.00  0.00    +0.000 C 
ATOM     18  C   UNL     1      -8.225   6.289 131.624  0.00  0.00    +0.000 C 
ATOM     19  C   UNL     1      -8.130   4.988 132.385  0.00  0.00    +0.000 C 
ATOM     20  C   UNL     1      -8.057   3.797 131.419  0.00  0.00    +0.000 C 
ATOM     21  C   UNL     1      -9.263   3.750 130.473  0.00  0.00    +0.000 C 
ATOM     22  C   UNL     1      -9.383   5.044 129.683  0.00  0.00    +0.000 C 
BRANCH  17  28
ATOM     23  C   UNL     1     -12.886   8.764 129.454  0.00  0.00    +0.000 C 
ATOM     24  N   UNL     1     -11.710   7.974 129.751  0.00  0.00    +0.000 N 
ATOM     25  C   UNL     1     -10.588   8.198 128.866  0.00  0.00    +0.000 C 
ATOM     26  C   UNL     1     -11.747   7.155 130.855  0.00  0.00    +0.000 C 
ATOM     27  O   UNL     1     -12.763   7.033 131.554  0.00  0.00    +0.000 OA
ATOM     28  N   UNL     1     -10.658   6.448 131.241  0.00  0.00    +0.000 N 
ATOM     29  H   UNL     1     -10.881   5.841 132.023  0.00  0.00    +0.000 HD
ENDBRANCH  17  28
ENDBRANCH  16  20
ENDBRANCH   1  16
TORSDOF 5
ENDMDL
MODEL 5
REMARK VINA RESULT:      -7.2      5.516      6.502
REMARK  Name = Cariprazine
REMARK  7 active torsions:
REMARK  status: ('A' for Active; 'I' for Inactive)
REMARK    1  A    between atoms: C_1  and  N_2
REMARK    2  A    between atoms: N_2  and  C_3
REMARK    3  A    between atoms: N_6  and  C_7
REMARK    4  A    between atoms: C_10  and  C_11
REMARK    5  A    between atoms: C_11  and  C_12
REMARK    6  A    between atoms: C_12  and  N_13
REMARK    7  A    between atoms: N_16  and  C_19
REMARK                            x       y       z     vdW  Elec       q    Type
REMARK                         _______ _______ _______ _____ _____    ______ ____
ROOT
ATOM      1  C   UNL     1      -8.013   1.534 126.409  0.00  0.00    +0.000 C 
ENDROOT
BRANCH   1   2
ATOM      2  N   UNL     1      -8.838   2.222 125.410  0.00  0.00    +0.000 NA
ATOM      3  C   UNL     1      -8.413   3.628 125.175  0.00  0.00    +0.000 C 
ATOM      4  C   UNL     1      -6.962   3.747 124.650  0.00  0.00    +0.000 C 
ATOM      5  N   UNL     1      -6.826   2.962 123.417  0.00  0.00    +0.000 N 
ATOM      6  C   UNL     1      -7.319   1.579 123.468  0.00  0.00    +0.000 C 
ATOM      7  C   UNL     1      -8.727   1.499 124.119  0.00  0.00    +0.000 C 
BRANCH   5   8
ATOM      8  C   UNL     1      -6.482   3.586 122.232  0.00  0.00    +0.000 A 
ATOM      9  C   UNL     1      -7.329   3.729 121.105  0.00  0.00    +0.000 A 
ATOM     10 CL   UNL     1      -8.988   3.215 121.156  0.00  0.00    +0.000 Cl
ATOM     11  C   UNL     1      -6.860   4.358 119.938  0.00  0.00    +0.000 A 
ATOM     12 CL   UNL     1      -7.842   4.555 118.523  0.00  0.00    +0.000 Cl
ATOM     13  C   UNL     1      -5.561   4.862 119.878  0.00  0.00    +0.000 A 
ATOM     14  C   UNL     1      -4.719   4.742 120.976  0.00  0.00    +0.000 A 
ATOM     15  C   UNL     1      -5.179   4.112 122.134  0.00  0.00    +0.000 A 
ENDBRANCH   5   8
ENDBRANCH   1   2
BRANCH   1  16
ATOM     16  C   UNL     1      -8.574   1.687 127.810  0.00  0.00    +0.000 C 
BRANCH  16  20
ATOM     17  C   UNL     1      -7.997   3.122 130.965  0.00  0.00    +0.000 C 
ATOM     18  C   UNL     1      -7.173   3.480 129.739  0.00  0.00    +0.000 C 
ATOM     19  C   UNL     1      -6.538   2.252 129.130  0.00  0.00    +0.000 C 
ATOM     20  C   UNL     1      -7.594   1.170 128.865  0.00  0.00    +0.000 C 
ATOM     21  C   UNL     1      -8.347   0.777 130.142  0.00  0.00    +0.000 C 
ATOM     22  C   UNL     1      -9.006   1.990 130.777  0.00  0.00    +0.000 C 
BRANCH  17  28
ATOM     23  C   UNL     1      -7.973   5.010 135.028  0.00  0.00    +0.000 C 
ATOM     24  N   UNL     1      -8.055   4.445 133.698  0.00  0.00    +0.000 N 
ATOM     25  C   UNL     1      -8.999   5.098 132.818  0.00  0.00    +0.000 C 
ATOM     26  C   UNL     1      -7.205   3.412 133.383  0.00  0.00    +0.000 C 
ATOM     27  O   UNL     1      -6.426   2.920 134.214  0.00  0.00    +0.000 OA
ATOM     28  N   UNL     1      -7.168   2.887 132.135  0.00  0.00    +0.000 N 
ATOM     29  H   UNL     1      -6.545   2.087 132.098  0.00  0.00    +0.000 HD
ENDBRANCH  17  28
ENDBRANCH  16  20
ENDBRANCH   1  16
TORSDOF 5
ENDMDL
MODEL 6
REMARK VINA RESULT:      -7.1      3.428      4.227
REMARK  Name = Cariprazine
REMARK  7 active torsions:
REMARK  status: ('A' for Active; 'I' for Inactive)
REMARK    1  A    between atoms: C_1  and  N_2
REMARK    2  A    between atoms: N_2  and  C_3
REMARK    3  A    between atoms: N_6  and  C_7
REMARK    4  A    between atoms: C_10  and  C_11
REMARK    5  A    between atoms: C_11  and  C_12
REMARK    6  A    between atoms: C_12  and  N_13
REMARK    7  A    between atoms: N_16  and  C_19
REMARK                            x       y       z     vdW  Elec       q    Type
REMARK                         _______ _______ _______ _____ _____    ______ ____
ROOT
ATOM      1  C   UNL     1      -8.503   1.940 132.515  0.00  0.00    +0.000 C 
ENDROOT
BRANCH   1   2
ATOM      2  N   UNL     1      -7.428   1.690 131.548  0.00  0.00    +0.000 NA
ATOM      3  C   UNL     1      -6.181   1.185 132.184  0.00  0.00    +0.000 C 
ATOM      4  C   UNL     1      -6.377  -0.160 132.926  0.00  0.00    +0.000 C 
ATOM      5  N   UNL     1      -6.911  -1.157 131.992  0.00  0.00    +0.000 N 
ATOM      6  C   UNL     1      -8.081  -0.749 131.203  0.00  0.00    +0.000 C 
ATOM      7  C   UNL     1      -7.886   0.661 130.581  0.00  0.00    +0.000 C 
BRANCH   5   8
ATOM      8  C   UNL     1      -6.190  -2.305 131.715  0.00  0.00    +0.000 A 
ATOM      9  C   UNL     1      -5.226  -2.439 130.686  0.00  0.00    +0.000 A 
ATOM     10 CL   UNL     1      -4.756  -1.079 129.711  0.00  0.00    +0.000 Cl
ATOM     11  C   UNL     1      -4.575  -3.668 130.478  0.00  0.00    +0.000 A 
ATOM     12 CL   UNL     1      -3.394  -3.899 129.229  0.00  0.00    +0.000 Cl
ATOM     13  C   UNL     1      -4.858  -4.767 131.288  0.00  0.00    +0.000 A 
ATOM     14  C   UNL     1      -5.791  -4.651 132.310  0.00  0.00    +0.000 A 
ATOM     15  C   UNL     1      -6.445  -3.436 132.516  0.00  0.00    +0.000 A 
ENDBRANCH   5   8
ENDBRANCH   1   2
BRANCH   1  16
ATOM     16  C   UNL     1      -9.005   3.370 132.445  0.00  0.00    +0.000 C 
BRANCH  16  20
ATOM     17  C   UNL     1     -10.529   6.117 130.872  0.00  0.00    +0.000 C 
ATOM     18  C   UNL     1     -10.820   4.680 130.473  0.00  0.00    +0.000 C 
ATOM     19  C   UNL     1      -9.555   3.953 130.086  0.00  0.00    +0.000 C 
ATOM     20  C   UNL     1      -8.495   4.081 131.190  0.00  0.00    +0.000 C 
ATOM     21  C   UNL     1      -8.168   5.545 131.505  0.00  0.00    +0.000 C 
ATOM     22  C   UNL     1      -9.421   6.306 131.908  0.00  0.00    +0.000 C 
BRANCH  17  28
ATOM     23  C   UNL     1     -12.948   9.470 129.145  0.00  0.00    +0.000 C 
ATOM     24  N   UNL     1     -12.223   8.385 129.772  0.00  0.00    +0.000 N 
ATOM     25  C   UNL     1     -12.912   7.749 130.872  0.00  0.00    +0.000 C 
ATOM     26  C   UNL     1     -11.007   8.029 129.236  0.00  0.00    +0.000 C 
ATOM     27  O   UNL     1     -10.499   8.641 128.285  0.00  0.00    +0.000 OA
ATOM     28  N   UNL     1     -10.309   6.973 129.719  0.00  0.00    +0.000 N 
ATOM     29  H   UNL     1      -9.405   6.900 129.262  0.00  0.00    +0.000 HD
ENDBRANCH  17  28
ENDBRANCH  16  20
ENDBRANCH   1  16
TORSDOF 5
ENDMDL
MODEL 7
REMARK VINA RESULT:      -7.1      6.562      7.519
REMARK  Name = Cariprazine
REMARK  7 active torsions:
REMARK  status: ('A' for Active; 'I' for Inactive)
REMARK    1  A    between atoms: C_1  and  N_2
REMARK    2  A    between atoms: N_2  and  C_3
REMARK    3  A    between atoms: N_6  and  C_7
REMARK    4  A    between atoms: C_10  and  C_11
REMARK    5  A    between atoms: C_11  and  C_12
REMARK    6  A    between atoms: C_12  and  N_13
REMARK    7  A    between atoms: N_16  and  C_19
REMARK                            x       y       z     vdW  Elec       q    Type
REMARK                         _______ _______ _______ _____ _____    ______ ____
ROOT
ATOM      1  C   UNL     1      -6.408   1.821 126.289  0.00  0.00    +0.000 C 
ENDROOT
BRANCH   1   2
ATOM      2  N   UNL     1      -7.723   2.059 125.683  0.00  0.00    +0.000 NA
ATOM      3  C   UNL     1      -7.906   3.463 125.226  0.00  0.00    +0.000 C 
ATOM      4  C   UNL     1      -6.882   3.892 124.148  0.00  0.00    +0.000 C 
ATOM      5  N   UNL     1      -6.962   2.972 123.007  0.00  0.00    +0.000 N 
ATOM      6  C   UNL     1      -6.913   1.538 123.323  0.00  0.00    +0.000 C 
ATOM      7  C   UNL     1      -7.867   1.180 124.496  0.00  0.00    +0.000 C 
BRANCH   5   8
ATOM      8  C   UNL     1      -7.311   3.447 121.756  0.00  0.00    +0.000 A 
ATOM      9  C   UNL     1      -6.422   4.049 120.831  0.00  0.00    +0.000 A 
ATOM     10 CL   UNL     1      -4.716   4.141 121.152  0.00  0.00    +0.000 Cl
ATOM     11  C   UNL     1      -6.896   4.524 119.596  0.00  0.00    +0.000 A 
ATOM     12 CL   UNL     1      -5.862   5.279 118.426  0.00  0.00    +0.000 Cl
ATOM     13  C   UNL     1      -8.243   4.399 119.257  0.00  0.00    +0.000 A 
ATOM     14  C   UNL     1      -9.127   3.802 120.146  0.00  0.00    +0.000 A 
ATOM     15  C   UNL     1      -8.663   3.334 121.376  0.00  0.00    +0.000 A 
ENDBRANCH   5   8
ENDBRANCH   1   2
BRANCH   1  16
ATOM     16  C   UNL     1      -6.143   2.758 127.452  0.00  0.00    +0.000 C 
BRANCH  16  20
ATOM     17  C   UNL     1      -4.137   4.813 129.476  0.00  0.00    +0.000 C 
ATOM     18  C   UNL     1      -3.810   4.528 128.020  0.00  0.00    +0.000 C 
ATOM     19  C   UNL     1      -3.689   3.044 127.768  0.00  0.00    +0.000 C 
ATOM     20  C   UNL     1      -4.935   2.303 128.274  0.00  0.00    +0.000 C 
ATOM     21  C   UNL     1      -5.184   2.550 129.766  0.00  0.00    +0.000 C 
ATOM     22  C   UNL     1      -5.319   4.037 130.054  0.00  0.00    +0.000 C 
BRANCH  17  28
ATOM     23  C   UNL     1      -2.180   7.722 132.266  0.00  0.00    +0.000 C 
ATOM     24  N   UNL     1      -2.878   6.841 131.354  0.00  0.00    +0.000 N 
ATOM     25  C   UNL     1      -3.960   7.460 130.620  0.00  0.00    +0.000 C 
ATOM     26  C   UNL     1      -2.419   5.551 131.227  0.00  0.00    +0.000 C 
ATOM     27  O   UNL     1      -1.478   5.115 131.905  0.00  0.00    +0.000 OA
ATOM     28  N   UNL     1      -2.971   4.694 130.335  0.00  0.00    +0.000 N 
ATOM     29  H   UNL     1      -2.566   3.768 130.427  0.00  0.00    +0.000 HD
ENDBRANCH  17  28
ENDBRANCH  16  20
ENDBRANCH   1  16
TORSDOF 5
ENDMDL
MODEL 8
REMARK VINA RESULT:      -7.1      2.280      2.818
REMARK  Name = Cariprazine
REMARK  7 active torsions:
REMARK  status: ('A' for Active; 'I' for Inactive)
REMARK    1  A    between atoms: C_1  and  N_2
REMARK    2  A    between atoms: N_2  and  C_3
REMARK    3  A    between atoms: N_6  and  C_7
REMARK    4  A    between atoms: C_10  and  C_11
REMARK    5  A    between atoms: C_11  and  C_12
REMARK    6  A    between atoms: C_12  and  N_13
REMARK    7  A    between atoms: N_16  and  C_19
REMARK                            x       y       z     vdW  Elec       q    Type
REMARK                         _______ _______ _______ _____ _____    ______ ____
ROOT
ATOM      1  C   UNL     1      -5.923   2.859 129.388  0.00  0.00    +0.000 C 
ENDROOT
BRANCH   1   2
ATOM      2  N   UNL     1      -5.635   3.029 127.959  0.00  0.00    +0.000 NA
ATOM      3  C   UNL     1      -4.801   1.930 127.401  0.00  0.00    +0.000 C 
ATOM      4  C   UNL     1      -5.469   0.539 127.515  0.00  0.00    +0.000 C 
ATOM      5  N   UNL     1      -6.777   0.572 126.850  0.00  0.00    +0.000 N 
ATOM      6  C   UNL     1      -7.667   1.681 127.220  0.00  0.00    +0.000 C 
ATOM      7  C   UNL     1      -6.917   3.041 127.213  0.00  0.00    +0.000 C 
BRANCH   5   8
ATOM      8  C   UNL     1      -7.028  -0.256 125.771  0.00  0.00    +0.000 A 
ATOM      9  C   UNL     1      -7.549  -1.571 125.850  0.00  0.00    +0.000 A 
ATOM     10 CL   UNL     1      -8.053  -2.248 127.369  0.00  0.00    +0.000 Cl
ATOM     11  C   UNL     1      -7.735  -2.334 124.684  0.00  0.00    +0.000 A 
ATOM     12 CL   UNL     1      -8.358  -3.951 124.715  0.00  0.00    +0.000 Cl
ATOM     13  C   UNL     1      -7.422  -1.803 123.432  0.00  0.00    +0.000 A 
ATOM     14  C   UNL     1      -6.921  -0.512 123.334  0.00  0.00    +0.000 A 
ATOM     15  C   UNL     1      -6.729   0.246 124.489  0.00  0.00    +0.000 A 
ENDBRANCH   5   8
ENDBRANCH   1   2
BRANCH   1  16
ATOM     16  C   UNL     1      -6.251   4.179 130.060  0.00  0.00    +0.000 C 
BRANCH  16  20
ATOM     17  C   UNL     1      -9.122   6.194 130.250  0.00  0.00    +0.000 C 
ATOM     18  C   UNL     1      -7.863   6.485 131.049  0.00  0.00    +0.000 C 
ATOM     19  C   UNL     1      -7.478   5.307 131.911  0.00  0.00    +0.000 C 
ATOM     20  C   UNL     1      -7.389   4.025 131.070  0.00  0.00    +0.000 C 
ATOM     21  C   UNL     1      -8.705   3.721 130.345  0.00  0.00    +0.000 C 
ATOM     22  C   UNL     1      -9.118   4.886 129.461  0.00  0.00    +0.000 C 
BRANCH  17  28
ATOM     23  C   UNL     1     -12.860   8.608 129.716  0.00  0.00    +0.000 C 
ATOM     24  N   UNL     1     -11.627   7.854 129.807  0.00  0.00    +0.000 N 
ATOM     25  C   UNL     1     -10.648   8.163 128.788  0.00  0.00    +0.000 C 
ATOM     26  C   UNL     1     -11.480   6.985 130.863  0.00  0.00    +0.000 C 
ATOM     27  O   UNL     1     -12.384   6.790 131.689  0.00  0.00    +0.000 OA
ATOM     28  N   UNL     1     -10.324   6.306 131.059  0.00  0.00    +0.000 N 
ATOM     29  H   UNL     1     -10.415   5.656 131.833  0.00  0.00    +0.000 HD
ENDBRANCH  17  28
ENDBRANCH  16  20
ENDBRANCH   1  16
TORSDOF 5
ENDMDL
MODEL 9
REMARK VINA RESULT:      -7.0      3.690      4.393
REMARK  Name = Cariprazine
REMARK  7 active torsions:
REMARK  status: ('A' for Active; 'I' for Inactive)
REMARK    1  A    between atoms: C_1  and  N_2
REMARK    2  A    between atoms: N_2  and  C_3
REMARK    3  A    between atoms: N_6  and  C_7
REMARK    4  A    between atoms: C_10  and  C_11
REMARK    5  A    between atoms: C_11  and  C_12
REMARK    6  A    between atoms: C_12  and  N_13
REMARK    7  A    between atoms: N_16  and  C_19
REMARK                            x       y       z     vdW  Elec       q    Type
REMARK                         _______ _______ _______ _____ _____    ______ ____
ROOT
ATOM      1  C   UNL     1      -6.052   2.953 131.545  0.00  0.00    +0.000 C 
ENDROOT
BRANCH   1   2
ATOM      2  N   UNL     1      -5.772   2.091 130.391  0.00  0.00    +0.000 NA
ATOM      3  C   UNL     1      -4.588   1.215 130.595  0.00  0.00    +0.000 C 
ATOM      4  C   UNL     1      -4.744   0.246 131.792  0.00  0.00    +0.000 C 
ATOM      5  N   UNL     1      -5.952  -0.567 131.605  0.00  0.00    +0.000 N 
ATOM      6  C   UNL     1      -7.184   0.164 131.278  0.00  0.00    +0.000 C 
ATOM      7  C   UNL     1      -6.945   1.212 130.157  0.00  0.00    +0.000 C 
BRANCH   5   8
ATOM      8  C   UNL     1      -5.853  -1.943 131.504  0.00  0.00    +0.000 A 
ATOM      9  C   UNL     1      -5.835  -2.845 132.595  0.00  0.00    +0.000 A 
ATOM     10 CL   UNL     1      -6.065  -2.289 134.226  0.00  0.00    +0.000 Cl
ATOM     11  C   UNL     1      -5.700  -4.227 132.373  0.00  0.00    +0.000 A 
ATOM     12 CL   UNL     1      -5.661  -5.382 133.666  0.00  0.00    +0.000 Cl
ATOM     13  C   UNL     1      -5.595  -4.730 131.077  0.00  0.00    +0.000 A 
ATOM     14  C   UNL     1      -5.622  -3.862 129.993  0.00  0.00    +0.000 A 
ATOM     15  C   UNL     1      -5.750  -2.489 130.209  0.00  0.00    +0.000 A 
ENDBRANCH   5   8
ENDBRANCH   1   2
BRANCH   1  16
ATOM     16  C   UNL     1      -6.864   4.173 131.156  0.00  0.00    +0.000 C 
BRANCH  16  20
ATOM     17  C   UNL     1      -9.758   6.024 130.417  0.00  0.00    +0.000 C 
ATOM     18  C   UNL     1      -8.560   6.628 131.130  0.00  0.00    +0.000 C 
ATOM     19  C   UNL     1      -8.227   5.858 132.386  0.00  0.00    +0.000 C 
ATOM     20  C   UNL     1      -8.069   4.362 132.081  0.00  0.00    +0.000 C 
ATOM     21  C   UNL     1      -9.329   3.770 131.437  0.00  0.00    +0.000 C 
ATOM     22  C   UNL     1      -9.689   4.518 130.163  0.00  0.00    +0.000 C 
BRANCH  17  28
ATOM     23  C   UNL     1     -12.884   9.048 129.339  0.00  0.00    +0.000 C 
ATOM     24  N   UNL     1     -11.834   8.088 129.610  0.00  0.00    +0.000 N 
ATOM     25  C   UNL     1     -10.690   8.175 128.729  0.00  0.00    +0.000 C 
ATOM     26  C   UNL     1     -11.990   7.251 130.689  0.00  0.00    +0.000 C 
ATOM     27  O   UNL     1     -13.014   7.256 131.387  0.00  0.00    +0.000 OA
ATOM     28  N   UNL     1     -11.014   6.383 131.052  0.00  0.00    +0.000 N 
ATOM     29  H   UNL     1     -11.324   5.792 131.816  0.00  0.00    +0.000 HD
ENDBRANCH  17  28
ENDBRANCH  16  20
ENDBRANCH   1  16
TORSDOF 5
ENDMDL
