MODEL 1
REMARK VINA RESULT:      -5.0      0.000      0.000
REMARK  Name = Carmustine
REMARK  5 active torsions:
REMARK  status: ('A' for Active; 'I' for Inactive)
REMARK    1  A    between atoms: C_2  and  C_3
REMARK    2  A    between atoms: C_3  and  N_4
REMARK    3  A    between atoms: N_7  and  C_8
REMARK    4  A    between atoms: N_7  and  N_11
REMARK    5  A    between atoms: C_8  and  C_9
REMARK                            x       y       z     vdW  Elec       q    Type
REMARK                         _______ _______ _______ _____ _____    ______ ____
ROOT
ATOM      1  N   UNL     1      -9.986   7.107 130.043  0.00  0.00    +0.000 N 
ATOM      2  C   UNL     1      -9.985   6.676 128.738  0.00  0.00    +0.000 C 
ATOM      3  O   UNL     1      -9.312   5.674 128.455  0.00  0.00    +0.000 OA
ATOM      4  N   UNL     1     -10.746   7.392 127.793  0.00  0.00    +0.000 N 
ATOM      5  H   UNL     1     -10.490   7.891 130.359  0.00  0.00    +0.000 HD
ENDROOT
BRANCH   4   6
ATOM      6  N   UNL     1     -10.663   6.850 126.479  0.00  0.00    +0.000 NA
ATOM      7  O   UNL     1     -10.883   7.661 125.572  0.00  0.00    +0.000 OA
ENDBRANCH   4   6
BRANCH   1   8
ATOM      8  C   UNL     1      -9.269   6.505 131.157  0.00  0.00    +0.000 C 
BRANCH   8  10
ATOM      9 CL   UNL     1     -11.914   6.544 131.860  0.00  0.00    +0.000 Cl
ATOM     10  C   UNL     1     -10.260   6.044 132.240  0.00  0.00    +0.000 C 
ENDBRANCH   8  10
ENDBRANCH   1   8
BRANCH   4  11
ATOM     11  C   UNL     1     -11.612   8.607 127.933  0.00  0.00    +0.000 C 
BRANCH  11  12
ATOM     12  C   UNL     1     -12.982   8.374 128.523  0.00  0.00    +0.000 C 
ATOM     13 CL   UNL     1     -13.887   6.996 127.907  0.00  0.00    +0.000 Cl
ENDBRANCH  11  12
ENDBRANCH   4  11
TORSDOF 5
ENDMDL
MODEL 2
REMARK VINA RESULT:      -4.8      2.417      4.218
REMARK  Name = Carmustine
REMARK  5 active torsions:
REMARK  status: ('A' for Active; 'I' for Inactive)
REMARK    1  A    between atoms: C_2  and  C_3
REMARK    2  A    between atoms: C_3  and  N_4
REMARK    3  A    between atoms: N_7  and  C_8
REMARK    4  A    between atoms: N_7  and  N_11
REMARK    5  A    between atoms: C_8  and  C_9
REMARK                            x       y       z     vdW  Elec       q    Type
REMARK                         _______ _______ _______ _____ _____    ______ ____
ROOT
ATOM      1  N   UNL     1     -12.092   8.321 129.253  0.00  0.00    +0.000 N 
ATOM      2  C   UNL     1     -11.165   7.787 128.390  0.00  0.00    +0.000 C 
ATOM      3  O   UNL     1     -11.033   8.316 127.276  0.00  0.00    +0.000 OA
ATOM      4  N   UNL     1     -10.416   6.672 128.813  0.00  0.00    +0.000 N 
ATOM      5  H   UNL     1     -12.264   7.968 130.156  0.00  0.00    +0.000 HD
ENDROOT
BRANCH   4   6
ATOM      6  N   UNL     1      -9.492   6.211 127.832  0.00  0.00    +0.000 NA
ATOM      7  O   UNL     1      -8.918   5.155 128.121  0.00  0.00    +0.000 OA
ENDBRANCH   4   6
BRANCH   1   8
ATOM      8  C   UNL     1     -12.956   9.464 129.002  0.00  0.00    +0.000 C 
BRANCH   8  10
ATOM      9 CL   UNL     1     -13.739  11.896 129.983  0.00  0.00    +0.000 Cl
ATOM     10  C   UNL     1     -13.201  10.243 130.307  0.00  0.00    +0.000 C 
ENDBRANCH   8  10
ENDBRANCH   1   8
BRANCH   4  11
ATOM     11  C   UNL     1     -10.427   5.900 130.097  0.00  0.00    +0.000 C 
BRANCH  11  12
ATOM     12  C   UNL     1      -9.637   6.502 131.234  0.00  0.00    +0.000 C 
ATOM     13 CL   UNL     1      -8.026   7.100 130.851  0.00  0.00    +0.000 Cl
ENDBRANCH  11  12
ENDBRANCH   4  11
TORSDOF 5
ENDMDL
MODEL 3
REMARK VINA RESULT:      -4.7      2.082      2.144
REMARK  Name = Carmustine
REMARK  5 active torsions:
REMARK  status: ('A' for Active; 'I' for Inactive)
REMARK    1  A    between atoms: C_2  and  C_3
REMARK    2  A    between atoms: C_3  and  N_4
REMARK    3  A    between atoms: N_7  and  C_8
REMARK    4  A    between atoms: N_7  and  N_11
REMARK    5  A    between atoms: C_8  and  C_9
REMARK                            x       y       z     vdW  Elec       q    Type
REMARK                         _______ _______ _______ _____ _____    ______ ____
ROOT
ATOM      1  N   UNL     1     -11.501   6.981 130.785  0.00  0.00    +0.000 N 
ATOM      2  C   UNL     1     -11.707   6.417 129.549  0.00  0.00    +0.000 C 
ATOM      3  O   UNL     1     -11.706   5.180 129.465  0.00  0.00    +0.000 OA
ATOM      4  N   UNL     1     -11.909   7.268 128.445  0.00  0.00    +0.000 N 
ATOM      5  H   UNL     1     -11.486   7.953 130.945  0.00  0.00    +0.000 HD
ENDROOT
BRANCH   4   6
ATOM      6  N   UNL     1     -12.111   6.565 127.223  0.00  0.00    +0.000 NA
ATOM      7  O   UNL     1     -11.325   6.870 126.319  0.00  0.00    +0.000 OA
ENDBRANCH   4   6
BRANCH   1   8
ATOM      8  C   UNL     1     -11.275   6.275 132.036  0.00  0.00    +0.000 C 
BRANCH   8  10
ATOM      9 CL   UNL     1      -9.440   4.586 133.163  0.00  0.00    +0.000 Cl
ATOM     10  C   UNL     1      -9.767   6.080 132.273  0.00  0.00    +0.000 C 
ENDBRANCH   8  10
ENDBRANCH   1   8
BRANCH   4  11
ATOM     11  C   UNL     1     -11.947   8.763 128.340  0.00  0.00    +0.000 C 
BRANCH  11  12
ATOM     12  C   UNL     1     -13.264   9.414 128.688  0.00  0.00    +0.000 C 
ATOM     13 CL   UNL     1     -13.261  10.531 130.049  0.00  0.00    +0.000 Cl
ENDBRANCH  11  12
ENDBRANCH   4  11
TORSDOF 5
ENDMDL
MODEL 4
REMARK VINA RESULT:      -4.6      3.118      5.013
REMARK  Name = Carmustine
REMARK  5 active torsions:
REMARK  status: ('A' for Active; 'I' for Inactive)
REMARK    1  A    between atoms: C_2  and  C_3
REMARK    2  A    between atoms: C_3  and  N_4
REMARK    3  A    between atoms: N_7  and  C_8
REMARK    4  A    between atoms: N_7  and  N_11
REMARK    5  A    between atoms: C_8  and  C_9
REMARK                            x       y       z     vdW  Elec       q    Type
REMARK                         _______ _______ _______ _____ _____    ______ ____
ROOT
ATOM      1  N   UNL     1     -12.164   6.693 129.479  0.00  0.00    +0.000 N 
ATOM      2  C   UNL     1     -11.906   6.671 130.828  0.00  0.00    +0.000 C 
ATOM      3  O   UNL     1     -12.832   6.949 131.604  0.00  0.00    +0.000 OA
ATOM      4  N   UNL     1     -10.608   6.335 131.260  0.00  0.00    +0.000 N 
ATOM      5  H   UNL     1     -11.490   6.486 128.791  0.00  0.00    +0.000 HD
ENDROOT
BRANCH   4   6
ATOM      6  N   UNL     1     -10.466   6.347 132.677  0.00  0.00    +0.000 NA
ATOM      7  O   UNL     1      -9.298   6.294 133.078  0.00  0.00    +0.000 OA
ENDBRANCH   4   6
BRANCH   1   8
ATOM      8  C   UNL     1     -13.431   7.013 128.842  0.00  0.00    +0.000 C 
BRANCH   8  10
ATOM      9 CL   UNL     1     -13.043   9.686 129.283  0.00  0.00    +0.000 Cl
ATOM     10  C   UNL     1     -13.341   8.376 128.132  0.00  0.00    +0.000 C 
ENDBRANCH   8  10
ENDBRANCH   1   8
BRANCH   4  11
ATOM     11  C   UNL     1      -9.371   5.974 130.495  0.00  0.00    +0.000 C 
BRANCH  11  12
ATOM     12  C   UNL     1      -9.337   4.577 129.920  0.00  0.00    +0.000 C 
ATOM     13 CL   UNL     1     -10.518   3.433 130.547  0.00  0.00    +0.000 Cl
ENDBRANCH  11  12
ENDBRANCH   4  11
TORSDOF 5
ENDMDL
MODEL 5
REMARK VINA RESULT:      -4.5      8.988      9.864
REMARK  Name = Carmustine
REMARK  5 active torsions:
REMARK  status: ('A' for Active; 'I' for Inactive)
REMARK    1  A    between atoms: C_2  and  C_3
REMARK    2  A    between atoms: C_3  and  N_4
REMARK    3  A    between atoms: N_7  and  C_8
REMARK    4  A    between atoms: N_7  and  N_11
REMARK    5  A    between atoms: C_8  and  C_9
REMARK                            x       y       z     vdW  Elec       q    Type
REMARK                         _______ _______ _______ _____ _____    ______ ____
ROOT
ATOM      1  N   UNL     1      -6.945   2.142 122.839  0.00  0.00    +0.000 N 
ATOM      2  C   UNL     1      -8.294   1.979 123.043  0.00  0.00    +0.000 C 
ATOM      3  O   UNL     1      -9.016   2.985 123.004  0.00  0.00    +0.000 OA
ATOM      4  N   UNL     1      -8.786   0.681 123.284  0.00  0.00    +0.000 N 
ATOM      5  H   UNL     1      -6.297   1.400 122.852  0.00  0.00    +0.000 HD
ENDROOT
BRANCH   4   6
ATOM      6  N   UNL     1     -10.196   0.641 123.480  0.00  0.00    +0.000 NA
ATOM      7  O   UNL     1     -10.847   0.332 122.476  0.00  0.00    +0.000 OA
ENDBRANCH   4   6
BRANCH   1   8
ATOM      8  C   UNL     1      -6.252   3.393 122.576  0.00  0.00    +0.000 C 
BRANCH   8  10
ATOM      9 CL   UNL     1      -7.172   4.072 120.090  0.00  0.00    +0.000 Cl
ATOM     10  C   UNL     1      -5.844   3.474 121.094  0.00  0.00    +0.000 C 
ENDBRANCH   8  10
ENDBRANCH   1   8
BRANCH   4  11
ATOM     11  C   UNL     1      -8.089  -0.643 123.370  0.00  0.00    +0.000 C 
BRANCH  11  12
ATOM     12  C   UNL     1      -8.757  -1.684 124.237  0.00  0.00    +0.000 C 
ATOM     13 CL   UNL     1      -9.469  -3.066 123.411  0.00  0.00    +0.000 Cl
ENDBRANCH  11  12
ENDBRANCH   4  11
TORSDOF 5
ENDMDL
MODEL 6
REMARK VINA RESULT:      -4.5     10.085     10.805
REMARK  Name = Carmustine
REMARK  5 active torsions:
REMARK  status: ('A' for Active; 'I' for Inactive)
REMARK    1  A    between atoms: C_2  and  C_3
REMARK    2  A    between atoms: C_3  and  N_4
REMARK    3  A    between atoms: N_7  and  C_8
REMARK    4  A    between atoms: N_7  and  N_11
REMARK    5  A    between atoms: C_8  and  C_9
REMARK                            x       y       z     vdW  Elec       q    Type
REMARK                         _______ _______ _______ _____ _____    ______ ____
ROOT
ATOM      1  N   UNL     1      -7.068  -1.968 123.947  0.00  0.00    +0.000 N 
ATOM      2  C   UNL     1      -8.310  -1.897 123.365  0.00  0.00    +0.000 C 
ATOM      3  O   UNL     1      -8.877  -2.959 123.068  0.00  0.00    +0.000 OA
ATOM      4  N   UNL     1      -8.873  -0.626 123.134  0.00  0.00    +0.000 N 
ATOM      5  H   UNL     1      -6.544  -1.178 124.216  0.00  0.00    +0.000 HD
ENDROOT
BRANCH   4   6
ATOM      6  N   UNL     1     -10.160  -0.684 122.526  0.00  0.00    +0.000 NA
ATOM      7  O   UNL     1     -10.783   0.384 122.538  0.00  0.00    +0.000 OA
ENDBRANCH   4   6
BRANCH   1   8
ATOM      8  C   UNL     1      -6.325  -3.178 124.265  0.00  0.00    +0.000 C 
BRANCH   8  10
ATOM      9 CL   UNL     1      -4.285  -4.823 123.476  0.00  0.00    +0.000 Cl
ATOM     10  C   UNL     1      -4.994  -3.202 123.492  0.00  0.00    +0.000 C 
ENDBRANCH   8  10
ENDBRANCH   1   8
BRANCH   4  11
ATOM     11  C   UNL     1      -8.357   0.752 123.415  0.00  0.00    +0.000 C 
BRANCH  11  12
ATOM     12  C   UNL     1      -8.413   1.195 124.858  0.00  0.00    +0.000 C 
ATOM     13 CL   UNL     1      -9.702   0.516 125.846  0.00  0.00    +0.000 Cl
ENDBRANCH  11  12
ENDBRANCH   4  11
TORSDOF 5
ENDMDL
MODEL 7
REMARK VINA RESULT:      -4.5      2.487      4.456
REMARK  Name = Carmustine
REMARK  5 active torsions:
REMARK  status: ('A' for Active; 'I' for Inactive)
REMARK    1  A    between atoms: C_2  and  C_3
REMARK    2  A    between atoms: C_3  and  N_4
REMARK    3  A    between atoms: N_7  and  C_8
REMARK    4  A    between atoms: N_7  and  N_11
REMARK    5  A    between atoms: C_8  and  C_9
REMARK                            x       y       z     vdW  Elec       q    Type
REMARK                         _______ _______ _______ _____ _____    ______ ____
ROOT
ATOM      1  N   UNL     1     -11.693   7.968 129.500  0.00  0.00    +0.000 N 
ATOM      2  C   UNL     1     -11.729   6.601 129.367  0.00  0.00    +0.000 C 
ATOM      3  O   UNL     1     -12.104   6.130 128.284  0.00  0.00    +0.000 OA
ATOM      4  N   UNL     1     -11.339   5.808 130.464  0.00  0.00    +0.000 N 
ATOM      5  H   UNL     1     -11.408   8.430 130.322  0.00  0.00    +0.000 HD
ENDROOT
BRANCH   4   6
ATOM      6  N   UNL     1     -11.421   4.410 130.204  0.00  0.00    +0.000 NA
ATOM      7  O   UNL     1     -10.370   3.899 129.800  0.00  0.00    +0.000 OA
ENDBRANCH   4   6
BRANCH   1   8
ATOM      8  C   UNL     1     -12.053   8.949 128.488  0.00  0.00    +0.000 C 
BRANCH   8  10
ATOM      9 CL   UNL     1     -13.267  10.059 130.676  0.00  0.00    +0.000 Cl
ATOM     10  C   UNL     1     -13.293   9.744 128.936  0.00  0.00    +0.000 C 
ENDBRANCH   8  10
ENDBRANCH   1   8
BRANCH   4  11
ATOM     11  C   UNL     1     -10.863   6.178 131.836  0.00  0.00    +0.000 C 
BRANCH  11  12
ATOM     12  C   UNL     1      -9.365   6.209 132.026  0.00  0.00    +0.000 C 
ATOM     13 CL   UNL     1      -8.426   7.038 130.789  0.00  0.00    +0.000 Cl
ENDBRANCH  11  12
ENDBRANCH   4  11
TORSDOF 5
ENDMDL
MODEL 8
REMARK VINA RESULT:      -4.4      2.124      4.442
REMARK  Name = Carmustine
REMARK  5 active torsions:
REMARK  status: ('A' for Active; 'I' for Inactive)
REMARK    1  A    between atoms: C_2  and  C_3
REMARK    2  A    between atoms: C_3  and  N_4
REMARK    3  A    between atoms: N_7  and  C_8
REMARK    4  A    between atoms: N_7  and  N_11
REMARK    5  A    between atoms: C_8  and  C_9
REMARK                            x       y       z     vdW  Elec       q    Type
REMARK                         _______ _______ _______ _____ _____    ______ ____
ROOT
ATOM      1  N   UNL     1     -11.692   7.804 129.863  0.00  0.00    +0.000 N 
ATOM      2  C   UNL     1     -10.365   7.600 129.570  0.00  0.00    +0.000 C 
ATOM      3  O   UNL     1      -9.919   8.081 128.518  0.00  0.00    +0.000 OA
ATOM      4  N   UNL     1      -9.583   6.856 130.475  0.00  0.00    +0.000 N 
ATOM      5  H   UNL     1     -12.132   7.460 130.674  0.00  0.00    +0.000 HD
ENDROOT
BRANCH   4   6
ATOM      6  N   UNL     1      -8.228   6.713 130.061  0.00  0.00    +0.000 NA
ATOM      7  O   UNL     1      -7.420   7.400 130.696  0.00  0.00    +0.000 OA
ENDBRANCH   4   6
BRANCH   1   8
ATOM      8  C   UNL     1     -12.656   8.540 129.060  0.00  0.00    +0.000 C 
BRANCH   8  10
ATOM      9 CL   UNL     1     -12.722   7.055 126.762  0.00  0.00    +0.000 Cl
ATOM     10  C   UNL     1     -13.530   7.565 128.250  0.00  0.00    +0.000 C 
ENDBRANCH   8  10
ENDBRANCH   1   8
BRANCH   4  11
ATOM     11  C   UNL     1      -9.929   6.201 131.778  0.00  0.00    +0.000 C 
BRANCH  11  12
ATOM     12  C   UNL     1      -9.885   4.692 131.788  0.00  0.00    +0.000 C 
ATOM     13 CL   UNL     1     -10.704   3.867 130.466  0.00  0.00    +0.000 Cl
ENDBRANCH  11  12
ENDBRANCH   4  11
TORSDOF 5
ENDMDL
MODEL 9
REMARK VINA RESULT:      -4.4      2.627      2.829
REMARK  Name = Carmustine
REMARK  5 active torsions:
REMARK  status: ('A' for Active; 'I' for Inactive)
REMARK    1  A    between atoms: C_2  and  C_3
REMARK    2  A    between atoms: C_3  and  N_4
REMARK    3  A    between atoms: N_7  and  C_8
REMARK    4  A    between atoms: N_7  and  N_11
REMARK    5  A    between atoms: C_8  and  C_9
REMARK                            x       y       z     vdW  Elec       q    Type
REMARK                         _______ _______ _______ _____ _____    ______ ____
ROOT
ATOM      1  N   UNL     1     -10.850   6.225 130.002  0.00  0.00    +0.000 N 
ATOM      2  C   UNL     1     -11.776   7.234 130.120  0.00  0.00    +0.000 C 
ATOM      3  O   UNL     1     -12.613   7.153 131.031  0.00  0.00    +0.000 OA
ATOM      4  N   UNL     1     -11.727   8.303 129.205  0.00  0.00    +0.000 N 
ATOM      5  H   UNL     1     -10.149   6.206 129.310  0.00  0.00    +0.000 HD
ENDROOT
BRANCH   4   6
ATOM      6  N   UNL     1     -12.737   9.282 129.430  0.00  0.00    +0.000 NA
ATOM      7  O   UNL     1     -13.493   9.472 128.471  0.00  0.00    +0.000 OA
ENDBRANCH   4   6
BRANCH   1   8
ATOM      8  C   UNL     1     -10.737   5.045 130.845  0.00  0.00    +0.000 C 
BRANCH   8  10
ATOM      9 CL   UNL     1      -8.537   6.492 131.591  0.00  0.00    +0.000 Cl
ATOM     10  C   UNL     1      -9.792   5.324 132.027  0.00  0.00    +0.000 C 
ENDBRANCH   8  10
ENDBRANCH   1   8
BRANCH   4  11
ATOM     11  C   UNL     1     -10.809   8.581 128.053  0.00  0.00    +0.000 C 
BRANCH  11  12
ATOM     12  C   UNL     1     -10.966   7.676 126.854  0.00  0.00    +0.000 C 
ATOM     13 CL   UNL     1     -12.560   6.980 126.589  0.00  0.00    +0.000 Cl
ENDBRANCH  11  12
ENDBRANCH   4  11
TORSDOF 5
ENDMDL
