MODEL 1
REMARK VINA RESULT:      -7.8      0.000      0.000
REMARK  Name = Carprofen
REMARK  4 active torsions:
REMARK  status: ('A' for Active; 'I' for Inactive)
REMARK    1  A    between atoms: C_1  and  C_2
REMARK    2  A    between atoms: C_2  and  C_3
REMARK    3  A    between atoms: C_2  and  C_6
REMARK    4  A    between atoms: C_3  and  O_4
REMARK                            x       y       z     vdW  Elec       q    Type
REMARK                         _______ _______ _______ _____ _____    ______ ____
ROOT
ATOM      1  C   UNL     1     -11.400   7.644 129.608  0.00  0.00    +0.000 A 
ATOM      2  C   UNL     1     -11.753   6.815 130.687  0.00  0.00    +0.000 A 
ATOM      3  C   UNL     1     -10.705   6.314 131.468  0.00  0.00    +0.000 A 
ATOM      4  C   UNL     1      -9.367   6.605 131.211  0.00  0.00    +0.000 A 
ATOM      5  C   UNL     1      -9.033   7.423 130.123  0.00  0.00    +0.000 A 
ATOM      6  C   UNL     1     -10.053   7.929 129.335  0.00  0.00    +0.000 A 
ATOM      7  C   UNL     1      -8.583   5.948 132.198  0.00  0.00    +0.000 A 
ATOM      8  C   UNL     1      -9.454   5.255 133.033  0.00  0.00    +0.000 A 
ATOM      9  N   UNL     1     -10.730   5.502 132.580  0.00  0.00    +0.000 N 
ATOM     10  C   UNL     1      -9.006   4.477 134.103  0.00  0.00    +0.000 A 
ATOM     11  C   UNL     1      -7.626   4.430 134.329  0.00  0.00    +0.000 A 
ATOM     12  C   UNL     1      -6.739   5.129 133.513  0.00  0.00    +0.000 A 
ATOM     13 CL   UNL     1      -5.049   5.066 133.832  0.00  0.00    +0.000 Cl
ATOM     14  C   UNL     1      -7.197   5.886 132.437  0.00  0.00    +0.000 A 
ATOM     15  H   UNL     1     -11.570   5.135 133.004  0.00  0.00    +0.000 HD
ENDROOT
BRANCH   1  17
ATOM     16  C   UNL     1     -13.567   7.272 128.496  0.00  0.00    +0.000 C 
ATOM     17  C   UNL     1     -12.466   8.310 128.756  0.00  0.00    +0.000 C 
BRANCH  17  18
ATOM     18  C   UNL     1     -13.074   9.583 129.344  0.00  0.00    +0.000 C 
ATOM     19  O   UNL     1     -13.041   9.827 130.548  0.00  0.00    +0.000 OA
BRANCH  18  20
ATOM     20  O   UNL     1     -13.666  10.451 128.494  0.00  0.00    +0.000 OA
ATOM     21  H   UNL     1     -13.148  10.716 127.709  0.00  0.00    +0.000 HD
ENDBRANCH  18  20
ENDBRANCH  17  18
ENDBRANCH   1  17
TORSDOF 3
ENDMDL
MODEL 2
REMARK VINA RESULT:      -7.4      1.927      2.691
REMARK  Name = Carprofen
REMARK  4 active torsions:
REMARK  status: ('A' for Active; 'I' for Inactive)
REMARK    1  A    between atoms: C_1  and  C_2
REMARK    2  A    between atoms: C_2  and  C_3
REMARK    3  A    between atoms: C_2  and  C_6
REMARK    4  A    between atoms: C_3  and  O_4
REMARK                            x       y       z     vdW  Elec       q    Type
REMARK                         _______ _______ _______ _____ _____    ______ ____
ROOT
ATOM      1  C   UNL     1     -11.232   7.235 129.824  0.00  0.00    +0.000 A 
ATOM      2  C   UNL     1      -9.857   7.381 129.571  0.00  0.00    +0.000 A 
ATOM      3  C   UNL     1      -8.980   6.951 130.573  0.00  0.00    +0.000 A 
ATOM      4  C   UNL     1      -9.420   6.402 131.776  0.00  0.00    +0.000 A 
ATOM      5  C   UNL     1     -10.795   6.275 132.017  0.00  0.00    +0.000 A 
ATOM      6  C   UNL     1     -11.682   6.695 131.039  0.00  0.00    +0.000 A 
ATOM      7  C   UNL     1      -8.274   6.068 132.546  0.00  0.00    +0.000 A 
ATOM      8  C   UNL     1      -7.151   6.432 131.807  0.00  0.00    +0.000 A 
ATOM      9  N   UNL     1      -7.604   6.951 130.614  0.00  0.00    +0.000 N 
ATOM     10  C   UNL     1      -5.851   6.261 132.286  0.00  0.00    +0.000 A 
ATOM     11  C   UNL     1      -5.704   5.682 133.552  0.00  0.00    +0.000 A 
ATOM     12  C   UNL     1      -6.815   5.297 134.300  0.00  0.00    +0.000 A 
ATOM     13 CL   UNL     1      -6.597   4.568 135.844  0.00  0.00    +0.000 Cl
ATOM     14  C   UNL     1      -8.108   5.490 133.819  0.00  0.00    +0.000 A 
ATOM     15  H   UNL     1      -7.007   7.287 129.872  0.00  0.00    +0.000 HD
ENDROOT
BRANCH   1  17
ATOM     16  C   UNL     1     -12.799   8.988 129.088  0.00  0.00    +0.000 C 
ATOM     17  C   UNL     1     -12.261   7.586 128.765  0.00  0.00    +0.000 C 
BRANCH  17  18
ATOM     18  C   UNL     1     -11.761   7.536 127.321  0.00  0.00    +0.000 C 
ATOM     19  O   UNL     1     -11.012   8.395 126.860  0.00  0.00    +0.000 OA
BRANCH  18  20
ATOM     20  O   UNL     1     -12.173   6.510 126.546  0.00  0.00    +0.000 OA
ATOM     21  H   UNL     1     -11.489   5.870 126.267  0.00  0.00    +0.000 HD
ENDBRANCH  18  20
ENDBRANCH  17  18
ENDBRANCH   1  17
TORSDOF 3
ENDMDL
MODEL 3
REMARK VINA RESULT:      -7.2      4.462      7.011
REMARK  Name = Carprofen
REMARK  4 active torsions:
REMARK  status: ('A' for Active; 'I' for Inactive)
REMARK    1  A    between atoms: C_1  and  C_2
REMARK    2  A    between atoms: C_2  and  C_3
REMARK    3  A    between atoms: C_2  and  C_6
REMARK    4  A    between atoms: C_3  and  O_4
REMARK                            x       y       z     vdW  Elec       q    Type
REMARK                         _______ _______ _______ _____ _____    ______ ____
ROOT
ATOM      1  C   UNL     1      -6.831   5.563 133.254  0.00  0.00    +0.000 A 
ATOM      2  C   UNL     1      -8.183   5.431 133.617  0.00  0.00    +0.000 A 
ATOM      3  C   UNL     1      -9.132   5.923 132.714  0.00  0.00    +0.000 A 
ATOM      4  C   UNL     1      -8.783   6.521 131.505  0.00  0.00    +0.000 A 
ATOM      5  C   UNL     1      -7.430   6.656 131.164  0.00  0.00    +0.000 A 
ATOM      6  C   UNL     1      -6.473   6.178 132.044  0.00  0.00    +0.000 A 
ATOM      7  C   UNL     1      -9.983   6.888 130.839  0.00  0.00    +0.000 A 
ATOM      8  C   UNL     1     -11.046   6.520 131.659  0.00  0.00    +0.000 A 
ATOM      9  N   UNL     1     -10.507   5.928 132.779  0.00  0.00    +0.000 N 
ATOM     10  C   UNL     1     -12.378   6.760 131.313  0.00  0.00    +0.000 A 
ATOM     11  C   UNL     1     -12.619   7.377 130.080  0.00  0.00    +0.000 A 
ATOM     12  C   UNL     1     -11.569   7.739 129.238  0.00  0.00    +0.000 A 
ATOM     13 CL   UNL     1     -11.902   8.477 127.720  0.00  0.00    +0.000 Cl
ATOM     14  C   UNL     1     -10.244   7.512 129.605  0.00  0.00    +0.000 A 
ATOM     15  H   UNL     1     -11.046   5.551 133.544  0.00  0.00    +0.000 HD
ENDROOT
BRANCH   1  17
ATOM     16  C   UNL     1      -6.383   4.458 135.409  0.00  0.00    +0.000 C 
ATOM     17  C   UNL     1      -5.730   4.980 134.121  0.00  0.00    +0.000 C 
BRANCH  17  18
ATOM     18  C   UNL     1      -4.896   3.877 133.471  0.00  0.00    +0.000 C 
ATOM     19  O   UNL     1      -5.393   2.813 133.104  0.00  0.00    +0.000 OA
BRANCH  18  20
ATOM     20  O   UNL     1      -3.573   4.096 133.310  0.00  0.00    +0.000 OA
ATOM     21  H   UNL     1      -3.295   4.488 132.458  0.00  0.00    +0.000 HD
ENDBRANCH  18  20
ENDBRANCH  17  18
ENDBRANCH   1  17
TORSDOF 3
ENDMDL
MODEL 4
REMARK VINA RESULT:      -7.1     10.609     11.338
REMARK  Name = Carprofen
REMARK  4 active torsions:
REMARK  status: ('A' for Active; 'I' for Inactive)
REMARK    1  A    between atoms: C_1  and  C_2
REMARK    2  A    between atoms: C_2  and  C_3
REMARK    3  A    between atoms: C_2  and  C_6
REMARK    4  A    between atoms: C_3  and  O_4
REMARK                            x       y       z     vdW  Elec       q    Type
REMARK                         _______ _______ _______ _____ _____    ______ ____
ROOT
ATOM      1  C   UNL     1      -8.522  -2.670 126.862  0.00  0.00    +0.000 A 
ATOM      2  C   UNL     1      -7.260  -2.083 127.062  0.00  0.00    +0.000 A 
ATOM      3  C   UNL     1      -6.533  -2.512 128.178  0.00  0.00    +0.000 A 
ATOM      4  C   UNL     1      -7.013  -3.473 129.067  0.00  0.00    +0.000 A 
ATOM      5  C   UNL     1      -8.278  -4.038 128.859  0.00  0.00    +0.000 A 
ATOM      6  C   UNL     1      -9.017  -3.628 127.761  0.00  0.00    +0.000 A 
ATOM      7  C   UNL     1      -6.021  -3.675 130.064  0.00  0.00    +0.000 A 
ATOM      8  C   UNL     1      -4.958  -2.823 129.777  0.00  0.00    +0.000 A 
ATOM      9  N   UNL     1      -5.285  -2.142 128.627  0.00  0.00    +0.000 N 
ATOM     10  C   UNL     1      -3.817  -2.752 130.580  0.00  0.00    +0.000 A 
ATOM     11  C   UNL     1      -3.764  -3.594 131.697  0.00  0.00    +0.000 A 
ATOM     12  C   UNL     1      -4.812  -4.464 131.992  0.00  0.00    +0.000 A 
ATOM     13 CL   UNL     1      -4.705  -5.501 133.361  0.00  0.00    +0.000 Cl
ATOM     14  C   UNL     1      -5.953  -4.512 131.194  0.00  0.00    +0.000 A 
ATOM     15  H   UNL     1      -4.692  -1.461 128.175  0.00  0.00    +0.000 HD
ENDROOT
BRANCH   1  17
ATOM     16  C   UNL     1      -9.005  -0.902 125.215  0.00  0.00    +0.000 C 
ATOM     17  C   UNL     1      -9.349  -2.340 125.632  0.00  0.00    +0.000 C 
BRANCH  17  18
ATOM     18  C   UNL     1      -9.169  -3.287 124.446  0.00  0.00    +0.000 C 
ATOM     19  O   UNL     1      -8.181  -4.011 124.332  0.00  0.00    +0.000 OA
BRANCH  18  20
ATOM     20  O   UNL     1     -10.136  -3.310 123.504  0.00  0.00    +0.000 OA
ATOM     21  H   UNL     1      -9.975  -2.781 122.698  0.00  0.00    +0.000 HD
ENDBRANCH  18  20
ENDBRANCH  17  18
ENDBRANCH   1  17
TORSDOF 3
ENDMDL
MODEL 5
REMARK VINA RESULT:      -7.0     10.494     10.879
REMARK  Name = Carprofen
REMARK  4 active torsions:
REMARK  status: ('A' for Active; 'I' for Inactive)
REMARK    1  A    between atoms: C_1  and  C_2
REMARK    2  A    between atoms: C_2  and  C_3
REMARK    3  A    between atoms: C_2  and  C_6
REMARK    4  A    between atoms: C_3  and  O_4
REMARK                            x       y       z     vdW  Elec       q    Type
REMARK                         _______ _______ _______ _____ _____    ______ ____
ROOT
ATOM      1  C   UNL     1      -8.117  -2.424 125.066  0.00  0.00    +0.000 A 
ATOM      2  C   UNL     1      -6.816  -2.076 125.466  0.00  0.00    +0.000 A 
ATOM      3  C   UNL     1      -6.492  -2.279 126.812  0.00  0.00    +0.000 A 
ATOM      4  C   UNL     1      -7.397  -2.798 127.736  0.00  0.00    +0.000 A 
ATOM      5  C   UNL     1      -8.695  -3.128 127.322  0.00  0.00    +0.000 A 
ATOM      6  C   UNL     1      -9.038  -2.935 125.994  0.00  0.00    +0.000 A 
ATOM      7  C   UNL     1      -6.737  -2.881 128.991  0.00  0.00    +0.000 A 
ATOM      8  C   UNL     1      -5.444  -2.397 128.818  0.00  0.00    +0.000 A 
ATOM      9  N   UNL     1      -5.316  -2.052 127.491  0.00  0.00    +0.000 N 
ATOM     10  C   UNL     1      -4.527  -2.316 129.868  0.00  0.00    +0.000 A 
ATOM     11  C   UNL     1      -4.949  -2.764 131.125  0.00  0.00    +0.000 A 
ATOM     12  C   UNL     1      -6.235  -3.266 131.315  0.00  0.00    +0.000 A 
ATOM     13 CL   UNL     1      -6.715  -3.829 132.869  0.00  0.00    +0.000 Cl
ATOM     14  C   UNL     1      -7.147  -3.323 130.263  0.00  0.00    +0.000 A 
ATOM     15  H   UNL     1      -4.475  -1.681 127.073  0.00  0.00    +0.000 HD
ENDROOT
BRANCH   1  17
ATOM     16  C   UNL     1      -9.649  -3.363 123.379  0.00  0.00    +0.000 C 
ATOM     17  C   UNL     1      -8.538  -2.328 123.610  0.00  0.00    +0.000 C 
BRANCH  17  18
ATOM     18  C   UNL     1      -9.004  -0.947 123.151  0.00  0.00    +0.000 C 
ATOM     19  O   UNL     1      -8.306   0.056 123.287  0.00  0.00    +0.000 OA
BRANCH  18  20
ATOM     20  O   UNL     1     -10.227  -0.849 122.586  0.00  0.00    +0.000 OA
ATOM     21  H   UNL     1     -10.991  -0.827 123.196  0.00  0.00    +0.000 HD
ENDBRANCH  18  20
ENDBRANCH  17  18
ENDBRANCH   1  17
TORSDOF 3
ENDMDL
MODEL 6
REMARK VINA RESULT:      -6.8     10.444     11.847
REMARK  Name = Carprofen
REMARK  4 active torsions:
REMARK  status: ('A' for Active; 'I' for Inactive)
REMARK    1  A    between atoms: C_1  and  C_2
REMARK    2  A    between atoms: C_2  and  C_3
REMARK    3  A    between atoms: C_2  and  C_6
REMARK    4  A    between atoms: C_3  and  O_4
REMARK                            x       y       z     vdW  Elec       q    Type
REMARK                         _______ _______ _______ _____ _____    ______ ____
ROOT
ATOM      1  C   UNL     1      -7.285  -2.798 130.158  0.00  0.00    +0.000 A 
ATOM      2  C   UNL     1      -8.383  -3.236 129.398  0.00  0.00    +0.000 A 
ATOM      3  C   UNL     1      -8.282  -3.106 128.008  0.00  0.00    +0.000 A 
ATOM      4  C   UNL     1      -7.158  -2.571 127.380  0.00  0.00    +0.000 A 
ATOM      5  C   UNL     1      -6.078  -2.128 128.155  0.00  0.00    +0.000 A 
ATOM      6  C   UNL     1      -6.156  -2.246 129.533  0.00  0.00    +0.000 A 
ATOM      7  C   UNL     1      -7.389  -2.601 125.978  0.00  0.00    +0.000 A 
ATOM      8  C   UNL     1      -8.656  -3.141 125.773  0.00  0.00    +0.000 A 
ATOM      9  N   UNL     1      -9.169  -3.450 127.013  0.00  0.00    +0.000 N 
ATOM     10  C   UNL     1      -9.208  -3.292 124.499  0.00  0.00    +0.000 A 
ATOM     11  C   UNL     1      -8.426  -2.895 123.409  0.00  0.00    +0.000 A 
ATOM     12  C   UNL     1      -7.150  -2.366 123.593  0.00  0.00    +0.000 A 
ATOM     13 CL   UNL     1      -6.207  -1.907 122.229  0.00  0.00    +0.000 Cl
ATOM     14  C   UNL     1      -6.618  -2.203 124.870  0.00  0.00    +0.000 A 
ATOM     15  H   UNL     1     -10.074  -3.869 127.170  0.00  0.00    +0.000 HD
ENDROOT
BRANCH   1  17
ATOM     16  C   UNL     1      -5.824  -3.359 132.061  0.00  0.00    +0.000 C 
ATOM     17  C   UNL     1      -7.259  -2.980 131.665  0.00  0.00    +0.000 C 
BRANCH  17  18
ATOM     18  C   UNL     1      -7.726  -1.774 132.480  0.00  0.00    +0.000 C 
ATOM     19  O   UNL     1      -7.639  -1.741 133.706  0.00  0.00    +0.000 OA
BRANCH  18  20
ATOM     20  O   UNL     1      -8.252  -0.725 131.811  0.00  0.00    +0.000 OA
ATOM     21  H   UNL     1      -8.358   0.106 132.314  0.00  0.00    +0.000 HD
ENDBRANCH  18  20
ENDBRANCH  17  18
ENDBRANCH   1  17
TORSDOF 3
ENDMDL
MODEL 7
REMARK VINA RESULT:      -6.7      2.152      2.901
REMARK  Name = Carprofen
REMARK  4 active torsions:
REMARK  status: ('A' for Active; 'I' for Inactive)
REMARK    1  A    between atoms: C_1  and  C_2
REMARK    2  A    between atoms: C_2  and  C_3
REMARK    3  A    between atoms: C_2  and  C_6
REMARK    4  A    between atoms: C_3  and  O_4
REMARK                            x       y       z     vdW  Elec       q    Type
REMARK                         _______ _______ _______ _____ _____    ______ ____
ROOT
ATOM      1  C   UNL     1     -10.033   6.621 131.103  0.00  0.00    +0.000 A 
ATOM      2  C   UNL     1     -10.108   6.038 132.379  0.00  0.00    +0.000 A 
ATOM      3  C   UNL     1      -8.898   5.818 133.047  0.00  0.00    +0.000 A 
ATOM      4  C   UNL     1      -7.661   6.152 132.495  0.00  0.00    +0.000 A 
ATOM      5  C   UNL     1      -7.605   6.721 131.216  0.00  0.00    +0.000 A 
ATOM      6  C   UNL     1      -8.791   6.945 130.536  0.00  0.00    +0.000 A 
ATOM      7  C   UNL     1      -6.658   5.808 133.441  0.00  0.00    +0.000 A 
ATOM      8  C   UNL     1      -7.296   5.256 134.548  0.00  0.00    +0.000 A 
ATOM      9  N   UNL     1      -8.648   5.286 134.292  0.00  0.00    +0.000 N 
ATOM     10  C   UNL     1      -6.594   4.787 135.661  0.00  0.00    +0.000 A 
ATOM     11  C   UNL     1      -5.200   4.907 135.638  0.00  0.00    +0.000 A 
ATOM     12  C   UNL     1      -4.544   5.470 134.544  0.00  0.00    +0.000 A 
ATOM     13 CL   UNL     1      -2.830   5.621 134.558  0.00  0.00    +0.000 Cl
ATOM     14  C   UNL     1      -5.254   5.917 133.432  0.00  0.00    +0.000 A 
ATOM     15  H   UNL     1      -9.360   4.960 134.929  0.00  0.00    +0.000 HD
ENDROOT
BRANCH   1  17
ATOM     16  C   UNL     1     -10.926   8.091 129.339  0.00  0.00    +0.000 C 
ATOM     17  C   UNL     1     -11.293   6.982 130.336  0.00  0.00    +0.000 C 
BRANCH  17  18
ATOM     18  C   UNL     1     -11.972   5.824 129.606  0.00  0.00    +0.000 C 
ATOM     19  O   UNL     1     -11.700   4.649 129.849  0.00  0.00    +0.000 OA
BRANCH  18  20
ATOM     20  O   UNL     1     -12.893   6.124 128.664  0.00  0.00    +0.000 OA
ATOM     21  H   UNL     1     -12.553   6.458 127.811  0.00  0.00    +0.000 HD
ENDBRANCH  18  20
ENDBRANCH  17  18
ENDBRANCH   1  17
TORSDOF 3
ENDMDL
MODEL 8
REMARK VINA RESULT:      -6.6     11.253     12.581
REMARK  Name = Carprofen
REMARK  4 active torsions:
REMARK  status: ('A' for Active; 'I' for Inactive)
REMARK    1  A    between atoms: C_1  and  C_2
REMARK    2  A    between atoms: C_2  and  C_3
REMARK    3  A    between atoms: C_2  and  C_6
REMARK    4  A    between atoms: C_3  and  O_4
REMARK                            x       y       z     vdW  Elec       q    Type
REMARK                         _______ _______ _______ _____ _____    ______ ____
ROOT
ATOM      1  C   UNL     1      -6.599  -2.755 130.482  0.00  0.00    +0.000 A 
ATOM      2  C   UNL     1      -5.717  -2.369 129.457  0.00  0.00    +0.000 A 
ATOM      3  C   UNL     1      -6.198  -2.448 128.146  0.00  0.00    +0.000 A 
ATOM      4  C   UNL     1      -7.485  -2.887 127.839  0.00  0.00    +0.000 A 
ATOM      5  C   UNL     1      -8.346  -3.281 128.873  0.00  0.00    +0.000 A 
ATOM      6  C   UNL     1      -7.891  -3.212 130.179  0.00  0.00    +0.000 A 
ATOM      7  C   UNL     1      -7.639  -2.829 126.428  0.00  0.00    +0.000 A 
ATOM      8  C   UNL     1      -6.439  -2.369 125.894  0.00  0.00    +0.000 A 
ATOM      9  N   UNL     1      -5.589  -2.134 126.952  0.00  0.00    +0.000 N 
ATOM     10  C   UNL     1      -6.240  -2.216 124.520  0.00  0.00    +0.000 A 
ATOM     11  C   UNL     1      -7.314  -2.526 123.677  0.00  0.00    +0.000 A 
ATOM     12  C   UNL     1      -8.528  -2.973 124.194  0.00  0.00    +0.000 A 
ATOM     13 CL   UNL     1      -9.835  -3.325 123.131  0.00  0.00    +0.000 Cl
ATOM     14  C   UNL     1      -8.707  -3.140 125.566  0.00  0.00    +0.000 A 
ATOM     15  H   UNL     1      -4.647  -1.781 126.863  0.00  0.00    +0.000 HD
ENDROOT
BRANCH   1  17
ATOM     16  C   UNL     1      -7.488  -2.721 132.779  0.00  0.00    +0.000 C 
ATOM     17  C   UNL     1      -6.205  -2.620 131.941  0.00  0.00    +0.000 C 
BRANCH  17  18
ATOM     18  C   UNL     1      -5.172  -3.630 132.440  0.00  0.00    +0.000 C 
ATOM     19  O   UNL     1      -5.193  -4.810 132.093  0.00  0.00    +0.000 OA
BRANCH  18  20
ATOM     20  O   UNL     1      -4.218  -3.192 133.290  0.00  0.00    +0.000 OA
ATOM     21  H   UNL     1      -3.320  -3.556 133.164  0.00  0.00    +0.000 HD
ENDBRANCH  18  20
ENDBRANCH  17  18
ENDBRANCH   1  17
TORSDOF 3
ENDMDL
MODEL 9
REMARK VINA RESULT:      -6.5      2.965      4.336
REMARK  Name = Carprofen
REMARK  4 active torsions:
REMARK  status: ('A' for Active; 'I' for Inactive)
REMARK    1  A    between atoms: C_1  and  C_2
REMARK    2  A    between atoms: C_2  and  C_3
REMARK    3  A    between atoms: C_2  and  C_6
REMARK    4  A    between atoms: C_3  and  O_4
REMARK                            x       y       z     vdW  Elec       q    Type
REMARK                         _______ _______ _______ _____ _____    ______ ____
ROOT
ATOM      1  C   UNL     1      -9.799   6.104 131.754  0.00  0.00    +0.000 A 
ATOM      2  C   UNL     1      -8.955   6.782 130.858  0.00  0.00    +0.000 A 
ATOM      3  C   UNL     1      -7.590   6.799 131.165  0.00  0.00    +0.000 A 
ATOM      4  C   UNL     1      -7.064   6.181 132.299  0.00  0.00    +0.000 A 
ATOM      5  C   UNL     1      -7.922   5.520 133.187  0.00  0.00    +0.000 A 
ATOM      6  C   UNL     1      -9.278   5.492 132.904  0.00  0.00    +0.000 A 
ATOM      7  C   UNL     1      -5.657   6.382 132.290  0.00  0.00    +0.000 A 
ATOM      8  C   UNL     1      -5.348   7.133 131.158  0.00  0.00    +0.000 A 
ATOM      9  N   UNL     1      -6.530   7.360 130.489  0.00  0.00    +0.000 N 
ATOM     10  C   UNL     1      -4.044   7.531 130.857  0.00  0.00    +0.000 A 
ATOM     11  C   UNL     1      -3.030   7.127 131.734  0.00  0.00    +0.000 A 
ATOM     12  C   UNL     1      -3.318   6.363 132.863  0.00  0.00    +0.000 A 
ATOM     13 CL   UNL     1      -2.045   5.867 133.910  0.00  0.00    +0.000 Cl
ATOM     14  C   UNL     1      -4.626   5.990 133.164  0.00  0.00    +0.000 A 
ATOM     15  H   UNL     1      -6.608   7.871 129.622  0.00  0.00    +0.000 HD
ENDROOT
BRANCH   1  17
ATOM     16  C   UNL     1     -11.874   7.360 131.323  0.00  0.00    +0.000 C 
ATOM     17  C   UNL     1     -11.281   5.951 131.464  0.00  0.00    +0.000 C 
BRANCH  17  18
ATOM     18  C   UNL     1     -11.627   5.111 130.234  0.00  0.00    +0.000 C 
ATOM     19  O   UNL     1     -12.068   5.615 129.202  0.00  0.00    +0.000 OA
BRANCH  18  20
ATOM     20  O   UNL     1     -11.438   3.776 130.307  0.00  0.00    +0.000 OA
ATOM     21  H   UNL     1     -10.737   3.401 129.737  0.00  0.00    +0.000 HD
ENDBRANCH  18  20
ENDBRANCH  17  18
ENDBRANCH   1  17
TORSDOF 3
ENDMDL
