MODEL 1
REMARK VINA RESULT:      -6.8      0.000      0.000
REMARK  Name = Carteolol
REMARK  10 active torsions:
REMARK  status: ('A' for Active; 'I' for Inactive)
REMARK    1  A    between atoms: C_1  and  C_2
REMARK    2  A    between atoms: C_2  and  C_3
REMARK    3  A    between atoms: C_2  and  C_4
REMARK    4  A    between atoms: C_2  and  N_5
REMARK    5  A    between atoms: N_5  and  C_6
REMARK    6  A    between atoms: C_6  and  C_7
REMARK    7  A    between atoms: C_7  and  O_8
REMARK    8  A    between atoms: C_7  and  C_9
REMARK    9  A    between atoms: C_9  and  O_10
REMARK   10  A    between atoms: O_10  and  C_11
REMARK                            x       y       z     vdW  Elec       q    Type
REMARK                         _______ _______ _______ _____ _____    ______ ____
ROOT
ATOM      1  O   UNL     1      -7.861   1.182 123.047  0.00  0.00    +0.000 OA
ENDROOT
BRANCH   1   2
ATOM      2  C   UNL     1      -6.988   2.154 123.456  0.00  0.00    +0.000 A 
ATOM      3  C   UNL     1      -6.858   2.299 124.843  0.00  0.00    +0.000 A 
ATOM      4  C   UNL     1      -6.049   3.302 125.384  0.00  0.00    +0.000 A 
ATOM      5  C   UNL     1      -5.365   4.172 124.538  0.00  0.00    +0.000 A 
ATOM      6  C   UNL     1      -5.522   4.054 123.158  0.00  0.00    +0.000 A 
ATOM      7  C   UNL     1      -6.347   3.063 122.602  0.00  0.00    +0.000 A 
ATOM      8  C   UNL     1      -6.453   3.014 121.107  0.00  0.00    +0.000 C 
ATOM      9  C   UNL     1      -6.331   4.373 120.470  0.00  0.00    +0.000 C 
ATOM     10  C   UNL     1      -5.112   5.086 120.978  0.00  0.00    +0.000 C 
ATOM     11  O   UNL     1      -4.451   5.843 120.265  0.00  0.00    +0.000 OA
ATOM     12  N   UNL     1      -4.842   4.940 122.312  0.00  0.00    +0.000 N 
ATOM     13  H   UNL     1      -4.110   5.533 122.680  0.00  0.00    +0.000 HD
ENDBRANCH   1   2
BRANCH   1  14
ATOM     14  C   UNL     1      -9.241   1.420 123.322  0.00  0.00    +0.000 C 
BRANCH  14  15
ATOM     15  C   UNL     1     -10.095   0.514 122.431  0.00  0.00    +0.000 C 
BRANCH  15  16
ATOM     16  O   UNL     1     -11.479   0.621 122.780  0.00  0.00    +0.000 OA
ATOM     17  H   UNL     1     -11.812   1.444 122.388  0.00  0.00    +0.000 HD
ENDBRANCH  15  16
BRANCH  15  18
ATOM     18  C   UNL     1      -9.616  -0.922 122.651  0.00  0.00    +0.000 C 
BRANCH  18  19
ATOM     19  N   UNL     1      -9.382  -1.215 124.063  0.00  0.00    +0.000 NA
ATOM     20  H   UNL     1      -8.712  -0.535 124.431  0.00  0.00    +0.000 HD
BRANCH  19  22
ATOM     21  C   UNL     1      -9.218  -2.926 125.788  0.00  0.00    +0.000 C 
ATOM     22  C   UNL     1      -8.934  -2.594 124.314  0.00  0.00    +0.000 C 
ATOM     23  C   UNL     1      -7.424  -2.742 124.061  0.00  0.00    +0.000 C 
ATOM     24  C   UNL     1      -9.724  -3.577 123.434  0.00  0.00    +0.000 C 
ENDBRANCH  19  22
ENDBRANCH  18  19
ENDBRANCH  15  18
ENDBRANCH  14  15
ENDBRANCH   1  14
TORSDOF 7
ENDMDL
MODEL 2
REMARK VINA RESULT:      -6.7      8.563     10.505
REMARK  Name = Carteolol
REMARK  10 active torsions:
REMARK  status: ('A' for Active; 'I' for Inactive)
REMARK    1  A    between atoms: C_1  and  C_2
REMARK    2  A    between atoms: C_2  and  C_3
REMARK    3  A    between atoms: C_2  and  C_4
REMARK    4  A    between atoms: C_2  and  N_5
REMARK    5  A    between atoms: N_5  and  C_6
REMARK    6  A    between atoms: C_6  and  C_7
REMARK    7  A    between atoms: C_7  and  O_8
REMARK    8  A    between atoms: C_7  and  C_9
REMARK    9  A    between atoms: C_9  and  O_10
REMARK   10  A    between atoms: O_10  and  C_11
REMARK                            x       y       z     vdW  Elec       q    Type
REMARK                         _______ _______ _______ _____ _____    ______ ____
ROOT
ATOM      1  O   UNL     1      -8.282   6.720 129.947  0.00  0.00    +0.000 OA
ENDROOT
BRANCH   1   2
ATOM      2  C   UNL     1      -9.542   6.872 130.459  0.00  0.00    +0.000 A 
ATOM      3  C   UNL     1      -9.788   6.196 131.661  0.00  0.00    +0.000 A 
ATOM      4  C   UNL     1     -11.056   6.218 132.248  0.00  0.00    +0.000 A 
ATOM      5  C   UNL     1     -12.092   6.917 131.632  0.00  0.00    +0.000 A 
ATOM      6  C   UNL     1     -11.861   7.559 130.417  0.00  0.00    +0.000 A 
ATOM      7  C   UNL     1     -10.596   7.528 129.807  0.00  0.00    +0.000 A 
ATOM      8  C   UNL     1     -10.444   8.249 128.500  0.00  0.00    +0.000 C 
ATOM      9  C   UNL     1     -11.705   8.236 127.679  0.00  0.00    +0.000 C 
ATOM     10  C   UNL     1     -12.874   8.692 128.501  0.00  0.00    +0.000 C 
ATOM     11  O   UNL     1     -13.804   9.340 128.015  0.00  0.00    +0.000 OA
ATOM     12  N   UNL     1     -12.910   8.249 129.795  0.00  0.00    +0.000 N 
ATOM     13  H   UNL     1     -13.765   8.435 130.301  0.00  0.00    +0.000 HD
ENDBRANCH   1   2
BRANCH   1  14
ATOM     14  C   UNL     1      -7.536   5.604 130.433  0.00  0.00    +0.000 C 
BRANCH  14  15
ATOM     15  C   UNL     1      -6.100   6.047 130.725  0.00  0.00    +0.000 C 
BRANCH  15  16
ATOM     16  O   UNL     1      -5.955   7.456 130.520  0.00  0.00    +0.000 OA
ATOM     17  H   UNL     1      -6.848   7.834 130.478  0.00  0.00    +0.000 HD
ENDBRANCH  15  16
BRANCH  15  18
ATOM     18  C   UNL     1      -5.185   5.287 129.764  0.00  0.00    +0.000 C 
BRANCH  18  19
ATOM     19  N   UNL     1      -4.417   6.188 128.907  0.00  0.00    +0.000 NA
ATOM     20  H   UNL     1      -4.799   6.139 127.959  0.00  0.00    +0.000 HD
BRANCH  19  22
ATOM     21  C   UNL     1      -2.740   4.542 128.269  0.00  0.00    +0.000 C 
ATOM     22  C   UNL     1      -2.970   5.919 128.913  0.00  0.00    +0.000 C 
ATOM     23  C   UNL     1      -2.417   5.887 130.347  0.00  0.00    +0.000 C 
ATOM     24  C   UNL     1      -2.231   6.976 128.075  0.00  0.00    +0.000 C 
ENDBRANCH  19  22
ENDBRANCH  18  19
ENDBRANCH  15  18
ENDBRANCH  14  15
ENDBRANCH   1  14
TORSDOF 7
ENDMDL
MODEL 3
REMARK VINA RESULT:      -6.6      1.931      2.330
REMARK  Name = Carteolol
REMARK  10 active torsions:
REMARK  status: ('A' for Active; 'I' for Inactive)
REMARK    1  A    between atoms: C_1  and  C_2
REMARK    2  A    between atoms: C_2  and  C_3
REMARK    3  A    between atoms: C_2  and  C_4
REMARK    4  A    between atoms: C_2  and  N_5
REMARK    5  A    between atoms: N_5  and  C_6
REMARK    6  A    between atoms: C_6  and  C_7
REMARK    7  A    between atoms: C_7  and  O_8
REMARK    8  A    between atoms: C_7  and  C_9
REMARK    9  A    between atoms: C_9  and  O_10
REMARK   10  A    between atoms: O_10  and  C_11
REMARK                            x       y       z     vdW  Elec       q    Type
REMARK                         _______ _______ _______ _____ _____    ______ ____
ROOT
ATOM      1  O   UNL     1      -9.236   2.691 124.746  0.00  0.00    +0.000 OA
ENDROOT
BRANCH   1   2
ATOM      2  C   UNL     1      -8.048   3.077 124.187  0.00  0.00    +0.000 A 
ATOM      3  C   UNL     1      -7.029   3.387 125.096  0.00  0.00    +0.000 A 
ATOM      4  C   UNL     1      -5.791   3.859 124.650  0.00  0.00    +0.000 A 
ATOM      5  C   UNL     1      -5.566   4.028 123.286  0.00  0.00    +0.000 A 
ATOM      6  C   UNL     1      -6.590   3.757 122.381  0.00  0.00    +0.000 A 
ATOM      7  C   UNL     1      -7.845   3.301 122.818  0.00  0.00    +0.000 A 
ATOM      8  C   UNL     1      -8.885   3.037 121.770  0.00  0.00    +0.000 C 
ATOM      9  C   UNL     1      -8.760   3.952 120.582  0.00  0.00    +0.000 C 
ATOM     10  C   UNL     1      -7.352   3.957 120.065  0.00  0.00    +0.000 C 
ATOM     11  O   UNL     1      -7.094   4.073 118.865  0.00  0.00    +0.000 OA
ATOM     12  N   UNL     1      -6.362   3.943 121.011  0.00  0.00    +0.000 N 
ATOM     13  H   UNL     1      -5.423   4.092 120.668  0.00  0.00    +0.000 HD
ENDBRANCH   1   2
BRANCH   1  14
ATOM     14  C   UNL     1      -9.692   1.380 124.414  0.00  0.00    +0.000 C 
BRANCH  14  15
ATOM     15  C   UNL     1      -9.627   0.493 125.659  0.00  0.00    +0.000 C 
BRANCH  15  16
ATOM     16  O   UNL     1      -9.258   1.261 126.808  0.00  0.00    +0.000 OA
ATOM     17  H   UNL     1     -10.079   1.574 127.221  0.00  0.00    +0.000 HD
ENDBRANCH  15  16
BRANCH  15  18
ATOM     18  C   UNL     1      -8.573  -0.584 125.397  0.00  0.00    +0.000 C 
BRANCH  18  19
ATOM     19  N   UNL     1      -9.170  -1.904 125.201  0.00  0.00    +0.000 NA
ATOM     20  H   UNL     1      -9.117  -2.420 126.082  0.00  0.00    +0.000 HD
BRANCH  19  22
ATOM     21  C   UNL     1      -9.699  -3.305 123.280  0.00  0.00    +0.000 C 
ATOM     22  C   UNL     1      -8.564  -2.668 124.099  0.00  0.00    +0.000 C 
ATOM     23  C   UNL     1      -7.658  -3.790 124.633  0.00  0.00    +0.000 C 
ATOM     24  C   UNL     1      -7.769  -1.729 123.176  0.00  0.00    +0.000 C 
ENDBRANCH  19  22
ENDBRANCH  18  19
ENDBRANCH  15  18
ENDBRANCH  14  15
ENDBRANCH   1  14
TORSDOF 7
ENDMDL
MODEL 4
REMARK VINA RESULT:      -6.6      5.841      7.715
REMARK  Name = Carteolol
REMARK  10 active torsions:
REMARK  status: ('A' for Active; 'I' for Inactive)
REMARK    1  A    between atoms: C_1  and  C_2
REMARK    2  A    between atoms: C_2  and  C_3
REMARK    3  A    between atoms: C_2  and  C_4
REMARK    4  A    between atoms: C_2  and  N_5
REMARK    5  A    between atoms: N_5  and  C_6
REMARK    6  A    between atoms: C_6  and  C_7
REMARK    7  A    between atoms: C_7  and  O_8
REMARK    8  A    between atoms: C_7  and  C_9
REMARK    9  A    between atoms: C_9  and  O_10
REMARK   10  A    between atoms: O_10  and  C_11
REMARK                            x       y       z     vdW  Elec       q    Type
REMARK                         _______ _______ _______ _____ _____    ______ ____
ROOT
ATOM      1  O   UNL     1      -7.777   4.904 128.105  0.00  0.00    +0.000 OA
ENDROOT
BRANCH   1   2
ATOM      2  C   UNL     1      -8.543   4.405 129.123  0.00  0.00    +0.000 A 
ATOM      3  C   UNL     1      -8.329   3.054 129.428  0.00  0.00    +0.000 A 
ATOM      4  C   UNL     1      -9.098   2.411 130.402  0.00  0.00    +0.000 A 
ATOM      5  C   UNL     1     -10.092   3.115 131.077  0.00  0.00    +0.000 A 
ATOM      6  C   UNL     1     -10.332   4.448 130.749  0.00  0.00    +0.000 A 
ATOM      7  C   UNL     1      -9.581   5.101 129.759  0.00  0.00    +0.000 A 
ATOM      8  C   UNL     1      -9.912   6.536 129.476  0.00  0.00    +0.000 C 
ATOM      9  C   UNL     1     -11.371   6.846 129.676  0.00  0.00    +0.000 C 
ATOM     10  C   UNL     1     -11.836   6.360 131.017  0.00  0.00    +0.000 C 
ATOM     11  O   UNL     1     -12.690   6.959 131.672  0.00  0.00    +0.000 OA
ATOM     12  N   UNL     1     -11.343   5.148 131.422  0.00  0.00    +0.000 N 
ATOM     13  H   UNL     1     -11.765   4.757 132.253  0.00  0.00    +0.000 HD
ENDBRANCH   1   2
BRANCH   1  14
ATOM     14  C   UNL     1      -7.529   4.022 127.011  0.00  0.00    +0.000 C 
BRANCH  14  15
ATOM     15  C   UNL     1      -7.721   4.782 125.697  0.00  0.00    +0.000 C 
BRANCH  15  16
ATOM     16  O   UNL     1      -8.859   5.647 125.775  0.00  0.00    +0.000 OA
ATOM     17  H   UNL     1      -8.660   6.324 126.443  0.00  0.00    +0.000 HD
ENDBRANCH  15  16
BRANCH  15  18
ATOM     18  C   UNL     1      -7.937   3.742 124.596  0.00  0.00    +0.000 C 
BRANCH  18  19
ATOM     19  N   UNL     1      -9.209   3.039 124.745  0.00  0.00    +0.000 NA
ATOM     20  H   UNL     1      -9.582   3.233 125.677  0.00  0.00    +0.000 HD
BRANCH  19  22
ATOM     21  C   UNL     1      -9.446   0.863 125.813  0.00  0.00    +0.000 C 
ATOM     22  C   UNL     1      -9.115   1.591 124.500  0.00  0.00    +0.000 C 
ATOM     23  C   UNL     1      -7.695   1.192 124.064  0.00  0.00    +0.000 C 
ATOM     24  C   UNL     1     -10.143   1.165 123.437  0.00  0.00    +0.000 C 
ENDBRANCH  19  22
ENDBRANCH  18  19
ENDBRANCH  15  18
ENDBRANCH  14  15
ENDBRANCH   1  14
TORSDOF 7
ENDMDL
MODEL 5
REMARK VINA RESULT:      -6.5      1.845      3.270
REMARK  Name = Carteolol
REMARK  10 active torsions:
REMARK  status: ('A' for Active; 'I' for Inactive)
REMARK    1  A    between atoms: C_1  and  C_2
REMARK    2  A    between atoms: C_2  and  C_3
REMARK    3  A    between atoms: C_2  and  C_4
REMARK    4  A    between atoms: C_2  and  N_5
REMARK    5  A    between atoms: N_5  and  C_6
REMARK    6  A    between atoms: C_6  and  C_7
REMARK    7  A    between atoms: C_7  and  O_8
REMARK    8  A    between atoms: C_7  and  C_9
REMARK    9  A    between atoms: C_9  and  O_10
REMARK   10  A    between atoms: O_10  and  C_11
REMARK                            x       y       z     vdW  Elec       q    Type
REMARK                         _______ _______ _______ _____ _____    ______ ____
ROOT
ATOM      1  O   UNL     1      -8.071   1.372 123.655  0.00  0.00    +0.000 OA
ENDROOT
BRANCH   1   2
ATOM      2  C   UNL     1      -7.140   2.373 123.614  0.00  0.00    +0.000 A 
ATOM      3  C   UNL     1      -6.989   3.003 122.372  0.00  0.00    +0.000 A 
ATOM      4  C   UNL     1      -6.022   3.994 122.185  0.00  0.00    +0.000 A 
ATOM      5  C   UNL     1      -5.193   4.362 123.244  0.00  0.00    +0.000 A 
ATOM      6  C   UNL     1      -5.316   3.711 124.470  0.00  0.00    +0.000 A 
ATOM      7  C   UNL     1      -6.270   2.699 124.665  0.00  0.00    +0.000 A 
ATOM      8  C   UNL     1      -6.327   2.057 126.019  0.00  0.00    +0.000 C 
ATOM      9  C   UNL     1      -4.981   1.998 126.691  0.00  0.00    +0.000 C 
ATOM     10  C   UNL     1      -4.324   3.346 126.676  0.00  0.00    +0.000 C 
ATOM     11  O   UNL     1      -3.606   3.736 127.599  0.00  0.00    +0.000 OA
ATOM     12  N   UNL     1      -4.470   4.075 125.527  0.00  0.00    +0.000 N 
ATOM     13  H   UNL     1      -3.910   4.914 125.463  0.00  0.00    +0.000 HD
ENDBRANCH   1   2
BRANCH   1  14
ATOM     14  C   UNL     1      -9.415   1.749 123.353  0.00  0.00    +0.000 C 
BRANCH  14  15
ATOM     15  C   UNL     1     -10.057   0.668 122.479  0.00  0.00    +0.000 C 
BRANCH  15  16
ATOM     16  O   UNL     1     -11.453   0.547 122.770  0.00  0.00    +0.000 OA
ATOM     17  H   UNL     1     -11.902   1.291 122.336  0.00  0.00    +0.000 HD
ENDBRANCH  15  16
BRANCH  15  18
ATOM     18  C   UNL     1      -9.348  -0.650 122.792  0.00  0.00    +0.000 C 
BRANCH  18  19
ATOM     19  N   UNL     1      -9.451  -1.011 124.205  0.00  0.00    +0.000 NA
ATOM     20  H   UNL     1      -8.961  -0.304 124.758  0.00  0.00    +0.000 HD
BRANCH  19  22
ATOM     21  C   UNL     1      -9.528  -3.326 123.455  0.00  0.00    +0.000 C 
ATOM     22  C   UNL     1      -8.956  -2.363 124.508  0.00  0.00    +0.000 C 
ATOM     23  C   UNL     1      -9.420  -2.826 125.898  0.00  0.00    +0.000 C 
ATOM     24  C   UNL     1      -7.421  -2.398 124.414  0.00  0.00    +0.000 C 
ENDBRANCH  19  22
ENDBRANCH  18  19
ENDBRANCH  15  18
ENDBRANCH  14  15
ENDBRANCH   1  14
TORSDOF 7
ENDMDL
MODEL 6
REMARK VINA RESULT:      -6.5      2.853      6.411
REMARK  Name = Carteolol
REMARK  10 active torsions:
REMARK  status: ('A' for Active; 'I' for Inactive)
REMARK    1  A    between atoms: C_1  and  C_2
REMARK    2  A    between atoms: C_2  and  C_3
REMARK    3  A    between atoms: C_2  and  C_4
REMARK    4  A    between atoms: C_2  and  N_5
REMARK    5  A    between atoms: N_5  and  C_6
REMARK    6  A    between atoms: C_6  and  C_7
REMARK    7  A    between atoms: C_7  and  O_8
REMARK    8  A    between atoms: C_7  and  C_9
REMARK    9  A    between atoms: C_9  and  O_10
REMARK   10  A    between atoms: O_10  and  C_11
REMARK                            x       y       z     vdW  Elec       q    Type
REMARK                         _______ _______ _______ _____ _____    ______ ____
ROOT
ATOM      1  O   UNL     1      -9.534  -1.262 123.384  0.00  0.00    +0.000 OA
ENDROOT
BRANCH   1   2
ATOM      2  C   UNL     1      -8.232  -1.529 123.712  0.00  0.00    +0.000 A 
ATOM      3  C   UNL     1      -7.367  -1.722 122.627  0.00  0.00    +0.000 A 
ATOM      4  C   UNL     1      -6.029  -2.068 122.832  0.00  0.00    +0.000 A 
ATOM      5  C   UNL     1      -5.546  -2.228 124.129  0.00  0.00    +0.000 A 
ATOM      6  C   UNL     1      -6.413  -2.073 125.209  0.00  0.00    +0.000 A 
ATOM      7  C   UNL     1      -7.764  -1.745 125.016  0.00  0.00    +0.000 A 
ATOM      8  C   UNL     1      -8.620  -1.600 126.240  0.00  0.00    +0.000 C 
ATOM      9  C   UNL     1      -8.192  -2.511 127.359  0.00  0.00    +0.000 C 
ATOM     10  C   UNL     1      -6.721  -2.375 127.617  0.00  0.00    +0.000 C 
ATOM     11  O   UNL     1      -6.241  -2.476 128.748  0.00  0.00    +0.000 OA
ATOM     12  N   UNL     1      -5.924  -2.249 126.511  0.00  0.00    +0.000 N 
ATOM     13  H   UNL     1      -4.928  -2.303 126.676  0.00  0.00    +0.000 HD
ENDBRANCH   1   2
BRANCH   1  14
ATOM     14  C   UNL     1      -9.769  -0.041 122.683  0.00  0.00    +0.000 C 
BRANCH  14  15
ATOM     15  C   UNL     1      -9.886   1.105 123.692  0.00  0.00    +0.000 C 
BRANCH  15  16
ATOM     16  O   UNL     1     -11.259   1.389 123.976  0.00  0.00    +0.000 OA
ATOM     17  H   UNL     1     -11.336   1.506 124.937  0.00  0.00    +0.000 HD
ENDBRANCH  15  16
BRANCH  15  18
ATOM     18  C   UNL     1      -9.222   2.332 123.065  0.00  0.00    +0.000 C 
BRANCH  18  19
ATOM     19  N   UNL     1      -8.450   3.099 124.041  0.00  0.00    +0.000 NA
ATOM     20  H   UNL     1      -8.721   4.083 123.969  0.00  0.00    +0.000 HD
BRANCH  19  22
ATOM     21  C   UNL     1      -6.551   1.801 124.841  0.00  0.00    +0.000 C 
ATOM     22  C   UNL     1      -6.994   2.935 123.902  0.00  0.00    +0.000 C 
ATOM     23  C   UNL     1      -6.250   4.220 124.300  0.00  0.00    +0.000 C 
ATOM     24  C   UNL     1      -6.641   2.536 122.459  0.00  0.00    +0.000 C 
ENDBRANCH  19  22
ENDBRANCH  18  19
ENDBRANCH  15  18
ENDBRANCH  14  15
ENDBRANCH   1  14
TORSDOF 7
ENDMDL
MODEL 7
REMARK VINA RESULT:      -6.5      7.643      9.702
REMARK  Name = Carteolol
REMARK  10 active torsions:
REMARK  status: ('A' for Active; 'I' for Inactive)
REMARK    1  A    between atoms: C_1  and  C_2
REMARK    2  A    between atoms: C_2  and  C_3
REMARK    3  A    between atoms: C_2  and  C_4
REMARK    4  A    between atoms: C_2  and  N_5
REMARK    5  A    between atoms: N_5  and  C_6
REMARK    6  A    between atoms: C_6  and  C_7
REMARK    7  A    between atoms: C_7  and  O_8
REMARK    8  A    between atoms: C_7  and  C_9
REMARK    9  A    between atoms: C_9  and  O_10
REMARK   10  A    between atoms: O_10  and  C_11
REMARK                            x       y       z     vdW  Elec       q    Type
REMARK                         _______ _______ _______ _____ _____    ______ ____
ROOT
ATOM      1  O   UNL     1      -7.868   7.101 130.355  0.00  0.00    +0.000 OA
ENDROOT
BRANCH   1   2
ATOM      2  C   UNL     1      -9.176   6.980 130.740  0.00  0.00    +0.000 A 
ATOM      3  C   UNL     1      -9.385   6.306 131.950  0.00  0.00    +0.000 A 
ATOM      4  C   UNL     1     -10.678   6.059 132.417  0.00  0.00    +0.000 A 
ATOM      5  C   UNL     1     -11.776   6.482 131.671  0.00  0.00    +0.000 A 
ATOM      6  C   UNL     1     -11.572   7.119 130.449  0.00  0.00    +0.000 A 
ATOM      7  C   UNL     1     -10.278   7.356 129.959  0.00  0.00    +0.000 A 
ATOM      8  C   UNL     1     -10.158   8.048 128.633  0.00  0.00    +0.000 C 
ATOM      9  C   UNL     1     -11.295   7.721 127.703  0.00  0.00    +0.000 C 
ATOM     10  C   UNL     1     -12.614   7.926 128.387  0.00  0.00    +0.000 C 
ATOM     11  O   UNL     1     -13.611   8.328 127.784  0.00  0.00    +0.000 OA
ATOM     12  N   UNL     1     -12.681   7.530 129.696  0.00  0.00    +0.000 N 
ATOM     13  H   UNL     1     -13.603   7.533 130.111  0.00  0.00    +0.000 HD
ENDBRANCH   1   2
BRANCH   1  14
ATOM     14  C   UNL     1      -6.888   6.743 131.329  0.00  0.00    +0.000 C 
BRANCH  14  15
ATOM     15  C   UNL     1      -5.623   6.258 130.617  0.00  0.00    +0.000 C 
BRANCH  15  16
ATOM     16  O   UNL     1      -5.081   7.292 129.790  0.00  0.00    +0.000 OA
ATOM     17  H   UNL     1      -5.721   7.457 129.078  0.00  0.00    +0.000 HD
ENDBRANCH  15  16
BRANCH  15  18
ATOM     18  C   UNL     1      -6.019   5.059 129.753  0.00  0.00    +0.000 C 
BRANCH  18  19
ATOM     19  N   UNL     1      -6.935   4.157 130.449  0.00  0.00    +0.000 NA
ATOM     20  H   UNL     1      -6.385   3.514 131.024  0.00  0.00    +0.000 HD
BRANCH  19  22
ATOM     21  C   UNL     1      -8.041   4.275 128.283  0.00  0.00    +0.000 C 
ATOM     22  C   UNL     1      -7.841   3.426 129.549  0.00  0.00    +0.000 C 
ATOM     23  C   UNL     1      -9.212   3.197 130.206  0.00  0.00    +0.000 C 
ATOM     24  C   UNL     1      -7.211   2.084 129.138  0.00  0.00    +0.000 C 
ENDBRANCH  19  22
ENDBRANCH  18  19
ENDBRANCH  15  18
ENDBRANCH  14  15
ENDBRANCH   1  14
TORSDOF 7
ENDMDL
MODEL 8
REMARK VINA RESULT:      -6.5      2.433      6.663
REMARK  Name = Carteolol
REMARK  10 active torsions:
REMARK  status: ('A' for Active; 'I' for Inactive)
REMARK    1  A    between atoms: C_1  and  C_2
REMARK    2  A    between atoms: C_2  and  C_3
REMARK    3  A    between atoms: C_2  and  C_4
REMARK    4  A    between atoms: C_2  and  N_5
REMARK    5  A    between atoms: N_5  and  C_6
REMARK    6  A    between atoms: C_6  and  C_7
REMARK    7  A    between atoms: C_7  and  O_8
REMARK    8  A    between atoms: C_7  and  C_9
REMARK    9  A    between atoms: C_9  and  O_10
REMARK   10  A    between atoms: O_10  and  C_11
REMARK                            x       y       z     vdW  Elec       q    Type
REMARK                         _______ _______ _______ _____ _____    ______ ____
ROOT
ATOM      1  O   UNL     1      -8.146   0.154 123.794  0.00  0.00    +0.000 OA
ENDROOT
BRANCH   1   2
ATOM      2  C   UNL     1      -8.174  -1.117 124.301  0.00  0.00    +0.000 A 
ATOM      3  C   UNL     1      -9.184  -1.366 125.240  0.00  0.00    +0.000 A 
ATOM      4  C   UNL     1      -9.275  -2.605 125.880  0.00  0.00    +0.000 A 
ATOM      5  C   UNL     1      -8.351  -3.606 125.587  0.00  0.00    +0.000 A 
ATOM      6  C   UNL     1      -7.323  -3.349 124.682  0.00  0.00    +0.000 A 
ATOM      7  C   UNL     1      -7.209  -2.102 124.047  0.00  0.00    +0.000 A 
ATOM      8  C   UNL     1      -6.069  -1.919 123.088  0.00  0.00    +0.000 C 
ATOM      9  C   UNL     1      -4.849  -2.709 123.478  0.00  0.00    +0.000 C 
ATOM     10  C   UNL     1      -5.210  -4.141 123.740  0.00  0.00    +0.000 C 
ATOM     11  O   UNL     1      -4.444  -5.070 123.473  0.00  0.00    +0.000 OA
ATOM     12  N   UNL     1      -6.389  -4.355 124.402  0.00  0.00    +0.000 N 
ATOM     13  H   UNL     1      -6.559  -5.304 124.704  0.00  0.00    +0.000 HD
ENDBRANCH   1   2
BRANCH   1  14
ATOM     14  C   UNL     1      -9.316   0.580 123.097  0.00  0.00    +0.000 C 
BRANCH  14  15
ATOM     15  C   UNL     1      -9.445   2.101 123.212  0.00  0.00    +0.000 C 
BRANCH  15  16
ATOM     16  O   UNL     1      -9.008   2.738 122.008  0.00  0.00    +0.000 OA
ATOM     17  H   UNL     1      -8.378   2.138 121.577  0.00  0.00    +0.000 HD
ENDBRANCH  15  16
BRANCH  15  18
ATOM     18  C   UNL     1      -8.564   2.545 124.381  0.00  0.00    +0.000 C 
BRANCH  18  19
ATOM     19  N   UNL     1      -7.996   3.874 124.169  0.00  0.00    +0.000 NA
ATOM     20  H   UNL     1      -8.299   4.216 123.254  0.00  0.00    +0.000 HD
BRANCH  19  22
ATOM     21  C   UNL     1      -6.158   5.173 125.100  0.00  0.00    +0.000 C 
ATOM     22  C   UNL     1      -6.530   3.917 124.295  0.00  0.00    +0.000 C 
ATOM     23  C   UNL     1      -5.856   4.002 122.916  0.00  0.00    +0.000 C 
ATOM     24  C   UNL     1      -6.028   2.682 125.063  0.00  0.00    +0.000 C 
ENDBRANCH  19  22
ENDBRANCH  18  19
ENDBRANCH  15  18
ENDBRANCH  14  15
ENDBRANCH   1  14
TORSDOF 7
ENDMDL
MODEL 9
REMARK VINA RESULT:      -6.3      5.612      8.729
REMARK  Name = Carteolol
REMARK  10 active torsions:
REMARK  status: ('A' for Active; 'I' for Inactive)
REMARK    1  A    between atoms: C_1  and  C_2
REMARK    2  A    between atoms: C_2  and  C_3
REMARK    3  A    between atoms: C_2  and  C_4
REMARK    4  A    between atoms: C_2  and  N_5
REMARK    5  A    between atoms: N_5  and  C_6
REMARK    6  A    between atoms: C_6  and  C_7
REMARK    7  A    between atoms: C_7  and  O_8
REMARK    8  A    between atoms: C_7  and  C_9
REMARK    9  A    between atoms: C_9  and  O_10
REMARK   10  A    between atoms: O_10  and  C_11
REMARK                            x       y       z     vdW  Elec       q    Type
REMARK                         _______ _______ _______ _____ _____    ______ ____
ROOT
ATOM      1  O   UNL     1      -5.406  -1.919 128.023  0.00  0.00    +0.000 OA
ENDROOT
BRANCH   1   2
ATOM      2  C   UNL     1      -6.649  -2.436 127.782  0.00  0.00    +0.000 A 
ATOM      3  C   UNL     1      -7.296  -2.989 128.895  0.00  0.00    +0.000 A 
ATOM      4  C   UNL     1      -8.542  -3.609 128.763  0.00  0.00    +0.000 A 
ATOM      5  C   UNL     1      -9.149  -3.683 127.512  0.00  0.00    +0.000 A 
ATOM      6  C   UNL     1      -8.492  -3.168 126.397  0.00  0.00    +0.000 A 
ATOM      7  C   UNL     1      -7.231  -2.560 126.512  0.00  0.00    +0.000 A 
ATOM      8  C   UNL     1      -6.601  -2.035 125.256  0.00  0.00    +0.000 C 
ATOM      9  C   UNL     1      -6.967  -2.844 124.040  0.00  0.00    +0.000 C 
ATOM     10  C   UNL     1      -8.454  -3.025 123.955  0.00  0.00    +0.000 C 
ATOM     11  O   UNL     1      -9.049  -3.067 122.876  0.00  0.00    +0.000 OA
ATOM     12  N   UNL     1      -9.102  -3.258 125.138  0.00  0.00    +0.000 N 
ATOM     13  H   UNL     1     -10.074  -3.523 125.063  0.00  0.00    +0.000 HD
ENDBRANCH   1   2
BRANCH   1  14
ATOM     14  C   UNL     1      -4.506  -2.755 128.751  0.00  0.00    +0.000 C 
BRANCH  14  15
ATOM     15  C   UNL     1      -3.829  -1.931 129.849  0.00  0.00    +0.000 C 
BRANCH  15  16
ATOM     16  O   UNL     1      -2.423  -2.191 129.882  0.00  0.00    +0.000 OA
ATOM     17  H   UNL     1      -2.192  -2.413 130.798  0.00  0.00    +0.000 HD
ENDBRANCH  15  16
BRANCH  15  18
ATOM     18  C   UNL     1      -4.462  -2.340 131.180  0.00  0.00    +0.000 C 
BRANCH  18  19
ATOM     19  N   UNL     1      -4.021  -3.663 131.616  0.00  0.00    +0.000 NA
ATOM     20  H   UNL     1      -3.494  -4.098 130.855  0.00  0.00    +0.000 HD
BRANCH  19  22
ATOM     21  C   UNL     1      -6.305  -3.635 132.461  0.00  0.00    +0.000 C 
ATOM     22  C   UNL     1      -5.120  -4.532 132.068  0.00  0.00    +0.000 C 
ATOM     23  C   UNL     1      -4.705  -5.360 133.295  0.00  0.00    +0.000 C 
ATOM     24  C   UNL     1      -5.570  -5.456 130.923  0.00  0.00    +0.000 C 
ENDBRANCH  19  22
ENDBRANCH  18  19
ENDBRANCH  15  18
ENDBRANCH  14  15
ENDBRANCH   1  14
TORSDOF 7
ENDMDL
