MODEL 1
REMARK VINA RESULT:      -8.1      0.000      0.000
REMARK  Name = Carvedilol
REMARK  12 active torsions:
REMARK  status: ('A' for Active; 'I' for Inactive)
REMARK    1  A    between atoms: C_1  and  O_2
REMARK    2  A    between atoms: O_2  and  C_3
REMARK    3  A    between atoms: C_8  and  O_9
REMARK    4  A    between atoms: O_9  and  C_10
REMARK    5  A    between atoms: C_10  and  C_11
REMARK    6  A    between atoms: C_11  and  N_12
REMARK    7  A    between atoms: N_12  and  C_13
REMARK    8  A    between atoms: C_13  and  C_14
REMARK    9  A    between atoms: C_14  and  O_15
REMARK   10  A    between atoms: C_14  and  C_16
REMARK   11  A    between atoms: C_16  and  O_17
REMARK   12  A    between atoms: O_17  and  C_18
REMARK                            x       y       z     vdW  Elec       q    Type
REMARK                         _______ _______ _______ _____ _____    ______ ____
ROOT
ATOM      1  C   UNL     1      -7.114   4.131 126.785  0.00  0.00    +0.000 C 
ENDROOT
BRANCH   1   2
ATOM      2  O   UNL     1      -5.852   4.823 126.717  0.00  0.00    +0.000 OA
ATOM      3  H   UNL     1      -6.019   5.779 126.690  0.00  0.00    +0.000 HD
ENDBRANCH   1   2
BRANCH   1   4
ATOM      4  C   UNL     1      -8.094   4.751 125.773  0.00  0.00    +0.000 C 
BRANCH   4   5
ATOM      5  N   UNL     1      -9.022   3.789 125.178  0.00  0.00    +0.000 NA
ATOM      6  H   UNL     1      -9.517   3.286 125.920  0.00  0.00    +0.000 HD
BRANCH   5   7
ATOM      7  C   UNL     1      -8.280   2.869 124.288  0.00  0.00    +0.000 C 
BRANCH   7   8
ATOM      8  C   UNL     1      -8.790   1.455 124.486  0.00  0.00    +0.000 C 
BRANCH   8   9
ATOM      9  O   UNL     1      -7.889   0.456 124.889  0.00  0.00    +0.000 OA
BRANCH   9  15
ATOM     10  C   UNL     1      -8.616  -1.844 125.730  0.00  0.00    +0.000 A 
ATOM     11  C   UNL     1      -9.071  -3.099 125.277  0.00  0.00    +0.000 A 
ATOM     12  C   UNL     1      -9.344  -3.343 123.926  0.00  0.00    +0.000 A 
ATOM     13  C   UNL     1      -9.218  -2.317 123.000  0.00  0.00    +0.000 A 
ATOM     14  C   UNL     1      -8.768  -1.068 123.422  0.00  0.00    +0.000 A 
ATOM     15  C   UNL     1      -8.433  -0.816 124.766  0.00  0.00    +0.000 A 
BRANCH  10  17
ATOM     16  C   UNL     1      -8.368  -3.065 127.831  0.00  0.00    +0.000 C 
ATOM     17  O   UNL     1      -8.171  -1.891 127.036  0.00  0.00    +0.000 OA
ENDBRANCH  10  17
ENDBRANCH   9  15
ENDBRANCH   8   9
ENDBRANCH   7   8
ENDBRANCH   5   7
ENDBRANCH   4   5
ENDBRANCH   1   4
BRANCH   1  18
ATOM     18  C   UNL     1      -7.751   4.198 128.201  0.00  0.00    +0.000 C 
BRANCH  18  19
ATOM     19  O   UNL     1      -8.922   5.015 128.139  0.00  0.00    +0.000 OA
BRANCH  19  20
ATOM     20  C   UNL     1      -9.388   5.486 129.370  0.00  0.00    +0.000 A 
ATOM     21  C   UNL     1      -8.459   5.135 130.413  0.00  0.00    +0.000 A 
ATOM     22  C   UNL     1      -8.712   5.383 131.751  0.00  0.00    +0.000 A 
ATOM     23  C   UNL     1      -9.844   6.096 132.078  0.00  0.00    +0.000 A 
ATOM     24  C   UNL     1     -10.702   6.505 131.053  0.00  0.00    +0.000 A 
ATOM     25  C   UNL     1     -10.624   6.199 129.681  0.00  0.00    +0.000 A 
ATOM     26  C   UNL     1     -11.884   6.833 129.110  0.00  0.00    +0.000 A 
ATOM     27  C   UNL     1     -12.836   6.881 128.028  0.00  0.00    +0.000 A 
ATOM     28  C   UNL     1     -13.607   8.078 127.800  0.00  0.00    +0.000 A 
ATOM     29  C   UNL     1     -13.458   9.200 128.606  0.00  0.00    +0.000 A 
ATOM     30  C   UNL     1     -12.751   9.070 129.785  0.00  0.00    +0.000 A 
ATOM     31  C   UNL     1     -12.133   7.848 130.030  0.00  0.00    +0.000 A 
ATOM     32  N   UNL     1     -11.770   7.334 131.240  0.00  0.00    +0.000 N 
ATOM     33  H   UNL     1     -12.056   7.691 132.121  0.00  0.00    +0.000 HD
ENDBRANCH  19  20
ENDBRANCH  18  19
ENDBRANCH   1  18
TORSDOF 11
ENDMDL
MODEL 2
REMARK VINA RESULT:      -8.0      3.300      4.605
REMARK  Name = Carvedilol
REMARK  12 active torsions:
REMARK  status: ('A' for Active; 'I' for Inactive)
REMARK    1  A    between atoms: C_1  and  O_2
REMARK    2  A    between atoms: O_2  and  C_3
REMARK    3  A    between atoms: C_8  and  O_9
REMARK    4  A    between atoms: O_9  and  C_10
REMARK    5  A    between atoms: C_10  and  C_11
REMARK    6  A    between atoms: C_11  and  N_12
REMARK    7  A    between atoms: N_12  and  C_13
REMARK    8  A    between atoms: C_13  and  C_14
REMARK    9  A    between atoms: C_14  and  O_15
REMARK   10  A    between atoms: C_14  and  C_16
REMARK   11  A    between atoms: C_16  and  O_17
REMARK   12  A    between atoms: O_17  and  C_18
REMARK                            x       y       z     vdW  Elec       q    Type
REMARK                         _______ _______ _______ _____ _____    ______ ____
ROOT
ATOM      1  C   UNL     1      -4.435   6.727 130.126  0.00  0.00    +0.000 C 
ENDROOT
BRANCH   1   2
ATOM      2  O   UNL     1      -4.473   7.730 129.093  0.00  0.00    +0.000 OA
ATOM      3  H   UNL     1      -4.102   8.556 129.444  0.00  0.00    +0.000 HD
ENDBRANCH   1   2
BRANCH   1   4
ATOM      4  C   UNL     1      -4.594   5.332 129.493  0.00  0.00    +0.000 C 
BRANCH   4   5
ATOM      5  N   UNL     1      -5.474   5.306 128.325  0.00  0.00    +0.000 NA
ATOM      6  H   UNL     1      -6.263   4.679 128.504  0.00  0.00    +0.000 HD
BRANCH   5   7
ATOM      7  C   UNL     1      -4.702   4.893 127.132  0.00  0.00    +0.000 C 
BRANCH   7   8
ATOM      8  C   UNL     1      -5.655   4.399 126.060  0.00  0.00    +0.000 C 
BRANCH   8   9
ATOM      9  O   UNL     1      -5.168   3.546 125.057  0.00  0.00    +0.000 OA
BRANCH   9  15
ATOM     10  C   UNL     1      -6.128   3.765 122.700  0.00  0.00    +0.000 A 
ATOM     11  C   UNL     1      -7.293   3.513 121.948  0.00  0.00    +0.000 A 
ATOM     12  C   UNL     1      -8.400   2.855 122.498  0.00  0.00    +0.000 A 
ATOM     13  C   UNL     1      -8.346   2.386 123.802  0.00  0.00    +0.000 A 
ATOM     14  C   UNL     1      -7.207   2.624 124.567  0.00  0.00    +0.000 A 
ATOM     15  C   UNL     1      -6.104   3.334 124.054  0.00  0.00    +0.000 A 
BRANCH  10  17
ATOM     16  C   UNL     1      -5.232   4.696 120.627  0.00  0.00    +0.000 C 
ATOM     17  O   UNL     1      -5.270   4.635 122.057  0.00  0.00    +0.000 OA
ENDBRANCH  10  17
ENDBRANCH   9  15
ENDBRANCH   8   9
ENDBRANCH   7   8
ENDBRANCH   5   7
ENDBRANCH   4   5
ENDBRANCH   1   4
BRANCH   1  18
ATOM     18  C   UNL     1      -5.554   6.923 131.186  0.00  0.00    +0.000 C 
BRANCH  18  19
ATOM     19  O   UNL     1      -6.777   7.226 130.512  0.00  0.00    +0.000 OA
BRANCH  19  20
ATOM     20  C   UNL     1      -7.937   6.762 131.141  0.00  0.00    +0.000 A 
ATOM     21  C   UNL     1      -7.604   6.180 132.416  0.00  0.00    +0.000 A 
ATOM     22  C   UNL     1      -8.542   5.546 133.213  0.00  0.00    +0.000 A 
ATOM     23  C   UNL     1      -9.861   5.581 132.820  0.00  0.00    +0.000 A 
ATOM     24  C   UNL     1     -10.189   6.219 131.619  0.00  0.00    +0.000 A 
ATOM     25  C   UNL     1      -9.317   6.775 130.664  0.00  0.00    +0.000 A 
ATOM     26  C   UNL     1     -10.255   7.213 129.549  0.00  0.00    +0.000 A 
ATOM     27  C   UNL     1     -10.405   7.576 128.161  0.00  0.00    +0.000 A 
ATOM     28  C   UNL     1     -11.513   8.402 127.750  0.00  0.00    +0.000 A 
ATOM     29  C   UNL     1     -12.453   8.863 128.663  0.00  0.00    +0.000 A 
ATOM     30  C   UNL     1     -12.460   8.310 129.930  0.00  0.00    +0.000 A 
ATOM     31  C   UNL     1     -11.447   7.409 130.241  0.00  0.00    +0.000 A 
ATOM     32  N   UNL     1     -11.469   6.441 131.200  0.00  0.00    +0.000 N 
ATOM     33  H   UNL     1     -12.279   6.139 131.688  0.00  0.00    +0.000 HD
ENDBRANCH  19  20
ENDBRANCH  18  19
ENDBRANCH   1  18
TORSDOF 11
ENDMDL
MODEL 3
REMARK VINA RESULT:      -7.9      4.591      8.879
REMARK  Name = Carvedilol
REMARK  12 active torsions:
REMARK  status: ('A' for Active; 'I' for Inactive)
REMARK    1  A    between atoms: C_1  and  O_2
REMARK    2  A    between atoms: O_2  and  C_3
REMARK    3  A    between atoms: C_8  and  O_9
REMARK    4  A    between atoms: O_9  and  C_10
REMARK    5  A    between atoms: C_10  and  C_11
REMARK    6  A    between atoms: C_11  and  N_12
REMARK    7  A    between atoms: N_12  and  C_13
REMARK    8  A    between atoms: C_13  and  C_14
REMARK    9  A    between atoms: C_14  and  O_15
REMARK   10  A    between atoms: C_14  and  C_16
REMARK   11  A    between atoms: C_16  and  O_17
REMARK   12  A    between atoms: O_17  and  C_18
REMARK                            x       y       z     vdW  Elec       q    Type
REMARK                         _______ _______ _______ _____ _____    ______ ____
ROOT
ATOM      1  C   UNL     1      -7.146   2.065 127.764  0.00  0.00    +0.000 C 
ENDROOT
BRANCH   1   2
ATOM      2  O   UNL     1      -8.214   2.307 128.700  0.00  0.00    +0.000 OA
ATOM      3  H   UNL     1      -7.972   1.923 129.558  0.00  0.00    +0.000 HD
ENDBRANCH   1   2
BRANCH   1   4
ATOM      4  C   UNL     1      -6.908   3.329 126.919  0.00  0.00    +0.000 C 
BRANCH   4   5
ATOM      5  N   UNL     1      -8.105   3.828 126.243  0.00  0.00    +0.000 NA
ATOM      6  H   UNL     1      -8.748   3.050 126.066  0.00  0.00    +0.000 HD
BRANCH   5   7
ATOM      7  C   UNL     1      -7.718   4.519 124.993  0.00  0.00    +0.000 C 
BRANCH   7   8
ATOM      8  C   UNL     1      -6.652   3.710 124.279  0.00  0.00    +0.000 C 
BRANCH   8   9
ATOM      9  O   UNL     1      -7.047   2.688 123.401  0.00  0.00    +0.000 OA
BRANCH   9  15
ATOM     10  C   UNL     1      -6.182   3.545 121.156  0.00  0.00    +0.000 A 
ATOM     11  C   UNL     1      -6.619   4.101 119.936  0.00  0.00    +0.000 A 
ATOM     12  C   UNL     1      -7.979   4.253 119.639  0.00  0.00    +0.000 A 
ATOM     13  C   UNL     1      -8.936   3.803 120.536  0.00  0.00    +0.000 A 
ATOM     14  C   UNL     1      -8.530   3.253 121.749  0.00  0.00    +0.000 A 
ATOM     15  C   UNL     1      -7.169   3.142 122.094  0.00  0.00    +0.000 A 
BRANCH  10  17
ATOM     16  C   UNL     1      -4.301   4.995 121.729  0.00  0.00    +0.000 C 
ATOM     17  O   UNL     1      -4.826   3.718 121.351  0.00  0.00    +0.000 OA
ENDBRANCH  10  17
ENDBRANCH   9  15
ENDBRANCH   8   9
ENDBRANCH   7   8
ENDBRANCH   5   7
ENDBRANCH   4   5
ENDBRANCH   1   4
BRANCH   1  18
ATOM     18  C   UNL     1      -7.451   0.877 126.808  0.00  0.00    +0.000 C 
BRANCH  18  19
ATOM     19  O   UNL     1      -8.821   0.950 126.409  0.00  0.00    +0.000 OA
BRANCH  19  20
ATOM     20  C   UNL     1      -9.090   0.502 125.112  0.00  0.00    +0.000 A 
ATOM     21  C   UNL     1     -10.125   1.310 124.519  0.00  0.00    +0.000 A 
ATOM     22  C   UNL     1     -10.668   1.030 123.276  0.00  0.00    +0.000 A 
ATOM     23  C   UNL     1     -10.112   0.010 122.537  0.00  0.00    +0.000 A 
ATOM     24  C   UNL     1      -9.052  -0.719 123.086  0.00  0.00    +0.000 A 
ATOM     25  C   UNL     1      -8.508  -0.620 124.381  0.00  0.00    +0.000 A 
ATOM     26  C   UNL     1      -7.471  -1.733 124.409  0.00  0.00    +0.000 A 
ATOM     27  C   UNL     1      -6.652  -2.608 125.211  0.00  0.00    +0.000 A 
ATOM     28  C   UNL     1      -5.443  -3.168 124.658  0.00  0.00    +0.000 A 
ATOM     29  C   UNL     1      -5.042  -2.886 123.358  0.00  0.00    +0.000 A 
ATOM     30  C   UNL     1      -5.944  -2.268 122.513  0.00  0.00    +0.000 A 
ATOM     31  C   UNL     1      -7.159  -1.865 123.059  0.00  0.00    +0.000 A 
ATOM     32  N   UNL     1      -8.331  -1.651 122.397  0.00  0.00    +0.000 N 
ATOM     33  H   UNL     1      -8.515  -1.921 121.459  0.00  0.00    +0.000 HD
ENDBRANCH  19  20
ENDBRANCH  18  19
ENDBRANCH   1  18
TORSDOF 11
ENDMDL
MODEL 4
REMARK VINA RESULT:      -7.9      2.015      9.574
REMARK  Name = Carvedilol
REMARK  12 active torsions:
REMARK  status: ('A' for Active; 'I' for Inactive)
REMARK    1  A    between atoms: C_1  and  O_2
REMARK    2  A    between atoms: O_2  and  C_3
REMARK    3  A    between atoms: C_8  and  O_9
REMARK    4  A    between atoms: O_9  and  C_10
REMARK    5  A    between atoms: C_10  and  C_11
REMARK    6  A    between atoms: C_11  and  N_12
REMARK    7  A    between atoms: N_12  and  C_13
REMARK    8  A    between atoms: C_13  and  C_14
REMARK    9  A    between atoms: C_14  and  O_15
REMARK   10  A    between atoms: C_14  and  C_16
REMARK   11  A    between atoms: C_16  and  O_17
REMARK   12  A    between atoms: O_17  and  C_18
REMARK                            x       y       z     vdW  Elec       q    Type
REMARK                         _______ _______ _______ _____ _____    ______ ____
ROOT
ATOM      1  C   UNL     1      -6.768   3.527 127.988  0.00  0.00    +0.000 C 
ENDROOT
BRANCH   1   2
ATOM      2  O   UNL     1      -6.039   2.313 128.258  0.00  0.00    +0.000 OA
ATOM      3  H   UNL     1      -5.991   1.789 127.442  0.00  0.00    +0.000 HD
ENDBRANCH   1   2
BRANCH   1   4
ATOM      4  C   UNL     1      -7.567   3.934 129.240  0.00  0.00    +0.000 C 
BRANCH   4   5
ATOM      5  N   UNL     1      -9.018   3.902 129.056  0.00  0.00    +0.000 NA
ATOM      6  H   UNL     1      -9.320   4.750 128.567  0.00  0.00    +0.000 HD
BRANCH   5   7
ATOM      7  C   UNL     1      -9.681   3.759 130.371  0.00  0.00    +0.000 C 
BRANCH   7   8
ATOM      8  C   UNL     1     -10.724   4.849 130.531  0.00  0.00    +0.000 C 
BRANCH   8   9
ATOM      9  O   UNL     1     -11.728   4.978 129.558  0.00  0.00    +0.000 OA
BRANCH   9  15
ATOM     10  C   UNL     1     -12.413   7.107 128.323  0.00  0.00    +0.000 A 
ATOM     11  C   UNL     1     -12.759   8.456 128.543  0.00  0.00    +0.000 A 
ATOM     12  C   UNL     1     -12.892   8.984 129.833  0.00  0.00    +0.000 A 
ATOM     13  C   UNL     1     -12.733   8.158 130.937  0.00  0.00    +0.000 A 
ATOM     14  C   UNL     1     -12.388   6.823 130.746  0.00  0.00    +0.000 A 
ATOM     15  C   UNL     1     -12.192   6.283 129.460  0.00  0.00    +0.000 A 
BRANCH  10  17
ATOM     16  C   UNL     1     -10.934   7.464 126.411  0.00  0.00    +0.000 C 
ATOM     17  O   UNL     1     -12.089   6.861 127.004  0.00  0.00    +0.000 OA
ENDBRANCH  10  17
ENDBRANCH   9  15
ENDBRANCH   8   9
ENDBRANCH   7   8
ENDBRANCH   5   7
ENDBRANCH   4   5
ENDBRANCH   1   4
BRANCH   1  18
ATOM     18  C   UNL     1      -7.753   3.375 126.796  0.00  0.00    +0.000 C 
BRANCH  18  19
ATOM     19  O   UNL     1      -8.095   1.995 126.656  0.00  0.00    +0.000 OA
BRANCH  19  20
ATOM     20  C   UNL     1      -8.491   1.605 125.372  0.00  0.00    +0.000 A 
ATOM     21  C   UNL     1      -8.566   2.757 124.510  0.00  0.00    +0.000 A 
ATOM     22  C   UNL     1      -9.032   2.685 123.209  0.00  0.00    +0.000 A 
ATOM     23  C   UNL     1      -9.323   1.443 122.690  0.00  0.00    +0.000 A 
ATOM     24  C   UNL     1      -9.172   0.319 123.507  0.00  0.00    +0.000 A 
ATOM     25  C   UNL     1      -8.839   0.277 124.875  0.00  0.00    +0.000 A 
ATOM     26  C   UNL     1      -8.935  -1.204 125.212  0.00  0.00    +0.000 A 
ATOM     27  C   UNL     1      -9.075  -2.209 126.236  0.00  0.00    +0.000 A 
ATOM     28  C   UNL     1      -8.602  -3.550 125.998  0.00  0.00    +0.000 A 
ATOM     29  C   UNL     1      -8.011  -3.907 124.792  0.00  0.00    +0.000 A 
ATOM     30  C   UNL     1      -8.110  -3.030 123.729  0.00  0.00    +0.000 A 
ATOM     31  C   UNL     1      -8.699  -1.793 123.972  0.00  0.00    +0.000 A 
ATOM     32  N   UNL     1      -9.290  -0.967 123.063  0.00  0.00    +0.000 N 
ATOM     33  H   UNL     1      -9.530  -1.219 122.134  0.00  0.00    +0.000 HD
ENDBRANCH  19  20
ENDBRANCH  18  19
ENDBRANCH   1  18
TORSDOF 11
ENDMDL
MODEL 5
REMARK VINA RESULT:      -7.9      2.625      4.419
REMARK  Name = Carvedilol
REMARK  12 active torsions:
REMARK  status: ('A' for Active; 'I' for Inactive)
REMARK    1  A    between atoms: C_1  and  O_2
REMARK    2  A    between atoms: O_2  and  C_3
REMARK    3  A    between atoms: C_8  and  O_9
REMARK    4  A    between atoms: O_9  and  C_10
REMARK    5  A    between atoms: C_10  and  C_11
REMARK    6  A    between atoms: C_11  and  N_12
REMARK    7  A    between atoms: N_12  and  C_13
REMARK    8  A    between atoms: C_13  and  C_14
REMARK    9  A    between atoms: C_14  and  O_15
REMARK   10  A    between atoms: C_14  and  C_16
REMARK   11  A    between atoms: C_16  and  O_17
REMARK   12  A    between atoms: O_17  and  C_18
REMARK                            x       y       z     vdW  Elec       q    Type
REMARK                         _______ _______ _______ _____ _____    ______ ____
ROOT
ATOM      1  C   UNL     1      -7.845   3.632 126.269  0.00  0.00    +0.000 C 
ENDROOT
BRANCH   1   2
ATOM      2  O   UNL     1      -8.725   4.418 125.443  0.00  0.00    +0.000 OA
ATOM      3  H   UNL     1      -8.960   5.231 125.920  0.00  0.00    +0.000 HD
ENDBRANCH   1   2
BRANCH   1   4
ATOM      4  C   UNL     1      -8.363   2.184 126.339  0.00  0.00    +0.000 C 
BRANCH   4   5
ATOM      5  N   UNL     1      -8.681   1.602 125.035  0.00  0.00    +0.000 NA
ATOM      6  H   UNL     1      -9.483   0.972 125.128  0.00  0.00    +0.000 HD
BRANCH   5   7
ATOM      7  C   UNL     1      -7.490   0.903 124.501  0.00  0.00    +0.000 C 
BRANCH   7   8
ATOM      8  C   UNL     1      -7.052   1.569 123.211  0.00  0.00    +0.000 C 
BRANCH   8   9
ATOM      9  O   UNL     1      -7.175   2.963 123.088  0.00  0.00    +0.000 OA
BRANCH   9  15
ATOM     10  C   UNL     1      -6.246   3.723 120.833  0.00  0.00    +0.000 A 
ATOM     11  C   UNL     1      -6.647   4.230 119.581  0.00  0.00    +0.000 A 
ATOM     12  C   UNL     1      -7.998   4.376 119.241  0.00  0.00    +0.000 A 
ATOM     13  C   UNL     1      -8.982   3.968 120.130  0.00  0.00    +0.000 A 
ATOM     14  C   UNL     1      -8.611   3.466 121.375  0.00  0.00    +0.000 A 
ATOM     15  C   UNL     1      -7.260   3.363 121.761  0.00  0.00    +0.000 A 
BRANCH  10  17
ATOM     16  C   UNL     1      -4.387   5.157 121.509  0.00  0.00    +0.000 C 
ATOM     17  O   UNL     1      -4.895   3.897 121.057  0.00  0.00    +0.000 OA
ENDBRANCH  10  17
ENDBRANCH   9  15
ENDBRANCH   8   9
ENDBRANCH   7   8
ENDBRANCH   5   7
ENDBRANCH   4   5
ENDBRANCH   1   4
BRANCH   1  18
ATOM     18  C   UNL     1      -7.730   4.190 127.715  0.00  0.00    +0.000 C 
BRANCH  18  19
ATOM     19  O   UNL     1      -8.653   5.271 127.863  0.00  0.00    +0.000 OA
BRANCH  19  20
ATOM     20  C   UNL     1      -9.211   5.409 129.138  0.00  0.00    +0.000 A 
ATOM     21  C   UNL     1      -8.344   4.812 130.121  0.00  0.00    +0.000 A 
ATOM     22  C   UNL     1      -8.691   4.709 131.457  0.00  0.00    +0.000 A 
ATOM     23  C   UNL     1      -9.860   5.305 131.874  0.00  0.00    +0.000 A 
ATOM     24  C   UNL     1     -10.659   5.954 130.928  0.00  0.00    +0.000 A 
ATOM     25  C   UNL     1     -10.483   6.009 129.532  0.00  0.00    +0.000 A 
ATOM     26  C   UNL     1     -11.719   6.756 129.054  0.00  0.00    +0.000 A 
ATOM     27  C   UNL     1     -12.599   7.069 127.955  0.00  0.00    +0.000 A 
ATOM     28  C   UNL     1     -13.384   8.278 127.984  0.00  0.00    +0.000 A 
ATOM     29  C   UNL     1     -13.319   9.160 129.056  0.00  0.00    +0.000 A 
ATOM     30  C   UNL     1     -12.687   8.741 130.210  0.00  0.00    +0.000 A 
ATOM     31  C   UNL     1     -12.054   7.502 130.181  0.00  0.00    +0.000 A 
ATOM     32  N   UNL     1     -11.758   6.700 131.243  0.00  0.00    +0.000 N 
ATOM     33  H   UNL     1     -12.111   6.819 132.163  0.00  0.00    +0.000 HD
ENDBRANCH  19  20
ENDBRANCH  18  19
ENDBRANCH   1  18
TORSDOF 11
ENDMDL
MODEL 6
REMARK VINA RESULT:      -7.8      5.214      8.437
REMARK  Name = Carvedilol
REMARK  12 active torsions:
REMARK  status: ('A' for Active; 'I' for Inactive)
REMARK    1  A    between atoms: C_1  and  O_2
REMARK    2  A    between atoms: O_2  and  C_3
REMARK    3  A    between atoms: C_8  and  O_9
REMARK    4  A    between atoms: O_9  and  C_10
REMARK    5  A    between atoms: C_10  and  C_11
REMARK    6  A    between atoms: C_11  and  N_12
REMARK    7  A    between atoms: N_12  and  C_13
REMARK    8  A    between atoms: C_13  and  C_14
REMARK    9  A    between atoms: C_14  and  O_15
REMARK   10  A    between atoms: C_14  and  C_16
REMARK   11  A    between atoms: C_16  and  O_17
REMARK   12  A    between atoms: O_17  and  C_18
REMARK                            x       y       z     vdW  Elec       q    Type
REMARK                         _______ _______ _______ _____ _____    ______ ____
ROOT
ATOM      1  C   UNL     1      -5.545   1.801 126.079  0.00  0.00    +0.000 C 
ENDROOT
BRANCH   1   2
ATOM      2  O   UNL     1      -4.313   2.548 126.080  0.00  0.00    +0.000 OA
ATOM      3  H   UNL     1      -4.216   2.994 125.223  0.00  0.00    +0.000 HD
ENDBRANCH   1   2
BRANCH   1   4
ATOM      4  C   UNL     1      -6.719   2.749 126.386  0.00  0.00    +0.000 C 
BRANCH   4   5
ATOM      5  N   UNL     1      -7.757   2.763 125.355  0.00  0.00    +0.000 NA
ATOM      6  H   UNL     1      -8.672   2.607 125.788  0.00  0.00    +0.000 HD
BRANCH   5   7
ATOM      7  C   UNL     1      -7.450   1.742 124.328  0.00  0.00    +0.000 C 
BRANCH   7   8
ATOM      8  C   UNL     1      -8.419   1.886 123.170  0.00  0.00    +0.000 C 
BRANCH   8   9
ATOM      9  O   UNL     1      -8.771   3.173 122.732  0.00  0.00    +0.000 OA
BRANCH   9  15
ATOM     10  C   UNL     1      -6.742   3.772 121.302  0.00  0.00    +0.000 A 
ATOM     11  C   UNL     1      -6.386   4.253 120.025  0.00  0.00    +0.000 A 
ATOM     12  C   UNL     1      -7.342   4.475 119.026  0.00  0.00    +0.000 A 
ATOM     13  C   UNL     1      -8.675   4.172 119.266  0.00  0.00    +0.000 A 
ATOM     14  C   UNL     1      -9.052   3.699 120.521  0.00  0.00    +0.000 A 
ATOM     15  C   UNL     1      -8.117   3.522 121.559  0.00  0.00    +0.000 A 
BRANCH  10  17
ATOM     16  C   UNL     1      -4.557   4.679 121.914  0.00  0.00    +0.000 C 
ATOM     17  O   UNL     1      -5.699   3.864 122.202  0.00  0.00    +0.000 OA
ENDBRANCH  10  17
ENDBRANCH   9  15
ENDBRANCH   8   9
ENDBRANCH   7   8
ENDBRANCH   5   7
ENDBRANCH   4   5
ENDBRANCH   1   4
BRANCH   1  18
ATOM     18  C   UNL     1      -5.545   0.653 127.126  0.00  0.00    +0.000 C 
BRANCH  18  19
ATOM     19  O   UNL     1      -6.837   0.587 127.734  0.00  0.00    +0.000 OA
BRANCH  19  20
ATOM     20  C   UNL     1      -7.354  -0.702 127.900  0.00  0.00    +0.000 A 
ATOM     21  C   UNL     1      -7.619  -0.948 129.294  0.00  0.00    +0.000 A 
ATOM     22  C   UNL     1      -8.039  -2.180 129.767  0.00  0.00    +0.000 A 
ATOM     23  C   UNL     1      -8.323  -3.167 128.849  0.00  0.00    +0.000 A 
ATOM     24  C   UNL     1      -8.141  -2.895 127.489  0.00  0.00    +0.000 A 
ATOM     25  C   UNL     1      -7.594  -1.738 126.900  0.00  0.00    +0.000 A 
ATOM     26  C   UNL     1      -7.562  -2.085 125.419  0.00  0.00    +0.000 A 
ATOM     27  C   UNL     1      -7.007  -1.802 124.118  0.00  0.00    +0.000 A 
ATOM     28  C   UNL     1      -7.741  -2.159 122.930  0.00  0.00    +0.000 A 
ATOM     29  C   UNL     1      -8.983  -2.778 123.003  0.00  0.00    +0.000 A 
ATOM     30  C   UNL     1      -9.393  -3.280 124.223  0.00  0.00    +0.000 A 
ATOM     31  C   UNL     1      -8.582  -3.027 125.325  0.00  0.00    +0.000 A 
ATOM     32  N   UNL     1      -8.523  -3.738 126.487  0.00  0.00    +0.000 N 
ATOM     33  H   UNL     1      -8.929  -4.633 126.630  0.00  0.00    +0.000 HD
ENDBRANCH  19  20
ENDBRANCH  18  19
ENDBRANCH   1  18
TORSDOF 11
ENDMDL
MODEL 7
REMARK VINA RESULT:      -7.8      2.983      4.176
REMARK  Name = Carvedilol
REMARK  12 active torsions:
REMARK  status: ('A' for Active; 'I' for Inactive)
REMARK    1  A    between atoms: C_1  and  O_2
REMARK    2  A    between atoms: O_2  and  C_3
REMARK    3  A    between atoms: C_8  and  O_9
REMARK    4  A    between atoms: O_9  and  C_10
REMARK    5  A    between atoms: C_10  and  C_11
REMARK    6  A    between atoms: C_11  and  N_12
REMARK    7  A    between atoms: N_12  and  C_13
REMARK    8  A    between atoms: C_13  and  C_14
REMARK    9  A    between atoms: C_14  and  O_15
REMARK   10  A    between atoms: C_14  and  C_16
REMARK   11  A    between atoms: C_16  and  O_17
REMARK   12  A    between atoms: O_17  and  C_18
REMARK                            x       y       z     vdW  Elec       q    Type
REMARK                         _______ _______ _______ _____ _____    ______ ____
ROOT
ATOM      1  C   UNL     1      -7.534   4.432 128.069  0.00  0.00    +0.000 C 
ENDROOT
BRANCH   1   2
ATOM      2  O   UNL     1      -8.399   4.865 127.001  0.00  0.00    +0.000 OA
ATOM      3  H   UNL     1      -8.122   5.749 126.712  0.00  0.00    +0.000 HD
ENDBRANCH   1   2
BRANCH   1   4
ATOM      4  C   UNL     1      -6.400   3.566 127.491  0.00  0.00    +0.000 C 
BRANCH   4   5
ATOM      5  N   UNL     1      -5.257   4.334 126.998  0.00  0.00    +0.000 NA
ATOM      6  H   UNL     1      -5.512   5.323 126.930  0.00  0.00    +0.000 HD
BRANCH   5   7
ATOM      7  C   UNL     1      -4.819   3.787 125.694  0.00  0.00    +0.000 C 
BRANCH   7   8
ATOM      8  C   UNL     1      -5.828   4.161 124.626  0.00  0.00    +0.000 C 
BRANCH   8   9
ATOM      9  O   UNL     1      -6.385   3.147 123.831  0.00  0.00    +0.000 OA
BRANCH   9  15
ATOM     10  C   UNL     1      -7.791   3.489 121.726  0.00  0.00    +0.000 A 
ATOM     11  C   UNL     1      -7.692   3.887 120.377  0.00  0.00    +0.000 A 
ATOM     12  C   UNL     1      -6.492   4.361 119.832  0.00  0.00    +0.000 A 
ATOM     13  C   UNL     1      -5.373   4.497 120.641  0.00  0.00    +0.000 A 
ATOM     14  C   UNL     1      -5.444   4.107 121.976  0.00  0.00    +0.000 A 
ATOM     15  C   UNL     1      -6.624   3.574 122.532  0.00  0.00    +0.000 A 
BRANCH  10  17
ATOM     16  C   UNL     1      -9.150   2.106 123.212  0.00  0.00    +0.000 C 
ATOM     17  O   UNL     1      -8.973   2.825 121.987  0.00  0.00    +0.000 OA
ENDBRANCH  10  17
ENDBRANCH   9  15
ENDBRANCH   8   9
ENDBRANCH   7   8
ENDBRANCH   5   7
ENDBRANCH   4   5
ENDBRANCH   1   4
BRANCH   1  18
ATOM     18  C   UNL     1      -8.290   3.608 129.148  0.00  0.00    +0.000 C 
BRANCH  18  19
ATOM     19  O   UNL     1      -9.663   4.003 129.149  0.00  0.00    +0.000 OA
BRANCH  19  20
ATOM     20  C   UNL     1     -10.054   4.801 130.229  0.00  0.00    +0.000 A 
ATOM     21  C   UNL     1      -9.228   4.517 131.374  0.00  0.00    +0.000 A 
ATOM     22  C   UNL     1      -9.455   5.085 132.616  0.00  0.00    +0.000 A 
ATOM     23  C   UNL     1     -10.438   6.044 132.724  0.00  0.00    +0.000 A 
ATOM     24  C   UNL     1     -11.184   6.374 131.588  0.00  0.00    +0.000 A 
ATOM     25  C   UNL     1     -11.139   5.775 130.314  0.00  0.00    +0.000 A 
ATOM     26  C   UNL     1     -12.246   6.491 129.554  0.00  0.00    +0.000 A 
ATOM     27  C   UNL     1     -13.151   6.479 128.431  0.00  0.00    +0.000 A 
ATOM     28  C   UNL     1     -13.677   7.720 127.918  0.00  0.00    +0.000 A 
ATOM     29  C   UNL     1     -13.334   8.942 128.484  0.00  0.00    +0.000 A 
ATOM     30  C   UNL     1     -12.686   8.940 129.704  0.00  0.00    +0.000 A 
ATOM     31  C   UNL     1     -12.315   7.706 130.230  0.00  0.00    +0.000 A 
ATOM     32  N   UNL     1     -12.079   7.403 131.538  0.00  0.00    +0.000 N 
ATOM     33  H   UNL     1     -12.308   7.985 132.309  0.00  0.00    +0.000 HD
ENDBRANCH  19  20
ENDBRANCH  18  19
ENDBRANCH   1  18
TORSDOF 11
ENDMDL
MODEL 8
REMARK VINA RESULT:      -7.7      1.301      2.090
REMARK  Name = Carvedilol
REMARK  12 active torsions:
REMARK  status: ('A' for Active; 'I' for Inactive)
REMARK    1  A    between atoms: C_1  and  O_2
REMARK    2  A    between atoms: O_2  and  C_3
REMARK    3  A    between atoms: C_8  and  O_9
REMARK    4  A    between atoms: O_9  and  C_10
REMARK    5  A    between atoms: C_10  and  C_11
REMARK    6  A    between atoms: C_11  and  N_12
REMARK    7  A    between atoms: N_12  and  C_13
REMARK    8  A    between atoms: C_13  and  C_14
REMARK    9  A    between atoms: C_14  and  O_15
REMARK   10  A    between atoms: C_14  and  C_16
REMARK   11  A    between atoms: C_16  and  O_17
REMARK   12  A    between atoms: O_17  and  C_18
REMARK                            x       y       z     vdW  Elec       q    Type
REMARK                         _______ _______ _______ _____ _____    ______ ____
ROOT
ATOM      1  C   UNL     1      -7.521   4.118 127.459  0.00  0.00    +0.000 C 
ENDROOT
BRANCH   1   2
ATOM      2  O   UNL     1      -8.284   4.914 126.532  0.00  0.00    +0.000 OA
ATOM      3  H   UNL     1      -8.442   5.788 126.925  0.00  0.00    +0.000 HD
ENDBRANCH   1   2
BRANCH   1   4
ATOM      4  C   UNL     1      -7.642   2.631 127.079  0.00  0.00    +0.000 C 
BRANCH   4   5
ATOM      5  N   UNL     1      -8.830   2.314 126.287  0.00  0.00    +0.000 NA
ATOM      6  H   UNL     1      -9.636   2.823 126.660  0.00  0.00    +0.000 HD
BRANCH   5   7
ATOM      7  C   UNL     1      -9.051   0.850 126.289  0.00  0.00    +0.000 C 
BRANCH   7   8
ATOM      8  C   UNL     1      -7.740   0.143 126.568  0.00  0.00    +0.000 C 
BRANCH   8   9
ATOM      9  O   UNL     1      -7.007  -0.383 125.491  0.00  0.00    +0.000 OA
BRANCH   9  15
ATOM     10  C   UNL     1      -8.534  -1.009 123.542  0.00  0.00    +0.000 A 
ATOM     11  C   UNL     1      -9.328  -2.064 123.047  0.00  0.00    +0.000 A 
ATOM     12  C   UNL     1      -9.369  -3.315 123.675  0.00  0.00    +0.000 A 
ATOM     13  C   UNL     1      -8.574  -3.557 124.786  0.00  0.00    +0.000 A 
ATOM     14  C   UNL     1      -7.783  -2.530 125.296  0.00  0.00    +0.000 A 
ATOM     15  C   UNL     1      -7.769  -1.247 124.715  0.00  0.00    +0.000 A 
BRANCH  10  17
ATOM     16  C   UNL     1     -10.184   0.536 122.615  0.00  0.00    +0.000 C 
ATOM     17  O   UNL     1      -8.831   0.194 122.933  0.00  0.00    +0.000 OA
ENDBRANCH  10  17
ENDBRANCH   9  15
ENDBRANCH   8   9
ENDBRANCH   7   8
ENDBRANCH   5   7
ENDBRANCH   4   5
ENDBRANCH   1   4
BRANCH   1  18
ATOM     18  C   UNL     1      -7.998   4.297 128.928  0.00  0.00    +0.000 C 
BRANCH  18  19
ATOM     19  O   UNL     1      -9.418   4.449 128.934  0.00  0.00    +0.000 OA
BRANCH  19  20
ATOM     20  C   UNL     1      -9.943   5.120 130.043  0.00  0.00    +0.000 A 
ATOM     21  C   UNL     1      -9.163   4.815 131.215  0.00  0.00    +0.000 A 
ATOM     22  C   UNL     1      -9.513   5.258 132.479  0.00  0.00    +0.000 A 
ATOM     23  C   UNL     1     -10.582   6.119 132.594  0.00  0.00    +0.000 A 
ATOM     24  C   UNL     1     -11.287   6.476 131.440  0.00  0.00    +0.000 A 
ATOM     25  C   UNL     1     -11.114   5.988 130.131  0.00  0.00    +0.000 A 
ATOM     26  C   UNL     1     -12.233   6.667 129.356  0.00  0.00    +0.000 A 
ATOM     27  C   UNL     1     -13.066   6.670 128.178  0.00  0.00    +0.000 A 
ATOM     28  C   UNL     1     -13.671   7.899 127.728  0.00  0.00    +0.000 A 
ATOM     29  C   UNL     1     -13.473   9.095 128.406  0.00  0.00    +0.000 A 
ATOM     30  C   UNL     1     -12.900   9.049 129.662  0.00  0.00    +0.000 A 
ATOM     31  C   UNL     1     -12.451   7.813 130.116  0.00  0.00    +0.000 A 
ATOM     32  N   UNL     1     -12.266   7.426 131.410  0.00  0.00    +0.000 N 
ATOM     33  H   UNL     1     -12.592   7.921 132.206  0.00  0.00    +0.000 HD
ENDBRANCH  19  20
ENDBRANCH  18  19
ENDBRANCH   1  18
TORSDOF 11
ENDMDL
MODEL 9
REMARK VINA RESULT:      -7.7      5.312      8.541
REMARK  Name = Carvedilol
REMARK  12 active torsions:
REMARK  status: ('A' for Active; 'I' for Inactive)
REMARK    1  A    between atoms: C_1  and  O_2
REMARK    2  A    between atoms: O_2  and  C_3
REMARK    3  A    between atoms: C_8  and  O_9
REMARK    4  A    between atoms: O_9  and  C_10
REMARK    5  A    between atoms: C_10  and  C_11
REMARK    6  A    between atoms: C_11  and  N_12
REMARK    7  A    between atoms: N_12  and  C_13
REMARK    8  A    between atoms: C_13  and  C_14
REMARK    9  A    between atoms: C_14  and  O_15
REMARK   10  A    between atoms: C_14  and  C_16
REMARK   11  A    between atoms: C_16  and  O_17
REMARK   12  A    between atoms: O_17  and  C_18
REMARK                            x       y       z     vdW  Elec       q    Type
REMARK                         _______ _______ _______ _____ _____    ______ ____
ROOT
ATOM      1  C   UNL     1      -4.890   0.050 130.162  0.00  0.00    +0.000 C 
ENDROOT
BRANCH   1   2
ATOM      2  O   UNL     1      -5.770   0.084 131.302  0.00  0.00    +0.000 OA
ATOM      3  H   UNL     1      -6.468  -0.580 131.180  0.00  0.00    +0.000 HD
ENDBRANCH   1   2
BRANCH   1   4
ATOM      4  C   UNL     1      -5.109   1.311 129.307  0.00  0.00    +0.000 C 
BRANCH   4   5
ATOM      5  N   UNL     1      -4.102   1.506 128.264  0.00  0.00    +0.000 NA
ATOM      6  H   UNL     1      -3.171   1.537 128.689  0.00  0.00    +0.000 HD
BRANCH   5   7
ATOM      7  C   UNL     1      -4.405   2.741 127.506  0.00  0.00    +0.000 C 
BRANCH   7   8
ATOM      8  C   UNL     1      -5.042   2.375 126.180  0.00  0.00    +0.000 C 
BRANCH   8   9
ATOM      9  O   UNL     1      -6.224   3.027 125.790  0.00  0.00    +0.000 OA
BRANCH   9  15
ATOM     10  C   UNL     1      -7.815   1.649 124.343  0.00  0.00    +0.000 A 
ATOM     11  C   UNL     1      -8.971   0.846 124.419  0.00  0.00    +0.000 A 
ATOM     12  C   UNL     1      -9.564   0.517 125.644  0.00  0.00    +0.000 A 
ATOM     13  C   UNL     1      -8.982   0.944 126.829  0.00  0.00    +0.000 A 
ATOM     14  C   UNL     1      -7.841   1.742 126.781  0.00  0.00    +0.000 A 
ATOM     15  C   UNL     1      -7.260   2.132 125.558  0.00  0.00    +0.000 A 
BRANCH  10  17
ATOM     16  C   UNL     1      -8.427   2.961 122.374  0.00  0.00    +0.000 C 
ATOM     17  O   UNL     1      -7.548   2.056 123.051  0.00  0.00    +0.000 OA
ENDBRANCH  10  17
ENDBRANCH   9  15
ENDBRANCH   8   9
ENDBRANCH   7   8
ENDBRANCH   5   7
ENDBRANCH   4   5
ENDBRANCH   1   4
BRANCH   1  18
ATOM     18  C   UNL     1      -5.121  -1.202 129.271  0.00  0.00    +0.000 C 
BRANCH  18  19
ATOM     19  O   UNL     1      -6.023  -0.856 128.218  0.00  0.00    +0.000 OA
BRANCH  19  20
ATOM     20  C   UNL     1      -6.954  -1.844 127.880  0.00  0.00    +0.000 A 
ATOM     21  C   UNL     1      -7.656  -2.281 129.060  0.00  0.00    +0.000 A 
ATOM     22  C   UNL     1      -8.564  -3.325 129.042  0.00  0.00    +0.000 A 
ATOM     23  C   UNL     1      -8.889  -3.885 127.827  0.00  0.00    +0.000 A 
ATOM     24  C   UNL     1      -8.264  -3.401 126.673  0.00  0.00    +0.000 A 
ATOM     25  C   UNL     1      -7.233  -2.445 126.579  0.00  0.00    +0.000 A 
ATOM     26  C   UNL     1      -6.910  -2.427 125.093  0.00  0.00    +0.000 A 
ATOM     27  C   UNL     1      -5.959  -2.091 124.061  0.00  0.00    +0.000 A 
ATOM     28  C   UNL     1      -6.414  -1.852 122.714  0.00  0.00    +0.000 A 
ATOM     29  C   UNL     1      -7.759  -1.939 122.377  0.00  0.00    +0.000 A 
ATOM     30  C   UNL     1      -8.628  -2.508 123.288  0.00  0.00    +0.000 A 
ATOM     31  C   UNL     1      -8.113  -2.850 124.535  0.00  0.00    +0.000 A 
ATOM     32  N   UNL     1      -8.608  -3.775 125.407  0.00  0.00    +0.000 N 
ATOM     33  H   UNL     1      -9.304  -4.448 125.190  0.00  0.00    +0.000 HD
ENDBRANCH  19  20
ENDBRANCH  18  19
ENDBRANCH   1  18
TORSDOF 11
ENDMDL
