MODEL 1
REMARK VINA RESULT:      -6.1      0.000      0.000
REMARK  Name = Cedazuridine
REMARK  5 active torsions:
REMARK  status: ('A' for Active; 'I' for Inactive)
REMARK    1  A    between atoms: O_1  and  C_2
REMARK    2  A    between atoms: C_2  and  C_3
REMARK    3  A    between atoms: C_5  and  N_6
REMARK    4  A    between atoms: C_9  and  O_10
REMARK    5  A    between atoms: C_17  and  O_18
REMARK                            x       y       z     vdW  Elec       q    Type
REMARK                         _______ _______ _______ _____ _____    ______ ____
ROOT
ATOM      1  C   UNL     1      -9.536   1.848 123.080  0.00  0.00    +0.000 C 
ATOM      2  O   UNL     1      -9.434   0.455 122.728  0.00  0.00    +0.000 OA
ATOM      3  C   UNL     1      -9.392  -0.305 123.952  0.00  0.00    +0.000 C 
ATOM      4  C   UNL     1      -9.220   0.682 125.123  0.00  0.00    +0.000 C 
ATOM      5  F   UNL     1     -10.373   0.814 125.824  0.00  0.00    +0.000 F 
ATOM      6  F   UNL     1      -8.258   0.313 125.999  0.00  0.00    +0.000 F 
ATOM      7  C   UNL     1      -8.869   1.992 124.443  0.00  0.00    +0.000 C 
ENDROOT
BRANCH   3   8
ATOM      8  N   UNL     1      -8.338  -1.298 123.807  0.00  0.00    +0.000 N 
ATOM      9  C   UNL     1      -7.054  -0.866 123.260  0.00  0.00    +0.000 C 
ATOM     10  C   UNL     1      -6.170  -2.028 122.856  0.00  0.00    +0.000 C 
ATOM     11  C   UNL     1      -6.164  -3.030 123.985  0.00  0.00    +0.000 C 
ATOM     12  N   UNL     1      -7.497  -3.398 124.326  0.00  0.00    +0.000 N 
ATOM     13  C   UNL     1      -8.550  -2.547 124.342  0.00  0.00    +0.000 C 
ATOM     14  O   UNL     1      -9.625  -2.923 124.810  0.00  0.00    +0.000 OA
ATOM     15  H   UNL     1      -7.694  -4.344 124.620  0.00  0.00    +0.000 HD
BRANCH  11  16
ATOM     16  O   UNL     1      -5.545  -2.512 125.146  0.00  0.00    +0.000 OA
ATOM     17  H   UNL     1      -6.132  -1.829 125.510  0.00  0.00    +0.000 HD
ENDBRANCH  11  16
ENDBRANCH   3   8
BRANCH   7  18
ATOM     18  O   UNL     1      -9.300   3.168 125.132  0.00  0.00    +0.000 OA
ATOM     19  H   UNL     1      -8.553   3.794 125.161  0.00  0.00    +0.000 HD
ENDBRANCH   7  18
BRANCH   1  20
ATOM     20  C   UNL     1      -8.891   2.697 121.978  0.00  0.00    +0.000 C 
BRANCH  20  21
ATOM     21  O   UNL     1      -8.198   3.817 122.523  0.00  0.00    +0.000 OA
ATOM     22  H   UNL     1      -8.569   4.620 122.120  0.00  0.00    +0.000 HD
ENDBRANCH  20  21
ENDBRANCH   1  20
TORSDOF 5
ENDMDL
MODEL 2
REMARK VINA RESULT:      -6.0      1.712      1.792
REMARK  Name = Cedazuridine
REMARK  5 active torsions:
REMARK  status: ('A' for Active; 'I' for Inactive)
REMARK    1  A    between atoms: O_1  and  C_2
REMARK    2  A    between atoms: C_2  and  C_3
REMARK    3  A    between atoms: C_5  and  N_6
REMARK    4  A    between atoms: C_9  and  O_10
REMARK    5  A    between atoms: C_17  and  O_18
REMARK                            x       y       z     vdW  Elec       q    Type
REMARK                         _______ _______ _______ _____ _____    ______ ____
ROOT
ATOM      1  C   UNL     1      -7.610   2.898 123.475  0.00  0.00    +0.000 C 
ATOM      2  O   UNL     1      -7.406   1.588 122.912  0.00  0.00    +0.000 OA
ATOM      3  C   UNL     1      -8.477   0.741 123.375  0.00  0.00    +0.000 C 
ATOM      4  C   UNL     1      -9.250   1.501 124.470  0.00  0.00    +0.000 C 
ATOM      5  F   UNL     1     -10.452   1.931 124.011  0.00  0.00    +0.000 F 
ATOM      6  F   UNL     1      -9.486   0.757 125.575  0.00  0.00    +0.000 F 
ATOM      7  C   UNL     1      -8.357   2.687 124.786  0.00  0.00    +0.000 C 
ENDROOT
BRANCH   3   8
ATOM      8  N   UNL     1      -7.881  -0.521 123.787  0.00  0.00    +0.000 N 
ATOM      9  C   UNL     1      -6.590  -0.483 124.472  0.00  0.00    +0.000 C 
ATOM     10  C   UNL     1      -5.931  -1.844 124.551  0.00  0.00    +0.000 C 
ATOM     11  C   UNL     1      -6.961  -2.840 125.027  0.00  0.00    +0.000 C 
ATOM     12  N   UNL     1      -8.113  -2.794 124.190  0.00  0.00    +0.000 N 
ATOM     13  C   UNL     1      -8.635  -1.663 123.659  0.00  0.00    +0.000 C 
ATOM     14  O   UNL     1      -9.725  -1.709 123.089  0.00  0.00    +0.000 OA
ATOM     15  H   UNL     1      -8.623  -3.645 123.995  0.00  0.00    +0.000 HD
BRANCH  11  16
ATOM     16  O   UNL     1      -7.375  -2.578 126.353  0.00  0.00    +0.000 OA
ATOM     17  H   UNL     1      -8.347  -2.552 126.356  0.00  0.00    +0.000 HD
ENDBRANCH  11  16
ENDBRANCH   3   8
BRANCH   7  18
ATOM     18  O   UNL     1      -9.044   3.866 125.212  0.00  0.00    +0.000 OA
ATOM     19  H   UNL     1      -8.626   4.180 126.036  0.00  0.00    +0.000 HD
ENDBRANCH   7  18
BRANCH   1  20
ATOM     20  C   UNL     1      -6.253   3.595 123.637  0.00  0.00    +0.000 C 
BRANCH  20  21
ATOM     21  O   UNL     1      -6.406   4.922 124.134  0.00  0.00    +0.000 OA
ATOM     22  H   UNL     1      -6.153   5.536 123.423  0.00  0.00    +0.000 HD
ENDBRANCH  20  21
ENDBRANCH   1  20
TORSDOF 5
ENDMDL
MODEL 3
REMARK VINA RESULT:      -5.9      8.596      9.490
REMARK  Name = Cedazuridine
REMARK  5 active torsions:
REMARK  status: ('A' for Active; 'I' for Inactive)
REMARK    1  A    between atoms: O_1  and  C_2
REMARK    2  A    between atoms: C_2  and  C_3
REMARK    3  A    between atoms: C_5  and  N_6
REMARK    4  A    between atoms: C_9  and  O_10
REMARK    5  A    between atoms: C_17  and  O_18
REMARK                            x       y       z     vdW  Elec       q    Type
REMARK                         _______ _______ _______ _____ _____    ______ ____
ROOT
ATOM      1  C   UNL     1     -11.904   7.418 127.979  0.00  0.00    +0.000 C 
ATOM      2  O   UNL     1     -11.467   6.139 128.476  0.00  0.00    +0.000 OA
ATOM      3  C   UNL     1     -11.948   6.008 129.830  0.00  0.00    +0.000 C 
ATOM      4  C   UNL     1     -12.505   7.374 130.274  0.00  0.00    +0.000 C 
ATOM      5  F   UNL     1     -13.861   7.358 130.317  0.00  0.00    +0.000 F 
ATOM      6  F   UNL     1     -12.070   7.760 131.496  0.00  0.00    +0.000 F 
ATOM      7  C   UNL     1     -12.028   8.328 129.195  0.00  0.00    +0.000 C 
ENDROOT
BRANCH   3   8
ATOM      8  N   UNL     1     -10.847   5.488 130.629  0.00  0.00    +0.000 N 
ATOM      9  C   UNL     1     -10.013   6.442 131.357  0.00  0.00    +0.000 C 
ATOM     10  C   UNL     1      -8.730   5.822 131.871  0.00  0.00    +0.000 C 
ATOM     11  C   UNL     1      -9.075   4.516 132.545  0.00  0.00    +0.000 C 
ATOM     12  N   UNL     1      -9.814   3.683 131.657  0.00  0.00    +0.000 N 
ATOM     13  C   UNL     1     -10.752   4.126 130.787  0.00  0.00    +0.000 C 
ATOM     14  O   UNL     1     -11.451   3.312 130.184  0.00  0.00    +0.000 OA
ATOM     15  H   UNL     1      -9.679   2.682 131.683  0.00  0.00    +0.000 HD
BRANCH  11  16
ATOM     16  O   UNL     1      -9.854   4.712 133.708  0.00  0.00    +0.000 OA
ATOM     17  H   UNL     1     -10.727   4.317 133.545  0.00  0.00    +0.000 HD
ENDBRANCH  11  16
ENDBRANCH   3   8
BRANCH   7  18
ATOM     18  O   UNL     1     -12.887   9.443 128.948  0.00  0.00    +0.000 OA
ATOM     19  H   UNL     1     -12.857  10.028 129.728  0.00  0.00    +0.000 HD
ENDBRANCH   7  18
BRANCH   1  20
ATOM     20  C   UNL     1     -10.906   7.918 126.927  0.00  0.00    +0.000 C 
BRANCH  20  21
ATOM     21  O   UNL     1     -10.348   6.836 126.184  0.00  0.00    +0.000 OA
ATOM     22  H   UNL     1     -11.044   6.168 126.065  0.00  0.00    +0.000 HD
ENDBRANCH  20  21
ENDBRANCH   1  20
TORSDOF 5
ENDMDL
MODEL 4
REMARK VINA RESULT:      -5.9      2.888      5.245
REMARK  Name = Cedazuridine
REMARK  5 active torsions:
REMARK  status: ('A' for Active; 'I' for Inactive)
REMARK    1  A    between atoms: O_1  and  C_2
REMARK    2  A    between atoms: C_2  and  C_3
REMARK    3  A    between atoms: C_5  and  N_6
REMARK    4  A    between atoms: C_9  and  O_10
REMARK    5  A    between atoms: C_17  and  O_18
REMARK                            x       y       z     vdW  Elec       q    Type
REMARK                         _______ _______ _______ _____ _____    ______ ____
ROOT
ATOM      1  C   UNL     1      -8.833  -0.395 124.675  0.00  0.00    +0.000 C 
ATOM      2  O   UNL     1      -8.242   0.604 125.527  0.00  0.00    +0.000 OA
ATOM      3  C   UNL     1      -8.789   1.883 125.148  0.00  0.00    +0.000 C 
ATOM      4  C   UNL     1      -9.579   1.697 123.838  0.00  0.00    +0.000 C 
ATOM      5  F   UNL     1     -10.916   1.746 124.062  0.00  0.00    +0.000 F 
ATOM      6  F   UNL     1      -9.295   2.631 122.902  0.00  0.00    +0.000 F 
ATOM      7  C   UNL     1      -9.180   0.310 123.369  0.00  0.00    +0.000 C 
ENDROOT
BRANCH   3   8
ATOM      8  N   UNL     1      -7.681   2.825 125.085  0.00  0.00    +0.000 N 
ATOM      9  C   UNL     1      -6.369   2.320 124.685  0.00  0.00    +0.000 C 
ATOM     10  C   UNL     1      -5.253   3.303 124.973  0.00  0.00    +0.000 C 
ATOM     11  C   UNL     1      -5.679   4.660 124.469  0.00  0.00    +0.000 C 
ATOM     12  N   UNL     1      -6.937   5.022 125.029  0.00  0.00    +0.000 N 
ATOM     13  C   UNL     1      -7.960   4.161 125.244  0.00  0.00    +0.000 C 
ATOM     14  O   UNL     1      -9.061   4.601 125.576  0.00  0.00    +0.000 OA
ATOM     15  H   UNL     1      -7.124   5.989 125.255  0.00  0.00    +0.000 HD
BRANCH  11  16
ATOM     16  O   UNL     1      -5.806   4.684 123.061  0.00  0.00    +0.000 OA
ATOM     17  H   UNL     1      -5.616   5.591 122.766  0.00  0.00    +0.000 HD
ENDBRANCH  11  16
ENDBRANCH   3   8
BRANCH   7  18
ATOM     18  O   UNL     1     -10.180  -0.391 122.627  0.00  0.00    +0.000 OA
ATOM     19  H   UNL     1     -10.625   0.247 122.039  0.00  0.00    +0.000 HD
ENDBRANCH   7  18
BRANCH   1  20
ATOM     20  C   UNL     1      -7.852  -1.563 124.511  0.00  0.00    +0.000 C 
BRANCH  20  21
ATOM     21  O   UNL     1      -8.383  -2.570 123.652  0.00  0.00    +0.000 OA
ATOM     22  H   UNL     1      -7.840  -2.588 122.845  0.00  0.00    +0.000 HD
ENDBRANCH  20  21
ENDBRANCH   1  20
TORSDOF 5
ENDMDL
MODEL 5
REMARK VINA RESULT:      -5.6      2.079      3.364
REMARK  Name = Cedazuridine
REMARK  5 active torsions:
REMARK  status: ('A' for Active; 'I' for Inactive)
REMARK    1  A    between atoms: O_1  and  C_2
REMARK    2  A    between atoms: C_2  and  C_3
REMARK    3  A    between atoms: C_5  and  N_6
REMARK    4  A    between atoms: C_9  and  O_10
REMARK    5  A    between atoms: C_17  and  O_18
REMARK                            x       y       z     vdW  Elec       q    Type
REMARK                         _______ _______ _______ _____ _____    ______ ____
ROOT
ATOM      1  C   UNL     1      -7.637   2.015 126.131  0.00  0.00    +0.000 C 
ATOM      2  O   UNL     1      -7.071   0.704 125.946  0.00  0.00    +0.000 OA
ATOM      3  C   UNL     1      -7.256   0.340 124.563  0.00  0.00    +0.000 C 
ATOM      4  C   UNL     1      -8.194   1.375 123.915  0.00  0.00    +0.000 C 
ATOM      5  F   UNL     1      -7.509   2.207 123.090  0.00  0.00    +0.000 F 
ATOM      6  F   UNL     1      -9.188   0.819 123.186  0.00  0.00    +0.000 F 
ATOM      7  C   UNL     1      -8.747   2.151 125.096  0.00  0.00    +0.000 C 
ENDROOT
BRANCH   3   8
ATOM      8  N   UNL     1      -7.729  -1.038 124.540  0.00  0.00    +0.000 N 
ATOM      9  C   UNL     1      -8.792  -1.417 125.468  0.00  0.00    +0.000 C 
ATOM     10  C   UNL     1      -8.962  -2.918 125.578  0.00  0.00    +0.000 C 
ATOM     11  C   UNL     1      -8.995  -3.492 124.182  0.00  0.00    +0.000 C 
ATOM     12  N   UNL     1      -7.841  -3.085 123.454  0.00  0.00    +0.000 N 
ATOM     13  C   UNL     1      -7.269  -1.861 123.540  0.00  0.00    +0.000 C 
ATOM     14  O   UNL     1      -6.378  -1.552 122.748  0.00  0.00    +0.000 OA
ATOM     15  H   UNL     1      -7.421  -3.719 122.788  0.00  0.00    +0.000 HD
BRANCH  11  16
ATOM     16  O   UNL     1     -10.136  -3.066 123.464  0.00  0.00    +0.000 OA
ATOM     17  H   UNL     1     -10.060  -2.106 123.339  0.00  0.00    +0.000 HD
ENDBRANCH  11  16
ENDBRANCH   3   8
BRANCH   7  18
ATOM     18  O   UNL     1      -9.069   3.518 124.827  0.00  0.00    +0.000 OA
ATOM     19  H   UNL     1      -9.031   4.010 125.668  0.00  0.00    +0.000 HD
ENDBRANCH   7  18
BRANCH   1  20
ATOM     20  C   UNL     1      -8.116   2.158 127.581  0.00  0.00    +0.000 C 
BRANCH  20  21
ATOM     21  O   UNL     1      -8.529   3.494 127.863  0.00  0.00    +0.000 OA
ATOM     22  H   UNL     1      -7.746   4.066 127.793  0.00  0.00    +0.000 HD
ENDBRANCH  20  21
ENDBRANCH   1  20
TORSDOF 5
ENDMDL
MODEL 6
REMARK VINA RESULT:      -5.5      8.227      9.235
REMARK  Name = Cedazuridine
REMARK  5 active torsions:
REMARK  status: ('A' for Active; 'I' for Inactive)
REMARK    1  A    between atoms: O_1  and  C_2
REMARK    2  A    between atoms: C_2  and  C_3
REMARK    3  A    between atoms: C_5  and  N_6
REMARK    4  A    between atoms: C_9  and  O_10
REMARK    5  A    between atoms: C_17  and  O_18
REMARK                            x       y       z     vdW  Elec       q    Type
REMARK                         _______ _______ _______ _____ _____    ______ ____
ROOT
ATOM      1  C   UNL     1     -10.783   6.973 128.609  0.00  0.00    +0.000 C 
ATOM      2  O   UNL     1      -9.480   6.362 128.663  0.00  0.00    +0.000 OA
ATOM      3  C   UNL     1      -9.527   5.321 129.659  0.00  0.00    +0.000 C 
ATOM      4  C   UNL     1     -10.855   5.451 130.428  0.00  0.00    +0.000 C 
ATOM      5  F   UNL     1     -11.722   4.470 130.075  0.00  0.00    +0.000 F 
ATOM      6  F   UNL     1     -10.707   5.390 131.771  0.00  0.00    +0.000 F 
ATOM      7  C   UNL     1     -11.392   6.803 129.995  0.00  0.00    +0.000 C 
ENDROOT
BRANCH   3   8
ATOM      8  N   UNL     1      -8.320   5.441 130.465  0.00  0.00    +0.000 N 
ATOM      9  C   UNL     1      -7.905   6.776 130.891  0.00  0.00    +0.000 C 
ATOM     10  C   UNL     1      -6.489   6.804 131.428  0.00  0.00    +0.000 C 
ATOM     11  C   UNL     1      -6.333   5.664 132.404  0.00  0.00    +0.000 C 
ATOM     12  N   UNL     1      -6.702   4.434 131.789  0.00  0.00    +0.000 N 
ATOM     13  C   UNL     1      -7.729   4.286 130.919  0.00  0.00    +0.000 C 
ATOM     14  O   UNL     1      -8.071   3.155 130.573  0.00  0.00    +0.000 OA
ATOM     15  H   UNL     1      -6.206   3.586 132.029  0.00  0.00    +0.000 HD
BRANCH  11  16
ATOM     16  O   UNL     1      -7.141   5.837 133.551  0.00  0.00    +0.000 OA
ATOM     17  H   UNL     1      -7.351   4.953 133.896  0.00  0.00    +0.000 HD
ENDBRANCH  11  16
ENDBRANCH   3   8
BRANCH   7  18
ATOM     18  O   UNL     1     -12.817   6.911 129.975  0.00  0.00    +0.000 OA
ATOM     19  H   UNL     1     -13.188   6.019 129.844  0.00  0.00    +0.000 HD
ENDBRANCH   7  18
BRANCH   1  20
ATOM     20  C   UNL     1     -10.637   8.435 128.168  0.00  0.00    +0.000 C 
BRANCH  20  21
ATOM     21  O   UNL     1     -11.814   9.186 128.461  0.00  0.00    +0.000 OA
ATOM     22  H   UNL     1     -11.537  10.078 128.729  0.00  0.00    +0.000 HD
ENDBRANCH  20  21
ENDBRANCH   1  20
TORSDOF 5
ENDMDL
MODEL 7
REMARK VINA RESULT:      -5.5      2.359      5.256
REMARK  Name = Cedazuridine
REMARK  5 active torsions:
REMARK  status: ('A' for Active; 'I' for Inactive)
REMARK    1  A    between atoms: O_1  and  C_2
REMARK    2  A    between atoms: C_2  and  C_3
REMARK    3  A    between atoms: C_5  and  N_6
REMARK    4  A    between atoms: C_9  and  O_10
REMARK    5  A    between atoms: C_17  and  O_18
REMARK                            x       y       z     vdW  Elec       q    Type
REMARK                         _______ _______ _______ _____ _____    ______ ____
ROOT
ATOM      1  C   UNL     1      -8.547  -2.741 125.727  0.00  0.00    +0.000 C 
ATOM      2  O   UNL     1      -9.333  -1.549 125.543  0.00  0.00    +0.000 OA
ATOM      3  C   UNL     1      -9.353  -1.251 124.133  0.00  0.00    +0.000 C 
ATOM      4  C   UNL     1      -8.330  -2.168 123.435  0.00  0.00    +0.000 C 
ATOM      5  F   UNL     1      -8.952  -3.148 122.733  0.00  0.00    +0.000 F 
ATOM      6  F   UNL     1      -7.519  -1.512 122.574  0.00  0.00    +0.000 F 
ATOM      7  C   UNL     1      -7.541  -2.770 124.583  0.00  0.00    +0.000 C 
ENDROOT
BRANCH   3   8
ATOM      8  N   UNL     1      -9.114   0.178 123.991  0.00  0.00    +0.000 N 
ATOM      9  C   UNL     1      -8.070   0.788 124.813  0.00  0.00    +0.000 C 
ATOM     10  C   UNL     1      -8.142   2.301 124.818  0.00  0.00    +0.000 C 
ATOM     11  C   UNL     1      -8.292   2.771 123.392  0.00  0.00    +0.000 C 
ATOM     12  N   UNL     1      -9.408   2.134 122.777  0.00  0.00    +0.000 N 
ATOM     13  C   UNL     1      -9.765   0.844 122.980  0.00  0.00    +0.000 C 
ATOM     14  O   UNL     1     -10.642   0.342 122.277  0.00  0.00    +0.000 OA
ATOM     15  H   UNL     1      -9.968   2.644 122.108  0.00  0.00    +0.000 HD
BRANCH  11  16
ATOM     16  O   UNL     1      -7.145   2.482 122.618  0.00  0.00    +0.000 OA
ATOM     17  H   UNL     1      -7.423   2.442 121.687  0.00  0.00    +0.000 HD
ENDBRANCH  11  16
ENDBRANCH   3   8
BRANCH   7  18
ATOM     18  O   UNL     1      -7.031  -4.083 124.346  0.00  0.00    +0.000 OA
ATOM     19  H   UNL     1      -7.107  -4.593 125.174  0.00  0.00    +0.000 HD
ENDBRANCH   7  18
BRANCH   1  20
ATOM     20  C   UNL     1      -7.905  -2.712 127.120  0.00  0.00    +0.000 C 
BRANCH  20  21
ATOM     21  O   UNL     1      -8.677  -3.450 128.064  0.00  0.00    +0.000 OA
ATOM     22  H   UNL     1      -9.592  -3.484 127.737  0.00  0.00    +0.000 HD
ENDBRANCH  20  21
ENDBRANCH   1  20
TORSDOF 5
ENDMDL
MODEL 8
REMARK VINA RESULT:      -5.5      8.729     10.045
REMARK  Name = Cedazuridine
REMARK  5 active torsions:
REMARK  status: ('A' for Active; 'I' for Inactive)
REMARK    1  A    between atoms: O_1  and  C_2
REMARK    2  A    between atoms: C_2  and  C_3
REMARK    3  A    between atoms: C_5  and  N_6
REMARK    4  A    between atoms: C_9  and  O_10
REMARK    5  A    between atoms: C_17  and  O_18
REMARK                            x       y       z     vdW  Elec       q    Type
REMARK                         _______ _______ _______ _____ _____    ______ ____
ROOT
ATOM      1  C   UNL     1     -12.073   8.499 127.979  0.00  0.00    +0.000 C 
ATOM      2  O   UNL     1     -11.230   8.688 129.132  0.00  0.00    +0.000 OA
ATOM      3  C   UNL     1     -10.165   7.719 129.058  0.00  0.00    +0.000 C 
ATOM      4  C   UNL     1     -10.498   6.724 127.930  0.00  0.00    +0.000 C 
ATOM      5  F   UNL     1      -9.713   6.936 126.844  0.00  0.00    +0.000 F 
ATOM      6  F   UNL     1     -10.341   5.430 128.291  0.00  0.00    +0.000 F 
ATOM      7  C   UNL     1     -11.946   7.030 127.595  0.00  0.00    +0.000 C 
ENDROOT
BRANCH   3   8
ATOM      8  N   UNL     1     -10.018   7.138 130.385  0.00  0.00    +0.000 N 
ATOM      9  C   UNL     1     -11.217   6.635 131.054  0.00  0.00    +0.000 C 
ATOM     10  C   UNL     1     -10.993   6.366 132.528  0.00  0.00    +0.000 C 
ATOM     11  C   UNL     1      -9.712   5.582 132.675  0.00  0.00    +0.000 C 
ATOM     12  N   UNL     1      -8.639   6.266 132.035  0.00  0.00    +0.000 N 
ATOM     13  C   UNL     1      -8.746   6.946 130.869  0.00  0.00    +0.000 C 
ATOM     14  O   UNL     1      -7.728   7.359 130.314  0.00  0.00    +0.000 OA
ATOM     15  H   UNL     1      -7.712   6.226 132.435  0.00  0.00    +0.000 HD
BRANCH  11  16
ATOM     16  O   UNL     1      -9.813   4.295 132.100  0.00  0.00    +0.000 OA
ATOM     17  H   UNL     1     -10.738   4.167 131.831  0.00  0.00    +0.000 HD
ENDBRANCH  11  16
ENDBRANCH   3   8
BRANCH   7  18
ATOM     18  O   UNL     1     -12.317   6.794 126.235  0.00  0.00    +0.000 OA
ATOM     19  H   UNL     1     -12.117   5.863 126.023  0.00  0.00    +0.000 HD
ENDBRANCH   7  18
BRANCH   1  20
ATOM     20  C   UNL     1     -13.504   8.931 128.324  0.00  0.00    +0.000 C 
BRANCH  20  21
ATOM     21  O   UNL     1     -13.567  10.321 128.634  0.00  0.00    +0.000 OA
ATOM     22  H   UNL     1     -13.305  10.429 129.565  0.00  0.00    +0.000 HD
ENDBRANCH  20  21
ENDBRANCH   1  20
TORSDOF 5
ENDMDL
MODEL 9
REMARK VINA RESULT:      -5.4      7.515      9.573
REMARK  Name = Cedazuridine
REMARK  5 active torsions:
REMARK  status: ('A' for Active; 'I' for Inactive)
REMARK    1  A    between atoms: O_1  and  C_2
REMARK    2  A    between atoms: C_2  and  C_3
REMARK    3  A    between atoms: C_5  and  N_6
REMARK    4  A    between atoms: C_9  and  O_10
REMARK    5  A    between atoms: C_17  and  O_18
REMARK                            x       y       z     vdW  Elec       q    Type
REMARK                         _______ _______ _______ _____ _____    ______ ____
ROOT
ATOM      1  C   UNL     1      -7.902   4.244 130.260  0.00  0.00    +0.000 C 
ATOM      2  O   UNL     1      -8.470   5.535 130.553  0.00  0.00    +0.000 OA
ATOM      3  C   UNL     1      -9.838   5.328 130.960  0.00  0.00    +0.000 C 
ATOM      4  C   UNL     1     -10.206   3.860 130.675  0.00  0.00    +0.000 C 
ATOM      5  F   UNL     1     -10.276   3.143 131.825  0.00  0.00    +0.000 F 
ATOM      6  F   UNL     1     -11.393   3.717 130.041  0.00  0.00    +0.000 F 
ATOM      7  C   UNL     1      -9.060   3.359 129.816  0.00  0.00    +0.000 C 
ENDROOT
BRANCH   3   8
ATOM      8  N   UNL     1     -10.647   6.324 130.270  0.00  0.00    +0.000 N 
ATOM      9  C   UNL     1     -10.265   6.702 128.911  0.00  0.00    +0.000 C 
ATOM     10  C   UNL     1     -10.967   7.958 128.436  0.00  0.00    +0.000 C 
ATOM     11  C   UNL     1     -12.436   7.825 128.754  0.00  0.00    +0.000 C 
ATOM     12  N   UNL     1     -12.618   7.540 130.137  0.00  0.00    +0.000 N 
ATOM     13  C   UNL     1     -11.815   6.732 130.869  0.00  0.00    +0.000 C 
ATOM     14  O   UNL     1     -12.151   6.417 132.011  0.00  0.00    +0.000 OA
ATOM     15  H   UNL     1     -13.418   7.921 130.625  0.00  0.00    +0.000 HD
BRANCH  11  16
ATOM     16  O   UNL     1     -13.044   6.787 128.011  0.00  0.00    +0.000 OA
ATOM     17  H   UNL     1     -12.502   5.989 128.128  0.00  0.00    +0.000 HD
ENDBRANCH  11  16
ENDBRANCH   3   8
BRANCH   7  18
ATOM     18  O   UNL     1      -8.761   1.968 129.955  0.00  0.00    +0.000 OA
ATOM     19  H   UNL     1      -7.855   1.886 130.307  0.00  0.00    +0.000 HD
ENDBRANCH   7  18
BRANCH   1  20
ATOM     20  C   UNL     1      -6.801   4.404 129.204  0.00  0.00    +0.000 C 
BRANCH  20  21
ATOM     21  O   UNL     1      -7.352   4.668 127.915  0.00  0.00    +0.000 OA
ATOM     22  H   UNL     1      -8.179   4.163 127.837  0.00  0.00    +0.000 HD
ENDBRANCH  20  21
ENDBRANCH   1  20
TORSDOF 5
ENDMDL
