MODEL 1
REMARK VINA RESULT:      -7.3      0.000      0.000
REMARK  Name = Cefapirin
REMARK  10 active torsions:
REMARK  status: ('A' for Active; 'I' for Inactive)
REMARK    1  A    between atoms: C_5  and  C_6
REMARK    2  A    between atoms: C_6  and  O_7
REMARK    3  A    between atoms: O_7  and  C_8
REMARK    4  A    between atoms: C_8  and  C_9
REMARK    5  A    between atoms: CA_11  and  C_27
REMARK    6  A    between atoms: CA_15  and  N_16
REMARK    7  A    between atoms: C_17  and  C_19
REMARK    8  A    between atoms: C_19  and  S_20
REMARK    9  A    between atoms: S_20  and  C_21
REMARK   10  A    between atoms: C_27  and  O_28
REMARK                            x       y       z     vdW  Elec       q    Type
REMARK                         _______ _______ _______ _____ _____    ______ ____
ROOT
ATOM      1  C   UNL     1      -6.966   2.407 127.086  0.00  0.00    +0.000 C 
ATOM      2  S   UNL     1      -8.005   0.936 127.257  0.00  0.00    +0.000 S 
ATOM      3  C   UNL     1      -7.238   0.106 125.823  0.00  0.00    +0.000 C 
ATOM      4  C   UNL     1      -7.271   0.947 124.565  0.00  0.00    +0.000 C 
ATOM      5  CA  UNL     1      -7.320   2.313 124.582  0.00  0.00    +0.000 C 
ATOM      6  N   UNL     1      -7.232   3.008 125.775  0.00  0.00    +0.000 N 
ATOM      7  C   UNL     1      -7.967   4.045 126.265  0.00  0.00    +0.000 C 
ATOM      8  O   UNL     1      -8.637   4.857 125.678  0.00  0.00    +0.000 OA
ATOM      9  CA  UNL     1      -7.493   3.737 127.721  0.00  0.00    +0.000 C 
ENDROOT
BRANCH   9  10
ATOM     10  N   UNL     1      -8.475   3.682 128.875  0.00  0.00    +0.000 N 
ATOM     11  C   UNL     1      -8.512   4.745 129.777  0.00  0.00    +0.000 C 
ATOM     12  O   UNL     1      -7.689   5.655 129.664  0.00  0.00    +0.000 OA
ATOM     13  H   UNL     1      -9.147   2.925 128.952  0.00  0.00    +0.000 HD
BRANCH  11  14
ATOM     14  C   UNL     1      -9.612   4.722 130.865  0.00  0.00    +0.000 C 
BRANCH  14  15
ATOM     15  S   UNL     1     -10.124   6.461 131.265  0.00  0.00    +0.000 S 
BRANCH  15  16
ATOM     16  C   UNL     1     -11.019   7.007 129.821  0.00  0.00    +0.000 A 
ATOM     17  C   UNL     1     -12.262   6.487 129.467  0.00  0.00    +0.000 A 
ATOM     18  C   UNL     1     -12.857   6.941 128.297  0.00  0.00    +0.000 A 
ATOM     19  N   UNL     1     -12.296   7.842 127.463  0.00  0.00    +0.000 NA
ATOM     20  C   UNL     1     -11.071   8.293 127.799  0.00  0.00    +0.000 A 
ATOM     21  C   UNL     1     -10.399   7.904 128.948  0.00  0.00    +0.000 A 
ENDBRANCH  15  16
ENDBRANCH  14  15
ENDBRANCH  11  14
ENDBRANCH   9  10
BRANCH   5  22
ATOM     22  C   UNL     1      -7.429   3.053 123.250  0.00  0.00    +0.000 C 
ATOM     23  OXT UNL     1      -6.461   3.385 122.577  0.00  0.00    +0.000 OA
BRANCH  22  24
ATOM     24  O   UNL     1      -8.660   3.430 122.862  0.00  0.00    +0.000 OA
ATOM     25  H   UNL     1      -9.349   3.445 123.553  0.00  0.00    +0.000 HD
ENDBRANCH  22  24
ENDBRANCH   5  22
BRANCH   4  26
ATOM     26  C   UNL     1      -7.273   0.151 123.254  0.00  0.00    +0.000 C 
BRANCH  26  27
ATOM     27  O   UNL     1      -7.682  -1.216 123.421  0.00  0.00    +0.000 OA
BRANCH  27  28
ATOM     28  C   UNL     1      -8.955  -1.611 123.162  0.00  0.00    +0.000 C 
ATOM     29  C   UNL     1      -9.337  -3.060 123.321  0.00  0.00    +0.000 C 
ATOM     30  O   UNL     1      -9.793  -0.784 122.812  0.00  0.00    +0.000 OA
ENDBRANCH  27  28
ENDBRANCH  26  27
ENDBRANCH   4  26
TORSDOF 9
ENDMDL
MODEL 2
REMARK VINA RESULT:      -6.9      1.553      2.158
REMARK  Name = Cefapirin
REMARK  10 active torsions:
REMARK  status: ('A' for Active; 'I' for Inactive)
REMARK    1  A    between atoms: C_5  and  C_6
REMARK    2  A    between atoms: C_6  and  O_7
REMARK    3  A    between atoms: O_7  and  C_8
REMARK    4  A    between atoms: C_8  and  C_9
REMARK    5  A    between atoms: CA_11  and  C_27
REMARK    6  A    between atoms: CA_15  and  N_16
REMARK    7  A    between atoms: C_17  and  C_19
REMARK    8  A    between atoms: C_19  and  S_20
REMARK    9  A    between atoms: S_20  and  C_21
REMARK   10  A    between atoms: C_27  and  O_28
REMARK                            x       y       z     vdW  Elec       q    Type
REMARK                         _______ _______ _______ _____ _____    ______ ____
ROOT
ATOM      1  C   UNL     1      -6.764   1.295 127.605  0.00  0.00    +0.000 C 
ATOM      2  S   UNL     1      -7.427  -0.117 128.520  0.00  0.00    +0.000 S 
ATOM      3  C   UNL     1      -6.600  -1.333 127.438  0.00  0.00    +0.000 C 
ATOM      4  C   UNL     1      -6.916  -1.131 125.971  0.00  0.00    +0.000 C 
ATOM      5  CA  UNL     1      -7.272   0.078 125.444  0.00  0.00    +0.000 C 
ATOM      6  N   UNL     1      -7.257   1.221 126.224  0.00  0.00    +0.000 N 
ATOM      7  C   UNL     1      -8.168   2.222 126.369  0.00  0.00    +0.000 C 
ATOM      8  O   UNL     1      -9.048   2.574 125.622  0.00  0.00    +0.000 OA
ATOM      9  CA  UNL     1      -7.531   2.655 127.727  0.00  0.00    +0.000 C 
ENDROOT
BRANCH   9  10
ATOM     10  N   UNL     1      -8.386   2.928 128.948  0.00  0.00    +0.000 N 
ATOM     11  C   UNL     1      -8.547   4.247 129.374  0.00  0.00    +0.000 C 
ATOM     12  O   UNL     1      -7.921   5.141 128.802  0.00  0.00    +0.000 OA
ATOM     13  H   UNL     1      -8.896   2.179 129.406  0.00  0.00    +0.000 HD
BRANCH  11  14
ATOM     14  C   UNL     1      -9.529   4.507 130.541  0.00  0.00    +0.000 C 
BRANCH  14  15
ATOM     15  S   UNL     1      -9.435   6.292 131.044  0.00  0.00    +0.000 S 
BRANCH  15  16
ATOM     16  C   UNL     1     -10.632   7.113 130.007  0.00  0.00    +0.000 A 
ATOM     17  C   UNL     1     -10.266   7.949 128.954  0.00  0.00    +0.000 A 
ATOM     18  C   UNL     1     -11.270   8.583 128.236  0.00  0.00    +0.000 A 
ATOM     19  N   UNL     1     -12.587   8.460 128.508  0.00  0.00    +0.000 NA
ATOM     20  C   UNL     1     -12.916   7.688 129.563  0.00  0.00    +0.000 A 
ATOM     21  C   UNL     1     -11.986   7.011 130.336  0.00  0.00    +0.000 A 
ENDBRANCH  15  16
ENDBRANCH  14  15
ENDBRANCH  11  14
ENDBRANCH   9  10
BRANCH   5  22
ATOM     22  C   UNL     1      -7.645   0.146 123.964  0.00  0.00    +0.000 C 
ATOM     23  OXT UNL     1      -6.826   0.282 123.064  0.00  0.00    +0.000 OA
BRANCH  22  24
ATOM     24  O   UNL     1      -8.956   0.146 123.666  0.00  0.00    +0.000 OA
ATOM     25  H   UNL     1      -9.545  -0.316 124.293  0.00  0.00    +0.000 HD
ENDBRANCH  22  24
ENDBRANCH   5  22
BRANCH   4  26
ATOM     26  C   UNL     1      -6.835  -2.399 125.111  0.00  0.00    +0.000 C 
BRANCH  26  27
ATOM     27  O   UNL     1      -7.894  -3.333 125.376  0.00  0.00    +0.000 OA
BRANCH  27  28
ATOM     28  C   UNL     1      -9.158  -3.115 124.932  0.00  0.00    +0.000 C 
ATOM     29  C   UNL     1      -9.489  -3.328 123.478  0.00  0.00    +0.000 C 
ATOM     30  O   UNL     1     -10.031  -2.760 125.720  0.00  0.00    +0.000 OA
ENDBRANCH  27  28
ENDBRANCH  26  27
ENDBRANCH   4  26
TORSDOF 9
ENDMDL
MODEL 3
REMARK VINA RESULT:      -6.8      2.561      3.189
REMARK  Name = Cefapirin
REMARK  10 active torsions:
REMARK  status: ('A' for Active; 'I' for Inactive)
REMARK    1  A    between atoms: C_5  and  C_6
REMARK    2  A    between atoms: C_6  and  O_7
REMARK    3  A    between atoms: O_7  and  C_8
REMARK    4  A    between atoms: C_8  and  C_9
REMARK    5  A    between atoms: CA_11  and  C_27
REMARK    6  A    between atoms: CA_15  and  N_16
REMARK    7  A    between atoms: C_17  and  C_19
REMARK    8  A    between atoms: C_19  and  S_20
REMARK    9  A    between atoms: S_20  and  C_21
REMARK   10  A    between atoms: C_27  and  O_28
REMARK                            x       y       z     vdW  Elec       q    Type
REMARK                         _______ _______ _______ _____ _____    ______ ____
ROOT
ATOM      1  C   UNL     1      -5.710   2.486 125.892  0.00  0.00    +0.000 C 
ATOM      2  S   UNL     1      -5.840   0.926 126.799  0.00  0.00    +0.000 S 
ATOM      3  C   UNL     1      -6.174  -0.041 125.287  0.00  0.00    +0.000 C 
ATOM      4  C   UNL     1      -7.339   0.499 124.485  0.00  0.00    +0.000 C 
ATOM      5  CA  UNL     1      -7.730   1.808 124.525  0.00  0.00    +0.000 C 
ATOM      6  N   UNL     1      -6.996   2.743 125.233  0.00  0.00    +0.000 N 
ATOM      7  C   UNL     1      -7.384   3.716 126.103  0.00  0.00    +0.000 C 
ATOM      8  O   UNL     1      -8.454   4.258 126.223  0.00  0.00    +0.000 OA
ATOM      9  CA  UNL     1      -5.942   3.808 126.697  0.00  0.00    +0.000 C 
ENDROOT
BRANCH   9  10
ATOM     10  N   UNL     1      -5.706   3.827 128.195  0.00  0.00    +0.000 N 
ATOM     11  C   UNL     1      -5.098   4.945 128.764  0.00  0.00    +0.000 C 
ATOM     12  O   UNL     1      -4.690   5.845 128.028  0.00  0.00    +0.000 OA
ATOM     13  H   UNL     1      -6.050   3.077 128.786  0.00  0.00    +0.000 HD
BRANCH  11  14
ATOM     14  C   UNL     1      -4.989   4.993 130.307  0.00  0.00    +0.000 C 
BRANCH  14  15
ATOM     15  S   UNL     1      -5.506   6.670 130.913  0.00  0.00    +0.000 S 
BRANCH  15  16
ATOM     16  C   UNL     1      -7.170   6.437 131.513  0.00  0.00    +0.000 A 
ATOM     17  C   UNL     1      -8.292   6.833 130.789  0.00  0.00    +0.000 A 
ATOM     18  C   UNL     1      -9.544   6.654 131.362  0.00  0.00    +0.000 A 
ATOM     19  N   UNL     1      -9.745   6.139 132.593  0.00  0.00    +0.000 NA
ATOM     20  C   UNL     1      -8.643   5.811 133.297  0.00  0.00    +0.000 A 
ATOM     21  C   UNL     1      -7.352   5.947 132.809  0.00  0.00    +0.000 A 
ENDBRANCH  15  16
ENDBRANCH  14  15
ENDBRANCH  11  14
ENDBRANCH   9  10
BRANCH   5  22
ATOM     22  C   UNL     1      -8.969   2.222 123.733  0.00  0.00    +0.000 C 
ATOM     23  OXT UNL     1      -8.930   2.652 122.587  0.00  0.00    +0.000 OA
BRANCH  22  24
ATOM     24  O   UNL     1     -10.146   2.188 124.383  0.00  0.00    +0.000 OA
ATOM     25  H   UNL     1     -10.375   2.977 124.911  0.00  0.00    +0.000 HD
ENDBRANCH  22  24
ENDBRANCH   5  22
BRANCH   4  26
ATOM     26  C   UNL     1      -8.078  -0.543 123.636  0.00  0.00    +0.000 C 
BRANCH  26  27
ATOM     27  O   UNL     1      -8.878  -1.447 124.415  0.00  0.00    +0.000 OA
BRANCH  27  28
ATOM     28  C   UNL     1      -8.986  -2.760 124.086  0.00  0.00    +0.000 C 
ATOM     29  C   UNL     1      -7.971  -3.748 124.601  0.00  0.00    +0.000 C 
ATOM     30  O   UNL     1      -9.918  -3.140 123.382  0.00  0.00    +0.000 OA
ENDBRANCH  27  28
ENDBRANCH  26  27
ENDBRANCH   4  26
TORSDOF 9
ENDMDL
MODEL 4
REMARK VINA RESULT:      -6.5      4.731      5.900
REMARK  Name = Cefapirin
REMARK  10 active torsions:
REMARK  status: ('A' for Active; 'I' for Inactive)
REMARK    1  A    between atoms: C_5  and  C_6
REMARK    2  A    between atoms: C_6  and  O_7
REMARK    3  A    between atoms: O_7  and  C_8
REMARK    4  A    between atoms: C_8  and  C_9
REMARK    5  A    between atoms: CA_11  and  C_27
REMARK    6  A    between atoms: CA_15  and  N_16
REMARK    7  A    between atoms: C_17  and  C_19
REMARK    8  A    between atoms: C_19  and  S_20
REMARK    9  A    between atoms: S_20  and  C_21
REMARK   10  A    between atoms: C_27  and  O_28
REMARK                            x       y       z     vdW  Elec       q    Type
REMARK                         _______ _______ _______ _____ _____    ______ ____
ROOT
ATOM      1  C   UNL     1      -4.490   2.913 126.215  0.00  0.00    +0.000 C 
ATOM      2  S   UNL     1      -5.316   1.727 127.301  0.00  0.00    +0.000 S 
ATOM      3  C   UNL     1      -5.746   0.611 125.922  0.00  0.00    +0.000 C 
ATOM      4  C   UNL     1      -6.496   1.309 124.807  0.00  0.00    +0.000 C 
ATOM      5  CA  UNL     1      -6.384   2.647 124.556  0.00  0.00    +0.000 C 
ATOM      6  N   UNL     1      -5.477   3.423 125.256  0.00  0.00    +0.000 N 
ATOM      7  C   UNL     1      -5.610   4.638 125.856  0.00  0.00    +0.000 C 
ATOM      8  O   UNL     1      -6.414   5.513 125.650  0.00  0.00    +0.000 OA
ATOM      9  CA  UNL     1      -4.343   4.383 126.734  0.00  0.00    +0.000 C 
ENDROOT
BRANCH   9  10
ATOM     10  N   UNL     1      -4.348   4.658 128.224  0.00  0.00    +0.000 N 
ATOM     11  C   UNL     1      -4.130   5.962 128.667  0.00  0.00    +0.000 C 
ATOM     12  O   UNL     1      -3.852   6.835 127.844  0.00  0.00    +0.000 OA
ATOM     13  H   UNL     1      -4.580   3.926 128.888  0.00  0.00    +0.000 HD
BRANCH  11  14
ATOM     14  C   UNL     1      -4.271   6.235 130.184  0.00  0.00    +0.000 C 
BRANCH  14  15
ATOM     15  S   UNL     1      -2.885   5.402 131.096  0.00  0.00    +0.000 S 
BRANCH  15  16
ATOM     16  C   UNL     1      -2.020   6.733 131.909  0.00  0.00    +0.000 A 
ATOM     17  C   UNL     1      -0.707   6.613 132.358  0.00  0.00    +0.000 A 
ATOM     18  C   UNL     1      -0.136   7.688 133.025  0.00  0.00    +0.000 A 
ATOM     19  N   UNL     1      -0.783   8.843 133.290  0.00  0.00    +0.000 NA
ATOM     20  C   UNL     1      -2.069   8.918 132.893  0.00  0.00    +0.000 A 
ATOM     21  C   UNL     1      -2.724   7.900 132.216  0.00  0.00    +0.000 A 
ENDBRANCH  15  16
ENDBRANCH  14  15
ENDBRANCH  11  14
ENDBRANCH   9  10
BRANCH   5  22
ATOM     22  C   UNL     1      -7.249   3.256 123.455  0.00  0.00    +0.000 C 
ATOM     23  OXT UNL     1      -6.914   3.309 122.279  0.00  0.00    +0.000 OA
BRANCH  22  24
ATOM     24  O   UNL     1      -8.399   3.840 123.838  0.00  0.00    +0.000 OA
ATOM     25  H   UNL     1      -8.359   4.396 124.639  0.00  0.00    +0.000 HD
ENDBRANCH  22  24
ENDBRANCH   5  22
BRANCH   4  26
ATOM     26  C   UNL     1      -7.426   0.404 123.988  0.00  0.00    +0.000 C 
BRANCH  26  27
ATOM     27  O   UNL     1      -6.734  -0.371 122.996  0.00  0.00    +0.000 OA
BRANCH  27  28
ATOM     28  C   UNL     1      -6.846  -1.723 122.949  0.00  0.00    +0.000 C 
ATOM     29  C   UNL     1      -5.676  -2.587 123.339  0.00  0.00    +0.000 C 
ATOM     30  O   UNL     1      -7.907  -2.237 122.601  0.00  0.00    +0.000 OA
ENDBRANCH  27  28
ENDBRANCH  26  27
ENDBRANCH   4  26
TORSDOF 9
ENDMDL
MODEL 5
REMARK VINA RESULT:      -6.5      2.094      2.613
REMARK  Name = Cefapirin
REMARK  10 active torsions:
REMARK  status: ('A' for Active; 'I' for Inactive)
REMARK    1  A    between atoms: C_5  and  C_6
REMARK    2  A    between atoms: C_6  and  O_7
REMARK    3  A    between atoms: O_7  and  C_8
REMARK    4  A    between atoms: C_8  and  C_9
REMARK    5  A    between atoms: CA_11  and  C_27
REMARK    6  A    between atoms: CA_15  and  N_16
REMARK    7  A    between atoms: C_17  and  C_19
REMARK    8  A    between atoms: C_19  and  S_20
REMARK    9  A    between atoms: S_20  and  C_21
REMARK   10  A    between atoms: C_27  and  O_28
REMARK                            x       y       z     vdW  Elec       q    Type
REMARK                         _______ _______ _______ _____ _____    ______ ____
ROOT
ATOM      1  C   UNL     1      -4.950   2.645 126.613  0.00  0.00    +0.000 C 
ATOM      2  S   UNL     1      -5.960   1.305 127.288  0.00  0.00    +0.000 S 
ATOM      3  C   UNL     1      -6.000   0.401 125.702  0.00  0.00    +0.000 C 
ATOM      4  C   UNL     1      -6.493   1.251 124.549  0.00  0.00    +0.000 C 
ATOM      5  CA  UNL     1      -6.381   2.612 124.525  0.00  0.00    +0.000 C 
ATOM      6  N   UNL     1      -5.701   3.283 125.525  0.00  0.00    +0.000 N 
ATOM      7  C   UNL     1      -6.025   4.396 126.241  0.00  0.00    +0.000 C 
ATOM      8  O   UNL     1      -6.793   5.285 125.971  0.00  0.00    +0.000 OA
ATOM      9  CA  UNL     1      -4.995   4.023 127.354  0.00  0.00    +0.000 C 
ENDROOT
BRANCH   9  10
ATOM     10  N   UNL     1      -5.366   4.075 128.822  0.00  0.00    +0.000 N 
ATOM     11  C   UNL     1      -5.158   5.261 129.526  0.00  0.00    +0.000 C 
ATOM     12  O   UNL     1      -4.599   6.202 128.961  0.00  0.00    +0.000 OA
ATOM     13  H   UNL     1      -5.828   3.290 129.271  0.00  0.00    +0.000 HD
BRANCH  11  14
ATOM     14  C   UNL     1      -5.668   5.325 130.986  0.00  0.00    +0.000 C 
BRANCH  14  15
ATOM     15  S   UNL     1      -6.804   6.781 131.182  0.00  0.00    +0.000 S 
BRANCH  15  16
ATOM     16  C   UNL     1      -8.413   6.157 130.727  0.00  0.00    +0.000 A 
ATOM     17  C   UNL     1      -8.704   4.796 130.676  0.00  0.00    +0.000 A 
ATOM     18  C   UNL     1      -9.971   4.408 130.262  0.00  0.00    +0.000 A 
ATOM     19  N   UNL     1     -10.939   5.269 129.881  0.00  0.00    +0.000 NA
ATOM     20  C   UNL     1     -10.618   6.578 129.889  0.00  0.00    +0.000 A 
ATOM     21  C   UNL     1      -9.383   7.063 130.290  0.00  0.00    +0.000 A 
ENDBRANCH  15  16
ENDBRANCH  14  15
ENDBRANCH  11  14
ENDBRANCH   9  10
BRANCH   5  22
ATOM     22  C   UNL     1      -6.984   3.370 123.344  0.00  0.00    +0.000 C 
ATOM     23  OXT UNL     1      -6.370   3.627 122.316  0.00  0.00    +0.000 OA
BRANCH  22  24
ATOM     24  O   UNL     1      -8.230   3.851 123.502  0.00  0.00    +0.000 OA
ATOM     25  H   UNL     1      -8.796   3.866 122.706  0.00  0.00    +0.000 HD
ENDBRANCH  22  24
ENDBRANCH   5  22
BRANCH   4  26
ATOM     26  C   UNL     1      -7.161   0.470 123.410  0.00  0.00    +0.000 C 
BRANCH  26  27
ATOM     27  O   UNL     1      -8.425  -0.103 123.779  0.00  0.00    +0.000 OA
BRANCH  27  28
ATOM     28  C   UNL     1      -9.421   0.657 124.302  0.00  0.00    +0.000 C 
ATOM     29  C   UNL     1      -9.781   0.524 125.759  0.00  0.00    +0.000 C 
ATOM     30  O   UNL     1     -10.016   1.462 123.589  0.00  0.00    +0.000 OA
ENDBRANCH  27  28
ENDBRANCH  26  27
ENDBRANCH   4  26
TORSDOF 9
ENDMDL
MODEL 6
REMARK VINA RESULT:      -6.4      3.267      4.072
REMARK  Name = Cefapirin
REMARK  10 active torsions:
REMARK  status: ('A' for Active; 'I' for Inactive)
REMARK    1  A    between atoms: C_5  and  C_6
REMARK    2  A    between atoms: C_6  and  O_7
REMARK    3  A    between atoms: O_7  and  C_8
REMARK    4  A    between atoms: C_8  and  C_9
REMARK    5  A    between atoms: CA_11  and  C_27
REMARK    6  A    between atoms: CA_15  and  N_16
REMARK    7  A    between atoms: C_17  and  C_19
REMARK    8  A    between atoms: C_19  and  S_20
REMARK    9  A    between atoms: S_20  and  C_21
REMARK   10  A    between atoms: C_27  and  O_28
REMARK                            x       y       z     vdW  Elec       q    Type
REMARK                         _______ _______ _______ _____ _____    ______ ____
ROOT
ATOM      1  C   UNL     1      -4.395   2.808 126.274  0.00  0.00    +0.000 C 
ATOM      2  S   UNL     1      -5.285   1.684 127.377  0.00  0.00    +0.000 S 
ATOM      3  C   UNL     1      -5.772   0.572 126.014  0.00  0.00    +0.000 C 
ATOM      4  C   UNL     1      -6.483   1.292 124.888  0.00  0.00    +0.000 C 
ATOM      5  CA  UNL     1      -6.299   2.618 124.617  0.00  0.00    +0.000 C 
ATOM      6  N   UNL     1      -5.352   3.355 125.306  0.00  0.00    +0.000 N 
ATOM      7  C   UNL     1      -5.421   4.585 125.887  0.00  0.00    +0.000 C 
ATOM      8  O   UNL     1      -6.177   5.498 125.666  0.00  0.00    +0.000 OA
ATOM      9  CA  UNL     1      -4.171   4.276 126.771  0.00  0.00    +0.000 C 
ENDROOT
BRANCH   9  10
ATOM     10  N   UNL     1      -4.163   4.573 128.257  0.00  0.00    +0.000 N 
ATOM     11  C   UNL     1      -3.346   5.599 128.732  0.00  0.00    +0.000 C 
ATOM     12  O   UNL     1      -2.590   6.174 127.947  0.00  0.00    +0.000 OA
ATOM     13  H   UNL     1      -4.793   4.090 128.889  0.00  0.00    +0.000 HD
BRANCH  11  14
ATOM     14  C   UNL     1      -3.457   5.966 130.231  0.00  0.00    +0.000 C 
BRANCH  14  15
ATOM     15  S   UNL     1      -4.607   7.410 130.432  0.00  0.00    +0.000 S 
BRANCH  15  16
ATOM     16  C   UNL     1      -5.945   6.781 131.430  0.00  0.00    +0.000 A 
ATOM     17  C   UNL     1      -5.733   6.024 132.580  0.00  0.00    +0.000 A 
ATOM     18  C   UNL     1      -6.840   5.537 133.262  0.00  0.00    +0.000 A 
ATOM     19  N   UNL     1      -8.116   5.730 132.868  0.00  0.00    +0.000 NA
ATOM     20  C   UNL     1      -8.296   6.421 131.724  0.00  0.00    +0.000 A 
ATOM     21  C   UNL     1      -7.256   6.951 130.977  0.00  0.00    +0.000 A 
ENDBRANCH  15  16
ENDBRANCH  14  15
ENDBRANCH  11  14
ENDBRANCH   9  10
BRANCH   5  22
ATOM     22  C   UNL     1      -7.130   3.255 123.504  0.00  0.00    +0.000 C 
ATOM     23  OXT UNL     1      -6.798   3.258 122.326  0.00  0.00    +0.000 OA
BRANCH  22  24
ATOM     24  O   UNL     1      -8.236   3.922 123.877  0.00  0.00    +0.000 OA
ATOM     25  H   UNL     1      -8.133   4.566 124.604  0.00  0.00    +0.000 HD
ENDBRANCH  22  24
ENDBRANCH   5  22
BRANCH   4  26
ATOM     26  C   UNL     1      -7.458   0.426 124.081  0.00  0.00    +0.000 C 
BRANCH  26  27
ATOM     27  O   UNL     1      -6.843  -0.230 122.961  0.00  0.00    +0.000 OA
BRANCH  27  28
ATOM     28  C   UNL     1      -6.791  -1.584 122.873  0.00  0.00    +0.000 C 
ATOM     29  C   UNL     1      -7.831  -2.420 123.573  0.00  0.00    +0.000 C 
ATOM     30  O   UNL     1      -5.906  -2.122 122.212  0.00  0.00    +0.000 OA
ENDBRANCH  27  28
ENDBRANCH  26  27
ENDBRANCH   4  26
TORSDOF 9
ENDMDL
MODEL 7
REMARK VINA RESULT:      -6.4      4.460      8.703
REMARK  Name = Cefapirin
REMARK  10 active torsions:
REMARK  status: ('A' for Active; 'I' for Inactive)
REMARK    1  A    between atoms: C_5  and  C_6
REMARK    2  A    between atoms: C_6  and  O_7
REMARK    3  A    between atoms: O_7  and  C_8
REMARK    4  A    between atoms: C_8  and  C_9
REMARK    5  A    between atoms: CA_11  and  C_27
REMARK    6  A    between atoms: CA_15  and  N_16
REMARK    7  A    between atoms: C_17  and  C_19
REMARK    8  A    between atoms: C_19  and  S_20
REMARK    9  A    between atoms: S_20  and  C_21
REMARK   10  A    between atoms: C_27  and  O_28
REMARK                            x       y       z     vdW  Elec       q    Type
REMARK                         _______ _______ _______ _____ _____    ______ ____
ROOT
ATOM      1  C   UNL     1      -7.318   2.645 130.571  0.00  0.00    +0.000 C 
ATOM      2  S   UNL     1      -8.376   2.484 129.113  0.00  0.00    +0.000 S 
ATOM      3  C   UNL     1      -8.426   4.286 128.826  0.00  0.00    +0.000 C 
ATOM      4  C   UNL     1      -8.880   5.066 130.042  0.00  0.00    +0.000 C 
ATOM      5  CA  UNL     1      -8.726   4.611 131.321  0.00  0.00    +0.000 C 
ATOM      6  N   UNL     1      -8.037   3.439 131.575  0.00  0.00    +0.000 N 
ATOM      7  C   UNL     1      -8.335   2.377 132.375  0.00  0.00    +0.000 C 
ATOM      8  O   UNL     1      -9.073   2.316 133.327  0.00  0.00    +0.000 OA
ATOM      9  CA  UNL     1      -7.328   1.467 131.602  0.00  0.00    +0.000 C 
ENDROOT
BRANCH   9  10
ATOM     10  N   UNL     1      -7.713   0.074 131.146  0.00  0.00    +0.000 N 
ATOM     11  C   UNL     1      -7.007  -1.017 131.651  0.00  0.00    +0.000 C 
ATOM     12  O   UNL     1      -6.035  -0.815 132.381  0.00  0.00    +0.000 OA
ATOM     13  H   UNL     1      -8.518  -0.074 130.545  0.00  0.00    +0.000 HD
BRANCH  11  14
ATOM     14  C   UNL     1      -7.507  -2.432 131.271  0.00  0.00    +0.000 C 
BRANCH  14  15
ATOM     15  S   UNL     1      -6.478  -3.099 129.878  0.00  0.00    +0.000 S 
BRANCH  15  16
ATOM     16  C   UNL     1      -7.433  -2.757 128.411  0.00  0.00    +0.000 A 
ATOM     17  C   UNL     1      -7.387  -1.530 127.754  0.00  0.00    +0.000 A 
ATOM     18  C   UNL     1      -8.206  -1.342 126.649  0.00  0.00    +0.000 A 
ATOM     19  N   UNL     1      -9.068  -2.269 126.180  0.00  0.00    +0.000 NA
ATOM     20  C   UNL     1      -9.134  -3.430 126.862  0.00  0.00    +0.000 A 
ATOM     21  C   UNL     1      -8.353  -3.713 127.973  0.00  0.00    +0.000 A 
ENDBRANCH  15  16
ENDBRANCH  14  15
ENDBRANCH  11  14
ENDBRANCH   9  10
BRANCH   5  22
ATOM     22  C   UNL     1      -9.294   5.449 132.465  0.00  0.00    +0.000 C 
ATOM     23  OXT UNL     1      -8.665   6.329 133.038  0.00  0.00    +0.000 OA
BRANCH  22  24
ATOM     24  O   UNL     1     -10.521   5.123 132.908  0.00  0.00    +0.000 OA
ATOM     25  H   UNL     1     -10.729   5.361 133.831  0.00  0.00    +0.000 HD
ENDBRANCH  22  24
ENDBRANCH   5  22
BRANCH   4  26
ATOM     26  C   UNL     1      -9.559   6.406 129.734  0.00  0.00    +0.000 C 
BRANCH  26  27
ATOM     27  O   UNL     1     -10.364   6.375 128.544  0.00  0.00    +0.000 OA
BRANCH  27  28
ATOM     28  C   UNL     1     -10.583   7.494 127.807  0.00  0.00    +0.000 C 
ATOM     29  C   UNL     1     -11.384   7.410 126.535  0.00  0.00    +0.000 C 
ATOM     30  O   UNL     1     -10.138   8.575 128.189  0.00  0.00    +0.000 OA
ENDBRANCH  27  28
ENDBRANCH  26  27
ENDBRANCH   4  26
TORSDOF 9
ENDMDL
MODEL 8
REMARK VINA RESULT:      -6.3      2.413      3.380
REMARK  Name = Cefapirin
REMARK  10 active torsions:
REMARK  status: ('A' for Active; 'I' for Inactive)
REMARK    1  A    between atoms: C_5  and  C_6
REMARK    2  A    between atoms: C_6  and  O_7
REMARK    3  A    between atoms: O_7  and  C_8
REMARK    4  A    between atoms: C_8  and  C_9
REMARK    5  A    between atoms: CA_11  and  C_27
REMARK    6  A    between atoms: CA_15  and  N_16
REMARK    7  A    between atoms: C_17  and  C_19
REMARK    8  A    between atoms: C_19  and  S_20
REMARK    9  A    between atoms: S_20  and  C_21
REMARK   10  A    between atoms: C_27  and  O_28
REMARK                            x       y       z     vdW  Elec       q    Type
REMARK                         _______ _______ _______ _____ _____    ______ ____
ROOT
ATOM      1  C   UNL     1      -8.556   1.432 127.844  0.00  0.00    +0.000 C 
ATOM      2  S   UNL     1      -7.932   2.326 126.401  0.00  0.00    +0.000 S 
ATOM      3  C   UNL     1      -7.896   0.826 125.362  0.00  0.00    +0.000 C 
ATOM      4  C   UNL     1      -7.107  -0.307 125.985  0.00  0.00    +0.000 C 
ATOM      5  CA  UNL     1      -6.931  -0.439 127.333  0.00  0.00    +0.000 C 
ATOM      6  N   UNL     1      -7.568   0.413 128.217  0.00  0.00    +0.000 N 
ATOM      7  C   UNL     1      -7.105   1.088 129.306  0.00  0.00    +0.000 C 
ATOM      8  O   UNL     1      -6.143   0.862 129.997  0.00  0.00    +0.000 OA
ATOM      9  CA  UNL     1      -8.313   2.076 129.250  0.00  0.00    +0.000 C 
ENDROOT
BRANCH   9  10
ATOM     10  N   UNL     1      -8.112   3.574 129.366  0.00  0.00    +0.000 N 
ATOM     11  C   UNL     1      -9.176   4.362 129.805  0.00  0.00    +0.000 C 
ATOM     12  O   UNL     1     -10.272   3.834 130.001  0.00  0.00    +0.000 OA
ATOM     13  H   UNL     1      -7.202   3.992 129.202  0.00  0.00    +0.000 HD
BRANCH  11  14
ATOM     14  C   UNL     1      -8.902   5.867 130.040  0.00  0.00    +0.000 C 
BRANCH  14  15
ATOM     15  S   UNL     1     -10.480   6.716 130.526  0.00  0.00    +0.000 S 
BRANCH  15  16
ATOM     16  C   UNL     1     -11.346   6.968 128.987  0.00  0.00    +0.000 A 
ATOM     17  C   UNL     1     -12.719   6.778 128.857  0.00  0.00    +0.000 A 
ATOM     18  C   UNL     1     -13.294   6.951 127.605  0.00  0.00    +0.000 A 
ATOM     19  N   UNL     1     -12.600   7.271 126.492  0.00  0.00    +0.000 NA
ATOM     20  C   UNL     1     -11.265   7.399 126.630  0.00  0.00    +0.000 A 
ATOM     21  C   UNL     1     -10.602   7.251 127.838  0.00  0.00    +0.000 A 
ENDBRANCH  15  16
ENDBRANCH  14  15
ENDBRANCH  11  14
ENDBRANCH   9  10
BRANCH   5  22
ATOM     22  C   UNL     1      -6.050  -1.579 127.842  0.00  0.00    +0.000 C 
ATOM     23  OXT UNL     1      -6.474  -2.694 128.116  0.00  0.00    +0.000 OA
BRANCH  22  24
ATOM     24  O   UNL     1      -4.758  -1.289 128.082  0.00  0.00    +0.000 OA
ATOM     25  H   UNL     1      -4.184  -2.036 128.335  0.00  0.00    +0.000 HD
ENDBRANCH  22  24
ENDBRANCH   5  22
BRANCH   4  26
ATOM     26  C   UNL     1      -6.488  -1.290 124.984  0.00  0.00    +0.000 C 
BRANCH  26  27
ATOM     27  O   UNL     1      -7.349  -2.397 124.669  0.00  0.00    +0.000 OA
BRANCH  27  28
ATOM     28  C   UNL     1      -8.054  -2.439 123.510  0.00  0.00    +0.000 C 
ATOM     29  C   UNL     1      -9.365  -3.178 123.456  0.00  0.00    +0.000 C 
ATOM     30  O   UNL     1      -7.627  -1.860 122.513  0.00  0.00    +0.000 OA
ENDBRANCH  27  28
ENDBRANCH  26  27
ENDBRANCH   4  26
TORSDOF 9
ENDMDL
MODEL 9
REMARK VINA RESULT:      -6.2      2.268      3.052
REMARK  Name = Cefapirin
REMARK  10 active torsions:
REMARK  status: ('A' for Active; 'I' for Inactive)
REMARK    1  A    between atoms: C_5  and  C_6
REMARK    2  A    between atoms: C_6  and  O_7
REMARK    3  A    between atoms: O_7  and  C_8
REMARK    4  A    between atoms: C_8  and  C_9
REMARK    5  A    between atoms: CA_11  and  C_27
REMARK    6  A    between atoms: CA_15  and  N_16
REMARK    7  A    between atoms: C_17  and  C_19
REMARK    8  A    between atoms: C_19  and  S_20
REMARK    9  A    between atoms: S_20  and  C_21
REMARK   10  A    between atoms: C_27  and  O_28
REMARK                            x       y       z     vdW  Elec       q    Type
REMARK                         _______ _______ _______ _____ _____    ______ ____
ROOT
ATOM      1  C   UNL     1      -6.158   1.404 127.464  0.00  0.00    +0.000 C 
ATOM      2  S   UNL     1      -6.347   0.066 128.666  0.00  0.00    +0.000 S 
ATOM      3  C   UNL     1      -5.793  -1.209 127.483  0.00  0.00    +0.000 C 
ATOM      4  C   UNL     1      -6.581  -1.200 126.190  0.00  0.00    +0.000 C 
ATOM      5  CA  UNL     1      -7.207  -0.086 125.706  0.00  0.00    +0.000 C 
ATOM      6  N   UNL     1      -7.057   1.138 126.334  0.00  0.00    +0.000 N 
ATOM      7  C   UNL     1      -7.970   2.086 126.682  0.00  0.00    +0.000 C 
ATOM      8  O   UNL     1      -9.073   2.290 126.238  0.00  0.00    +0.000 OA
ATOM      9  CA  UNL     1      -6.978   2.714 127.711  0.00  0.00    +0.000 C 
ENDROOT
BRANCH   9  10
ATOM     10  N   UNL     1      -7.420   3.070 129.117  0.00  0.00    +0.000 N 
ATOM     11  C   UNL     1      -7.044   4.304 129.647  0.00  0.00    +0.000 C 
ATOM     12  O   UNL     1      -6.293   5.031 128.996  0.00  0.00    +0.000 OA
ATOM     13  H   UNL     1      -8.041   2.459 129.638  0.00  0.00    +0.000 HD
BRANCH  11  14
ATOM     14  C   UNL     1      -7.620   4.694 131.030  0.00  0.00    +0.000 C 
BRANCH  14  15
ATOM     15  S   UNL     1      -7.849   6.534 131.109  0.00  0.00    +0.000 S 
BRANCH  15  16
ATOM     16  C   UNL     1      -9.592   6.781 130.818  0.00  0.00    +0.000 A 
ATOM     17  C   UNL     1     -10.077   7.503 129.730  0.00  0.00    +0.000 A 
ATOM     18  C   UNL     1     -11.449   7.683 129.616  0.00  0.00    +0.000 A 
ATOM     19  N   UNL     1     -12.348   7.221 130.511  0.00  0.00    +0.000 NA
ATOM     20  C   UNL     1     -11.853   6.570 131.583  0.00  0.00    +0.000 A 
ATOM     21  C   UNL     1     -10.501   6.336 131.781  0.00  0.00    +0.000 A 
ENDBRANCH  15  16
ENDBRANCH  14  15
ENDBRANCH  11  14
ENDBRANCH   9  10
BRANCH   5  22
ATOM     22  C   UNL     1      -8.038  -0.215 124.431  0.00  0.00    +0.000 C 
ATOM     23  OXT UNL     1      -7.588  -0.036 123.306  0.00  0.00    +0.000 OA
BRANCH  22  24
ATOM     24  O   UNL     1      -9.353  -0.449 124.583  0.00  0.00    +0.000 OA
ATOM     25  H   UNL     1      -9.780  -1.002 123.901  0.00  0.00    +0.000 HD
ENDBRANCH  22  24
ENDBRANCH   5  22
BRANCH   4  26
ATOM     26  C   UNL     1      -6.652  -2.550 125.466  0.00  0.00    +0.000 C 
BRANCH  26  27
ATOM     27  O   UNL     1      -5.361  -3.109 125.176  0.00  0.00    +0.000 OA
BRANCH  27  28
ATOM     28  C   UNL     1      -5.017  -3.480 123.916  0.00  0.00    +0.000 C 
ATOM     29  C   UNL     1      -5.407  -2.614 122.747  0.00  0.00    +0.000 C 
ATOM     30  O   UNL     1      -4.375  -4.512 123.736  0.00  0.00    +0.000 OA
ENDBRANCH  27  28
ENDBRANCH  26  27
ENDBRANCH   4  26
TORSDOF 9
ENDMDL
