MODEL 1
REMARK VINA RESULT:      -7.3      0.000      0.000
REMARK  Name = Cefadroxil
REMARK  8 active torsions:
REMARK  status: ('A' for Active; 'I' for Inactive)
REMARK    1  A    between atoms: C_5  and  C_6
REMARK    2  A    between atoms: CA_7  and  C_24
REMARK    3  A    between atoms: CA_11  and  N_12
REMARK    4  A    between atoms: C_13  and  CA_15
REMARK    5  A    between atoms: CA_15  and  N_16
REMARK    6  A    between atoms: CA_15  and  C_17
REMARK    7  A    between atoms: C_20  and  O_21
REMARK    8  A    between atoms: C_24  and  O_25
REMARK                            x       y       z     vdW  Elec       q    Type
REMARK                         _______ _______ _______ _____ _____    ______ ____
ROOT
ATOM      1  N   UNL     1      -8.949   5.208 130.618  0.00  0.00    +0.000 N 
ATOM      2  C   UNL     1      -9.937   5.811 131.394  0.00  0.00    +0.000 C 
ATOM      3  O   UNL     1      -9.618   6.477 132.382  0.00  0.00    +0.000 OA
ATOM      4  H   UNL     1      -9.207   4.918 129.680  0.00  0.00    +0.000 HD
ENDROOT
BRANCH   1  14
ATOM      5  C   UNL     1      -6.452   4.367 130.141  0.00  0.00    +0.000 C 
ATOM      6  S   UNL     1      -6.758   3.938 128.411  0.00  0.00    +0.000 S 
ATOM      7  C   UNL     1      -4.987   3.671 128.075  0.00  0.00    +0.000 C 
ATOM      8  C   UNL     1      -4.109   4.829 128.506  0.00  0.00    +0.000 C 
ATOM      9  C   UNL     1      -2.755   4.797 127.819  0.00  0.00    +0.000 C 
ATOM     10  CA  UNL     1      -4.489   5.775 129.407  0.00  0.00    +0.000 C 
ATOM     11  N   UNL     1      -5.644   5.591 130.138  0.00  0.00    +0.000 N 
ATOM     12  C   UNL     1      -6.647   6.402 130.536  0.00  0.00    +0.000 C 
ATOM     13  O   UNL     1      -6.729   7.614 130.525  0.00  0.00    +0.000 OA
ATOM     14  CA  UNL     1      -7.509   5.171 130.975  0.00  0.00    +0.000 C 
BRANCH  10  15
ATOM     15  C   UNL     1      -3.593   6.982 129.644  0.00  0.00    +0.000 C 
ATOM     16  OXT UNL     1      -2.626   6.981 130.394  0.00  0.00    +0.000 OA
BRANCH  15  17
ATOM     17  O   UNL     1      -3.958   8.130 129.037  0.00  0.00    +0.000 OA
ATOM     18  H   UNL     1      -4.904   8.363 129.081  0.00  0.00    +0.000 HD
ENDBRANCH  15  17
ENDBRANCH  10  15
ENDBRANCH   1  14
BRANCH   2  19
ATOM     19  CA  UNL     1     -11.460   5.593 130.949  0.00  0.00    +0.000 C 
BRANCH  19  20
ATOM     20  C   UNL     1     -12.136   6.822 130.351  0.00  0.00    +0.000 A 
ATOM     21  C   UNL     1     -12.608   7.887 131.127  0.00  0.00    +0.000 A 
ATOM     22  C   UNL     1     -13.142   9.025 130.497  0.00  0.00    +0.000 A 
ATOM     23  C   UNL     1     -13.107   9.129 129.107  0.00  0.00    +0.000 A 
ATOM     24  C   UNL     1     -12.672   8.077 128.337  0.00  0.00    +0.000 A 
ATOM     25  C   UNL     1     -12.350   6.895 128.970  0.00  0.00    +0.000 A 
BRANCH  23  26
ATOM     26  O   UNL     1     -13.547  10.219 128.423  0.00  0.00    +0.000 OA
ATOM     27  H   UNL     1     -14.251  10.650 128.929  0.00  0.00    +0.000 HD
ENDBRANCH  23  26
ENDBRANCH  19  20
BRANCH  19  28
ATOM     28  N   UNL     1     -11.542   4.492 129.971  0.00  0.00    +0.000 NA
ATOM     29  H1  UNL     1     -10.778   4.598 129.305  0.00  0.00    +0.000 HD
ATOM     30  H2  UNL     1     -12.399   4.588 129.431  0.00  0.00    +0.000 HD
ENDBRANCH  19  28
ENDBRANCH   2  19
TORSDOF 7
ENDMDL
MODEL 2
REMARK VINA RESULT:      -7.2      2.056      2.378
REMARK  Name = Cefadroxil
REMARK  8 active torsions:
REMARK  status: ('A' for Active; 'I' for Inactive)
REMARK    1  A    between atoms: C_5  and  C_6
REMARK    2  A    between atoms: CA_7  and  C_24
REMARK    3  A    between atoms: CA_11  and  N_12
REMARK    4  A    between atoms: C_13  and  CA_15
REMARK    5  A    between atoms: CA_15  and  N_16
REMARK    6  A    between atoms: CA_15  and  C_17
REMARK    7  A    between atoms: C_20  and  O_21
REMARK    8  A    between atoms: C_24  and  O_25
REMARK                            x       y       z     vdW  Elec       q    Type
REMARK                         _______ _______ _______ _____ _____    ______ ____
ROOT
ATOM      1  N   UNL     1      -7.751   6.533 130.847  0.00  0.00    +0.000 N 
ATOM      2  C   UNL     1      -8.992   6.256 131.417  0.00  0.00    +0.000 C 
ATOM      3  O   UNL     1      -9.152   6.394 132.632  0.00  0.00    +0.000 OA
ATOM      4  H   UNL     1      -7.723   6.686 129.844  0.00  0.00    +0.000 HD
ENDROOT
BRANCH   1  14
ATOM      5  C   UNL     1      -5.703   5.748 132.383  0.00  0.00    +0.000 C 
ATOM      6  S   UNL     1      -5.809   4.006 131.908  0.00  0.00    +0.000 S 
ATOM      7  C   UNL     1      -4.233   3.598 132.729  0.00  0.00    +0.000 C 
ATOM      8  C   UNL     1      -3.088   4.506 132.326  0.00  0.00    +0.000 C 
ATOM      9  C   UNL     1      -1.739   3.886 132.640  0.00  0.00    +0.000 C 
ATOM     10  CA  UNL     1      -3.256   5.732 131.760  0.00  0.00    +0.000 C 
ATOM     11  N   UNL     1      -4.514   6.296 131.722  0.00  0.00    +0.000 N 
ATOM     12  C   UNL     1      -5.201   7.007 130.803  0.00  0.00    +0.000 C 
ATOM     13  O   UNL     1      -4.823   7.538 129.777  0.00  0.00    +0.000 OA
ATOM     14  CA  UNL     1      -6.524   6.846 131.622  0.00  0.00    +0.000 C 
BRANCH  10  15
ATOM     15  C   UNL     1      -2.039   6.488 131.245  0.00  0.00    +0.000 C 
ATOM     16  OXT UNL     1      -1.307   7.169 131.951  0.00  0.00    +0.000 OA
BRANCH  15  17
ATOM     17  O   UNL     1      -1.826   6.451 129.914  0.00  0.00    +0.000 OA
ATOM     18  H   UNL     1      -1.005   6.871 129.594  0.00  0.00    +0.000 HD
ENDBRANCH  15  17
ENDBRANCH  10  15
ENDBRANCH   1  14
BRANCH   2  19
ATOM     19  CA  UNL     1     -10.158   5.758 130.438  0.00  0.00    +0.000 C 
BRANCH  19  20
ATOM     20  C   UNL     1     -11.112   6.851 129.968  0.00  0.00    +0.000 A 
ATOM     21  C   UNL     1     -12.192   7.303 130.735  0.00  0.00    +0.000 A 
ATOM     22  C   UNL     1     -12.976   8.374 130.272  0.00  0.00    +0.000 A 
ATOM     23  C   UNL     1     -12.614   9.045 129.105  0.00  0.00    +0.000 A 
ATOM     24  C   UNL     1     -11.572   8.591 128.331  0.00  0.00    +0.000 A 
ATOM     25  C   UNL     1     -10.952   7.415 128.697  0.00  0.00    +0.000 A 
BRANCH  23  26
ATOM     26  O   UNL     1     -13.281  10.126 128.620  0.00  0.00    +0.000 OA
ATOM     27  H   UNL     1     -12.841  10.440 127.817  0.00  0.00    +0.000 HD
ENDBRANCH  23  26
ENDBRANCH  19  20
BRANCH  19  28
ATOM     28  N   UNL     1      -9.571   5.109 129.252  0.00  0.00    +0.000 NA
ATOM     29  H1  UNL     1      -8.560   5.073 129.373  0.00  0.00    +0.000 HD
ATOM     30  H2  UNL     1      -9.733   5.696 128.435  0.00  0.00    +0.000 HD
ENDBRANCH  19  28
ENDBRANCH   2  19
TORSDOF 7
ENDMDL
MODEL 3
REMARK VINA RESULT:      -7.0      3.916      4.624
REMARK  Name = Cefadroxil
REMARK  8 active torsions:
REMARK  status: ('A' for Active; 'I' for Inactive)
REMARK    1  A    between atoms: C_5  and  C_6
REMARK    2  A    between atoms: CA_7  and  C_24
REMARK    3  A    between atoms: CA_11  and  N_12
REMARK    4  A    between atoms: C_13  and  CA_15
REMARK    5  A    between atoms: CA_15  and  N_16
REMARK    6  A    between atoms: CA_15  and  C_17
REMARK    7  A    between atoms: C_20  and  O_21
REMARK    8  A    between atoms: C_24  and  O_25
REMARK                            x       y       z     vdW  Elec       q    Type
REMARK                         _______ _______ _______ _____ _____    ______ ____
ROOT
ATOM      1  N   UNL     1      -8.630   4.455 128.773  0.00  0.00    +0.000 N 
ATOM      2  C   UNL     1      -8.456   5.232 129.916  0.00  0.00    +0.000 C 
ATOM      3  O   UNL     1      -7.387   5.817 130.102  0.00  0.00    +0.000 OA
ATOM      4  H   UNL     1      -9.583   4.227 128.506  0.00  0.00    +0.000 HD
ENDROOT
BRANCH   1  14
ATOM      5  C   UNL     1      -7.302   2.689 127.261  0.00  0.00    +0.000 C 
ATOM      6  S   UNL     1      -8.614   1.444 127.284  0.00  0.00    +0.000 S 
ATOM      7  C   UNL     1      -7.790   0.429 126.015  0.00  0.00    +0.000 C 
ATOM      8  C   UNL     1      -7.399   1.209 124.775  0.00  0.00    +0.000 C 
ATOM      9  C   UNL     1      -7.154   0.296 123.587  0.00  0.00    +0.000 C 
ATOM     10  CA  UNL     1      -7.276   2.564 124.739  0.00  0.00    +0.000 C 
ATOM     11  N   UNL     1      -7.300   3.279 125.918  0.00  0.00    +0.000 N 
ATOM     12  C   UNL     1      -7.850   4.451 126.298  0.00  0.00    +0.000 C 
ATOM     13  O   UNL     1      -8.343   5.341 125.633  0.00  0.00    +0.000 OA
ATOM     14  CA  UNL     1      -7.552   4.139 127.803  0.00  0.00    +0.000 C 
BRANCH  10  15
ATOM     15  C   UNL     1      -7.040   3.256 123.405  0.00  0.00    +0.000 C 
ATOM     16  OXT UNL     1      -5.935   3.424 122.907  0.00  0.00    +0.000 OA
BRANCH  15  17
ATOM     17  O   UNL     1      -8.125   3.773 122.795  0.00  0.00    +0.000 OA
ATOM     18  H   UNL     1      -8.020   4.658 122.398  0.00  0.00    +0.000 HD
ENDBRANCH  15  17
ENDBRANCH  10  15
ENDBRANCH   1  14
BRANCH   2  19
ATOM     19  CA  UNL     1      -9.682   5.316 130.944  0.00  0.00    +0.000 C 
BRANCH  19  20
ATOM     20  C   UNL     1     -10.734   6.366 130.606  0.00  0.00    +0.000 A 
ATOM     21  C   UNL     1     -11.877   6.580 131.384  0.00  0.00    +0.000 A 
ATOM     22  C   UNL     1     -12.758   7.626 131.057  0.00  0.00    +0.000 A 
ATOM     23  C   UNL     1     -12.437   8.505 130.023  0.00  0.00    +0.000 A 
ATOM     24  C   UNL     1     -11.332   8.286 129.236  0.00  0.00    +0.000 A 
ATOM     25  C   UNL     1     -10.600   7.136 129.445  0.00  0.00    +0.000 A 
BRANCH  23  26
ATOM     26  O   UNL     1     -13.203   9.575 129.681  0.00  0.00    +0.000 OA
ATOM     27  H   UNL     1     -13.749   9.345 128.916  0.00  0.00    +0.000 HD
ENDBRANCH  23  26
ENDBRANCH  19  20
BRANCH  19  28
ATOM     28  N   UNL     1     -10.346   4.003 131.037  0.00  0.00    +0.000 NA
ATOM     29  H1  UNL     1     -11.352   4.154 131.084  0.00  0.00    +0.000 HD
ATOM     30  H2  UNL     1     -10.089   3.559 131.917  0.00  0.00    +0.000 HD
ENDBRANCH  19  28
ENDBRANCH   2  19
TORSDOF 7
ENDMDL
MODEL 4
REMARK VINA RESULT:      -6.9      4.285      5.309
REMARK  Name = Cefadroxil
REMARK  8 active torsions:
REMARK  status: ('A' for Active; 'I' for Inactive)
REMARK    1  A    between atoms: C_5  and  C_6
REMARK    2  A    between atoms: CA_7  and  C_24
REMARK    3  A    between atoms: CA_11  and  N_12
REMARK    4  A    between atoms: C_13  and  CA_15
REMARK    5  A    between atoms: CA_15  and  N_16
REMARK    6  A    between atoms: CA_15  and  C_17
REMARK    7  A    between atoms: C_20  and  O_21
REMARK    8  A    between atoms: C_24  and  O_25
REMARK                            x       y       z     vdW  Elec       q    Type
REMARK                         _______ _______ _______ _____ _____    ______ ____
ROOT
ATOM      1  N   UNL     1      -8.932   3.550 130.896  0.00  0.00    +0.000 N 
ATOM      2  C   UNL     1     -10.106   4.287 130.756  0.00  0.00    +0.000 C 
ATOM      3  O   UNL     1     -11.072   3.794 130.169  0.00  0.00    +0.000 OA
ATOM      4  H   UNL     1      -8.274   3.852 131.609  0.00  0.00    +0.000 HD
ENDROOT
BRANCH   1  14
ATOM      5  C   UNL     1      -7.239   1.684 129.990  0.00  0.00    +0.000 C 
ATOM      6  S   UNL     1      -5.829   2.264 130.963  0.00  0.00    +0.000 S 
ATOM      7  C   UNL     1      -4.828   0.800 130.544  0.00  0.00    +0.000 C 
ATOM      8  C   UNL     1      -5.538  -0.514 130.803  0.00  0.00    +0.000 C 
ATOM      9  C   UNL     1      -4.564  -1.674 130.894  0.00  0.00    +0.000 C 
ATOM     10  CA  UNL     1      -6.888  -0.634 130.930  0.00  0.00    +0.000 C 
ATOM     11  N   UNL     1      -7.697   0.436 130.610  0.00  0.00    +0.000 N 
ATOM     12  C   UNL     1      -8.811   0.971 131.154  0.00  0.00    +0.000 C 
ATOM     13  O   UNL     1      -9.557   0.533 132.007  0.00  0.00    +0.000 OA
ATOM     14  CA  UNL     1      -8.683   2.239 130.246  0.00  0.00    +0.000 C 
BRANCH  10  15
ATOM     15  C   UNL     1      -7.481  -1.970 131.351  0.00  0.00    +0.000 C 
ATOM     16  OXT UNL     1      -7.740  -2.880 130.575  0.00  0.00    +0.000 OA
BRANCH  15  17
ATOM     17  O   UNL     1      -7.802  -2.102 132.655  0.00  0.00    +0.000 OA
ATOM     18  H   UNL     1      -7.133  -1.801 133.299  0.00  0.00    +0.000 HD
ENDBRANCH  15  17
ENDBRANCH  10  15
ENDBRANCH   1  14
BRANCH   2  19
ATOM     19  CA  UNL     1     -10.129   5.763 131.378  0.00  0.00    +0.000 C 
BRANCH  19  20
ATOM     20  C   UNL     1     -10.992   6.765 130.621  0.00  0.00    +0.000 A 
ATOM     21  C   UNL     1     -12.236   7.206 131.086  0.00  0.00    +0.000 A 
ATOM     22  C   UNL     1     -12.935   8.198 130.375  0.00  0.00    +0.000 A 
ATOM     23  C   UNL     1     -12.342   8.807 129.270  0.00  0.00    +0.000 A 
ATOM     24  C   UNL     1     -11.134   8.360 128.789  0.00  0.00    +0.000 A 
ATOM     25  C   UNL     1     -10.568   7.249 129.377  0.00  0.00    +0.000 A 
BRANCH  23  26
ATOM     26  O   UNL     1     -12.923   9.813 128.564  0.00  0.00    +0.000 OA
ATOM     27  H   UNL     1     -12.541   9.841 127.675  0.00  0.00    +0.000 HD
ENDBRANCH  23  26
ENDBRANCH  19  20
BRANCH  19  28
ATOM     28  N   UNL     1     -10.593   5.708 132.776  0.00  0.00    +0.000 NA
ATOM     29  H1  UNL     1      -9.777   5.635 133.383  0.00  0.00    +0.000 HD
ATOM     30  H2  UNL     1     -11.124   4.851 132.919  0.00  0.00    +0.000 HD
ENDBRANCH  19  28
ENDBRANCH   2  19
TORSDOF 7
ENDMDL
MODEL 5
REMARK VINA RESULT:      -6.9      3.861      7.316
REMARK  Name = Cefadroxil
REMARK  8 active torsions:
REMARK  status: ('A' for Active; 'I' for Inactive)
REMARK    1  A    between atoms: C_5  and  C_6
REMARK    2  A    between atoms: CA_7  and  C_24
REMARK    3  A    between atoms: CA_11  and  N_12
REMARK    4  A    between atoms: C_13  and  CA_15
REMARK    5  A    between atoms: CA_15  and  N_16
REMARK    6  A    between atoms: CA_15  and  C_17
REMARK    7  A    between atoms: C_20  and  O_21
REMARK    8  A    between atoms: C_24  and  O_25
REMARK                            x       y       z     vdW  Elec       q    Type
REMARK                         _______ _______ _______ _____ _____    ______ ____
ROOT
ATOM      1  N   UNL     1      -8.490   3.531 131.150  0.00  0.00    +0.000 N 
ATOM      2  C   UNL     1      -8.531   2.710 132.274  0.00  0.00    +0.000 C 
ATOM      3  O   UNL     1      -9.575   2.122 132.565  0.00  0.00    +0.000 OA
ATOM      4  H   UNL     1      -7.575   3.767 130.778  0.00  0.00    +0.000 HD
ENDROOT
BRANCH   1  14
ATOM      5  C   UNL     1     -10.794   4.861 130.844  0.00  0.00    +0.000 C 
ATOM      6  S   UNL     1     -10.461   6.057 132.160  0.00  0.00    +0.000 S 
ATOM      7  C   UNL     1     -11.891   7.090 131.700  0.00  0.00    +0.000 C 
ATOM      8  C   UNL     1     -11.925   7.454 130.229  0.00  0.00    +0.000 C 
ATOM      9  C   UNL     1     -12.819   8.652 129.965  0.00  0.00    +0.000 C 
ATOM     10  CA  UNL     1     -11.243   6.780 129.264  0.00  0.00    +0.000 C 
ATOM     11  N   UNL     1     -10.642   5.577 129.573  0.00  0.00    +0.000 N 
ATOM     12  C   UNL     1      -9.467   5.000 129.246  0.00  0.00    +0.000 C 
ATOM     13  O   UNL     1      -8.649   5.305 128.401  0.00  0.00    +0.000 OA
ATOM     14  CA  UNL     1      -9.675   3.890 130.331  0.00  0.00    +0.000 C 
BRANCH  10  15
ATOM     15  C   UNL     1     -11.218   7.329 127.845  0.00  0.00    +0.000 C 
ATOM     16  OXT UNL     1     -10.539   8.284 127.493  0.00  0.00    +0.000 OA
BRANCH  15  17
ATOM     17  O   UNL     1     -12.065   6.759 126.964  0.00  0.00    +0.000 OA
ATOM     18  H   UNL     1     -13.017   6.859 127.150  0.00  0.00    +0.000 HD
ENDBRANCH  15  17
ENDBRANCH  10  15
ENDBRANCH   1  14
BRANCH   2  19
ATOM     19  CA  UNL     1      -7.191   2.581 133.142  0.00  0.00    +0.000 C 
BRANCH  19  20
ATOM     20  C   UNL     1      -7.073   3.573 134.294  0.00  0.00    +0.000 A 
ATOM     21  C   UNL     1      -5.967   3.620 135.151  0.00  0.00    +0.000 A 
ATOM     22  C   UNL     1      -5.892   4.620 136.136  0.00  0.00    +0.000 A 
ATOM     23  C   UNL     1      -6.865   5.617 136.190  0.00  0.00    +0.000 A 
ATOM     24  C   UNL     1      -7.969   5.561 135.371  0.00  0.00    +0.000 A 
ATOM     25  C   UNL     1      -8.124   4.458 134.559  0.00  0.00    +0.000 A 
BRANCH  23  26
ATOM     26  O   UNL     1      -6.835   6.651 137.071  0.00  0.00    +0.000 OA
ATOM     27  H   UNL     1      -7.531   7.285 136.843  0.00  0.00    +0.000 HD
ENDBRANCH  23  26
ENDBRANCH  19  20
BRANCH  19  28
ATOM     28  N   UNL     1      -7.080   1.216 133.688  0.00  0.00    +0.000 NA
ATOM     29  H1  UNL     1      -7.362   1.237 134.667  0.00  0.00    +0.000 HD
ATOM     30  H2  UNL     1      -6.101   0.933 133.686  0.00  0.00    +0.000 HD
ENDBRANCH  19  28
ENDBRANCH   2  19
TORSDOF 7
ENDMDL
MODEL 6
REMARK VINA RESULT:      -6.9      3.689      4.213
REMARK  Name = Cefadroxil
REMARK  8 active torsions:
REMARK  status: ('A' for Active; 'I' for Inactive)
REMARK    1  A    between atoms: C_5  and  C_6
REMARK    2  A    between atoms: CA_7  and  C_24
REMARK    3  A    between atoms: CA_11  and  N_12
REMARK    4  A    between atoms: C_13  and  CA_15
REMARK    5  A    between atoms: CA_15  and  N_16
REMARK    6  A    between atoms: CA_15  and  C_17
REMARK    7  A    between atoms: C_20  and  O_21
REMARK    8  A    between atoms: C_24  and  O_25
REMARK                            x       y       z     vdW  Elec       q    Type
REMARK                         _______ _______ _______ _____ _____    ______ ____
ROOT
ATOM      1  N   UNL     1      -8.900   3.522 130.960  0.00  0.00    +0.000 N 
ATOM      2  C   UNL     1     -10.061   4.274 130.795  0.00  0.00    +0.000 C 
ATOM      3  O   UNL     1     -11.029   3.785 130.207  0.00  0.00    +0.000 OA
ATOM      4  H   UNL     1      -8.245   3.827 131.674  0.00  0.00    +0.000 HD
ENDROOT
BRANCH   1  14
ATOM      5  C   UNL     1      -8.320   2.026 128.817  0.00  0.00    +0.000 C 
ATOM      6  S   UNL     1      -7.604   3.386 127.864  0.00  0.00    +0.000 S 
ATOM      7  C   UNL     1      -6.967   2.262 126.577  0.00  0.00    +0.000 C 
ATOM      8  C   UNL     1      -6.153   1.110 127.130  0.00  0.00    +0.000 C 
ATOM      9  C   UNL     1      -5.271   0.480 126.066  0.00  0.00    +0.000 C 
ATOM     10  CA  UNL     1      -6.214   0.689 128.422  0.00  0.00    +0.000 C 
ATOM     11  N   UNL     1      -7.204   1.178 129.249  0.00  0.00    +0.000 N 
ATOM     12  C   UNL     1      -7.246   1.568 130.540  0.00  0.00    +0.000 C 
ATOM     13  O   UNL     1      -6.435   1.418 131.434  0.00  0.00    +0.000 OA
ATOM     14  CA  UNL     1      -8.665   2.196 130.337  0.00  0.00    +0.000 C 
BRANCH  10  15
ATOM     15  C   UNL     1      -5.234  -0.369 128.909  0.00  0.00    +0.000 C 
ATOM     16  OXT UNL     1      -5.418  -1.574 128.802  0.00  0.00    +0.000 OA
BRANCH  15  17
ATOM     17  O   UNL     1      -4.143   0.078 129.564  0.00  0.00    +0.000 OA
ATOM     18  H   UNL     1      -4.283   0.812 130.191  0.00  0.00    +0.000 HD
ENDBRANCH  15  17
ENDBRANCH  10  15
ENDBRANCH   1  14
BRANCH   2  19
ATOM     19  CA  UNL     1     -10.068   5.762 131.388  0.00  0.00    +0.000 C 
BRANCH  19  20
ATOM     20  C   UNL     1     -10.941   6.753 130.628  0.00  0.00    +0.000 A 
ATOM     21  C   UNL     1     -12.208   7.151 131.071  0.00  0.00    +0.000 A 
ATOM     22  C   UNL     1     -12.917   8.135 130.361  0.00  0.00    +0.000 A 
ATOM     23  C   UNL     1     -12.316   8.780 129.280  0.00  0.00    +0.000 A 
ATOM     24  C   UNL     1     -11.085   8.375 128.821  0.00  0.00    +0.000 A 
ATOM     25  C   UNL     1     -10.502   7.270 129.403  0.00  0.00    +0.000 A 
BRANCH  23  26
ATOM     26  O   UNL     1     -12.909   9.781 128.577  0.00  0.00    +0.000 OA
ATOM     27  H   UNL     1     -12.901   9.558 127.635  0.00  0.00    +0.000 HD
ENDBRANCH  23  26
ENDBRANCH  19  20
BRANCH  19  28
ATOM     28  N   UNL     1     -10.507   5.735 132.796  0.00  0.00    +0.000 NA
ATOM     29  H1  UNL     1     -10.961   6.623 133.007  0.00  0.00    +0.000 HD
ATOM     30  H2  UNL     1      -9.688   5.690 133.400  0.00  0.00    +0.000 HD
ENDBRANCH  19  28
ENDBRANCH   2  19
TORSDOF 7
ENDMDL
MODEL 7
REMARK VINA RESULT:      -6.9      3.562      4.473
REMARK  Name = Cefadroxil
REMARK  8 active torsions:
REMARK  status: ('A' for Active; 'I' for Inactive)
REMARK    1  A    between atoms: C_5  and  C_6
REMARK    2  A    between atoms: CA_7  and  C_24
REMARK    3  A    between atoms: CA_11  and  N_12
REMARK    4  A    between atoms: C_13  and  CA_15
REMARK    5  A    between atoms: CA_15  and  N_16
REMARK    6  A    between atoms: CA_15  and  C_17
REMARK    7  A    between atoms: C_20  and  O_21
REMARK    8  A    between atoms: C_24  and  O_25
REMARK                            x       y       z     vdW  Elec       q    Type
REMARK                         _______ _______ _______ _____ _____    ______ ____
ROOT
ATOM      1  N   UNL     1      -9.329   5.430 130.422  0.00  0.00    +0.000 N 
ATOM      2  C   UNL     1      -9.828   6.277 131.409  0.00  0.00    +0.000 C 
ATOM      3  O   UNL     1      -9.233   6.380 132.485  0.00  0.00    +0.000 OA
ATOM      4  H   UNL     1      -9.660   5.575 129.473  0.00  0.00    +0.000 HD
ENDROOT
BRANCH   1  14
ATOM      5  C   UNL     1      -8.343   3.121 131.353  0.00  0.00    +0.000 C 
ATOM      6  S   UNL     1      -9.952   2.305 131.486  0.00  0.00    +0.000 S 
ATOM      7  C   UNL     1      -9.196   0.681 131.822  0.00  0.00    +0.000 C 
ATOM      8  C   UNL     1      -8.139   0.285 130.810  0.00  0.00    +0.000 C 
ATOM      9  C   UNL     1      -7.870  -1.209 130.830  0.00  0.00    +0.000 C 
ATOM     10  CA  UNL     1      -7.505   1.167 129.990  0.00  0.00    +0.000 C 
ATOM     11  N   UNL     1      -7.657   2.521 130.204  0.00  0.00    +0.000 N 
ATOM     12  C   UNL     1      -7.813   3.591 129.396  0.00  0.00    +0.000 C 
ATOM     13  O   UNL     1      -7.670   3.695 128.193  0.00  0.00    +0.000 OA
ATOM     14  CA  UNL     1      -8.191   4.496 130.615  0.00  0.00    +0.000 C 
BRANCH  10  15
ATOM     15  C   UNL     1      -6.582   0.642 128.901  0.00  0.00    +0.000 C 
ATOM     16  OXT UNL     1      -5.421   0.305 129.091  0.00  0.00    +0.000 OA
BRANCH  15  17
ATOM     17  O   UNL     1      -7.077   0.632 127.646  0.00  0.00    +0.000 OA
ATOM     18  H   UNL     1      -6.460   0.888 126.935  0.00  0.00    +0.000 HD
ENDBRANCH  15  17
ENDBRANCH  10  15
ENDBRANCH   1  14
BRANCH   2  19
ATOM     19  CA  UNL     1     -11.175   7.079 131.081  0.00  0.00    +0.000 C 
BRANCH  19  20
ATOM     20  C   UNL     1     -11.459   7.276 129.596  0.00  0.00    +0.000 A 
ATOM     21  C   UNL     1     -10.571   7.922 128.728  0.00  0.00    +0.000 A 
ATOM     22  C   UNL     1     -10.864   7.989 127.355  0.00  0.00    +0.000 A 
ATOM     23  C   UNL     1     -11.983   7.328 126.851  0.00  0.00    +0.000 A 
ATOM     24  C   UNL     1     -12.875   6.716 127.699  0.00  0.00    +0.000 A 
ATOM     25  C   UNL     1     -12.677   6.844 129.058  0.00  0.00    +0.000 A 
BRANCH  23  26
ATOM     26  O   UNL     1     -12.306   7.293 125.531  0.00  0.00    +0.000 OA
ATOM     27  H   UNL     1     -11.534   7.553 125.007  0.00  0.00    +0.000 HD
ENDBRANCH  23  26
ENDBRANCH  19  20
BRANCH  19  28
ATOM     28  N   UNL     1     -12.327   6.390 131.690  0.00  0.00    +0.000 NA
ATOM     29  H1  UNL     1     -12.928   7.090 132.123  0.00  0.00    +0.000 HD
ATOM     30  H2  UNL     1     -11.998   5.796 132.450  0.00  0.00    +0.000 HD
ENDBRANCH  19  28
ENDBRANCH   2  19
TORSDOF 7
ENDMDL
MODEL 8
REMARK VINA RESULT:      -6.8      1.710      2.025
REMARK  Name = Cefadroxil
REMARK  8 active torsions:
REMARK  status: ('A' for Active; 'I' for Inactive)
REMARK    1  A    between atoms: C_5  and  C_6
REMARK    2  A    between atoms: CA_7  and  C_24
REMARK    3  A    between atoms: CA_11  and  N_12
REMARK    4  A    between atoms: C_13  and  CA_15
REMARK    5  A    between atoms: CA_15  and  N_16
REMARK    6  A    between atoms: CA_15  and  C_17
REMARK    7  A    between atoms: C_20  and  O_21
REMARK    8  A    between atoms: C_24  and  O_25
REMARK                            x       y       z     vdW  Elec       q    Type
REMARK                         _______ _______ _______ _____ _____    ______ ____
ROOT
ATOM      1  N   UNL     1      -9.014   5.689 130.450  0.00  0.00    +0.000 N 
ATOM      2  C   UNL     1      -9.659   6.380 131.473  0.00  0.00    +0.000 C 
ATOM      3  O   UNL     1      -9.119   6.485 132.577  0.00  0.00    +0.000 OA
ATOM      4  H   UNL     1      -9.332   5.858 129.501  0.00  0.00    +0.000 HD
ENDROOT
BRANCH   1  14
ATOM      5  C   UNL     1      -7.237   3.901 129.546  0.00  0.00    +0.000 C 
ATOM      6  S   UNL     1      -7.746   4.035 127.815  0.00  0.00    +0.000 S 
ATOM      7  C   UNL     1      -6.326   3.050 127.233  0.00  0.00    +0.000 C 
ATOM      8  C   UNL     1      -4.992   3.547 127.753  0.00  0.00    +0.000 C 
ATOM      9  C   UNL     1      -3.834   3.032 126.917  0.00  0.00    +0.000 C 
ATOM     10  CA  UNL     1      -4.853   4.350 128.843  0.00  0.00    +0.000 C 
ATOM     11  N   UNL     1      -5.941   4.578 129.660  0.00  0.00    +0.000 N 
ATOM     12  C   UNL     1      -6.423   5.660 130.307  0.00  0.00    +0.000 C 
ATOM     13  O   UNL     1      -5.913   6.743 130.516  0.00  0.00    +0.000 OA
ATOM     14  CA  UNL     1      -7.761   4.912 130.624  0.00  0.00    +0.000 C 
BRANCH  10  15
ATOM     15  C   UNL     1      -3.484   4.922 129.179  0.00  0.00    +0.000 C 
ATOM     16  OXT UNL     1      -2.761   4.491 130.067  0.00  0.00    +0.000 OA
BRANCH  15  17
ATOM     17  O   UNL     1      -3.104   6.018 128.491  0.00  0.00    +0.000 OA
ATOM     18  H   UNL     1      -3.433   6.875 128.824  0.00  0.00    +0.000 HD
ENDBRANCH  15  17
ENDBRANCH  10  15
ENDBRANCH   1  14
BRANCH   2  19
ATOM     19  CA  UNL     1     -11.096   7.009 131.146  0.00  0.00    +0.000 C 
BRANCH  19  20
ATOM     20  C   UNL     1     -11.380   7.225 129.664  0.00  0.00    +0.000 A 
ATOM     21  C   UNL     1     -10.498   7.892 128.807  0.00  0.00    +0.000 A 
ATOM     22  C   UNL     1     -10.790   7.977 127.435  0.00  0.00    +0.000 A 
ATOM     23  C   UNL     1     -11.902   7.311 126.919  0.00  0.00    +0.000 A 
ATOM     24  C   UNL     1     -12.788   6.679 127.757  0.00  0.00    +0.000 A 
ATOM     25  C   UNL     1     -12.593   6.788 129.118  0.00  0.00    +0.000 A 
BRANCH  23  26
ATOM     26  O   UNL     1     -12.222   7.293 125.598  0.00  0.00    +0.000 OA
ATOM     27  H   UNL     1     -12.846   8.009 125.411  0.00  0.00    +0.000 HD
ENDBRANCH  23  26
ENDBRANCH  19  20
BRANCH  19  28
ATOM     28  N   UNL     1     -12.155   6.148 131.705  0.00  0.00    +0.000 NA
ATOM     29  H1  UNL     1     -12.929   6.742 131.999  0.00  0.00    +0.000 HD
ATOM     30  H2  UNL     1     -11.810   5.701 132.552  0.00  0.00    +0.000 HD
ENDBRANCH  19  28
ENDBRANCH   2  19
TORSDOF 7
ENDMDL
MODEL 9
REMARK VINA RESULT:      -6.6      2.692      7.909
REMARK  Name = Cefadroxil
REMARK  8 active torsions:
REMARK  status: ('A' for Active; 'I' for Inactive)
REMARK    1  A    between atoms: C_5  and  C_6
REMARK    2  A    between atoms: CA_7  and  C_24
REMARK    3  A    between atoms: CA_11  and  N_12
REMARK    4  A    between atoms: C_13  and  CA_15
REMARK    5  A    between atoms: CA_15  and  N_16
REMARK    6  A    between atoms: CA_15  and  C_17
REMARK    7  A    between atoms: C_20  and  O_21
REMARK    8  A    between atoms: C_24  and  O_25
REMARK                            x       y       z     vdW  Elec       q    Type
REMARK                         _______ _______ _______ _____ _____    ______ ____
ROOT
ATOM      1  N   UNL     1      -6.770   3.362 130.051  0.00  0.00    +0.000 N 
ATOM      2  C   UNL     1      -5.993   2.288 129.622  0.00  0.00    +0.000 C 
ATOM      3  O   UNL     1      -6.513   1.376 128.974  0.00  0.00    +0.000 OA
ATOM      4  H   UNL     1      -6.283   4.211 130.322  0.00  0.00    +0.000 HD
ENDROOT
BRANCH   1  14
ATOM      5  C   UNL     1      -9.162   4.072 131.023  0.00  0.00    +0.000 C 
ATOM      6  S   UNL     1      -8.502   5.275 132.202  0.00  0.00    +0.000 S 
ATOM      7  C   UNL     1     -10.159   5.924 132.597  0.00  0.00    +0.000 C 
ATOM      8  C   UNL     1     -10.965   6.310 131.373  0.00  0.00    +0.000 C 
ATOM      9  C   UNL     1     -12.106   7.249 131.722  0.00  0.00    +0.000 C 
ATOM     10  CA  UNL     1     -10.700   5.859 130.117  0.00  0.00    +0.000 C 
ATOM     11  N   UNL     1      -9.788   4.839 129.940  0.00  0.00    +0.000 N 
ATOM     12  C   UNL     1      -8.819   4.589 129.036  0.00  0.00    +0.000 C 
ATOM     13  O   UNL     1      -8.587   5.115 127.965  0.00  0.00    +0.000 OA
ATOM     14  CA  UNL     1      -8.247   3.432 129.922  0.00  0.00    +0.000 C 
BRANCH  10  15
ATOM     15  C   UNL     1     -11.470   6.437 128.939  0.00  0.00    +0.000 C 
ATOM     16  OXT UNL     1     -12.602   6.092 128.625  0.00  0.00    +0.000 OA
BRANCH  15  17
ATOM     17  O   UNL     1     -10.811   7.325 128.167  0.00  0.00    +0.000 OA
ATOM     18  H   UNL     1      -9.866   7.457 128.368  0.00  0.00    +0.000 HD
ENDBRANCH  15  17
ENDBRANCH  10  15
ENDBRANCH   1  14
BRANCH   2  19
ATOM     19  CA  UNL     1      -4.439   2.301 130.009  0.00  0.00    +0.000 C 
BRANCH  19  20
ATOM     20  C   UNL     1      -3.641   3.461 129.423  0.00  0.00    +0.000 A 
ATOM     21  C   UNL     1      -3.160   3.470 128.109  0.00  0.00    +0.000 A 
ATOM     22  C   UNL     1      -2.508   4.612 127.613  0.00  0.00    +0.000 A 
ATOM     23  C   UNL     1      -2.431   5.763 128.397  0.00  0.00    +0.000 A 
ATOM     24  C   UNL     1      -2.875   5.753 129.698  0.00  0.00    +0.000 A 
ATOM     25  C   UNL     1      -3.320   4.560 130.228  0.00  0.00    +0.000 A 
BRANCH  23  26
ATOM     26  O   UNL     1      -1.871   6.926 127.973  0.00  0.00    +0.000 OA
ATOM     27  H   UNL     1      -2.049   7.041 127.028  0.00  0.00    +0.000 HD
ENDBRANCH  23  26
ENDBRANCH  19  20
BRANCH  19  28
ATOM     28  N   UNL     1      -4.290   2.325 131.476  0.00  0.00    +0.000 NA
ATOM     29  H1  UNL     1      -3.776   1.492 131.760  0.00  0.00    +0.000 HD
ATOM     30  H2  UNL     1      -5.210   2.245 131.906  0.00  0.00    +0.000 HD
ENDBRANCH  19  28
ENDBRANCH   2  19
TORSDOF 7
ENDMDL
