MODEL 1
REMARK VINA RESULT:      -7.6      0.000      0.000
REMARK  Name = Cefaclor
REMARK  6 active torsions:
REMARK  status: ('A' for Active; 'I' for Inactive)
REMARK    1  A    between atoms: CA_7  and  C_23
REMARK    2  A    between atoms: CA_11  and  N_12
REMARK    3  A    between atoms: C_13  and  CA_15
REMARK    4  A    between atoms: CA_15  and  N_16
REMARK    5  A    between atoms: CA_15  and  C_17
REMARK    6  A    between atoms: C_23  and  O_24
REMARK                            x       y       z     vdW  Elec       q    Type
REMARK                         _______ _______ _______ _____ _____    ______ ____
ROOT
ATOM      1  C   UNL     1      -7.477   1.434 126.427  0.00  0.00    +0.000 C 
ATOM      2  S   UNL     1      -6.160   0.232 126.124  0.00  0.00    +0.000 S 
ATOM      3  C   UNL     1      -4.880   1.310 126.752  0.00  0.00    +0.000 C 
ATOM      4  C   UNL     1      -4.910   2.722 126.235  0.00  0.00    +0.000 C 
ATOM      5 CL   UNL     1      -3.290   3.376 126.305  0.00  0.00    +0.000 Cl
ATOM      6  CA  UNL     1      -6.006   3.375 125.772  0.00  0.00    +0.000 C 
ATOM      7  N   UNL     1      -7.208   2.701 125.754  0.00  0.00    +0.000 N 
ATOM      8  C   UNL     1      -8.352   2.730 125.037  0.00  0.00    +0.000 C 
ATOM      9  O   UNL     1      -8.766   3.600 124.298  0.00  0.00    +0.000 OA
ATOM     10  CA  UNL     1      -8.687   1.244 125.472  0.00  0.00    +0.000 C 
ENDROOT
BRANCH  10  11
ATOM     11  N   UNL     1      -8.503   0.188 124.426  0.00  0.00    +0.000 N 
ATOM     12  C   UNL     1      -9.118  -1.029 124.559  0.00  0.00    +0.000 C 
ATOM     13  O   UNL     1      -9.844  -1.248 125.529  0.00  0.00    +0.000 OA
ATOM     14  H   UNL     1      -7.911   0.375 123.620  0.00  0.00    +0.000 HD
BRANCH  12  15
ATOM     15  CA  UNL     1      -8.829  -2.077 123.445  0.00  0.00    +0.000 C 
BRANCH  15  16
ATOM     16  C   UNL     1      -7.415  -2.608 123.590  0.00  0.00    +0.000 A 
ATOM     17  C   UNL     1      -6.350  -2.015 122.891  0.00  0.00    +0.000 A 
ATOM     18  C   UNL     1      -5.096  -2.617 122.861  0.00  0.00    +0.000 A 
ATOM     19  C   UNL     1      -4.857  -3.749 123.630  0.00  0.00    +0.000 A 
ATOM     20  C   UNL     1      -5.887  -4.316 124.380  0.00  0.00    +0.000 A 
ATOM     21  C   UNL     1      -7.165  -3.753 124.355  0.00  0.00    +0.000 A 
ENDBRANCH  15  16
BRANCH  15  22
ATOM     22  N   UNL     1      -9.825  -3.154 123.538  0.00  0.00    +0.000 NA
ATOM     23  H1  UNL     1     -10.426  -3.079 122.715  0.00  0.00    +0.000 HD
ATOM     24  H2  UNL     1     -10.429  -2.971 124.337  0.00  0.00    +0.000 HD
ENDBRANCH  15  22
ENDBRANCH  12  15
ENDBRANCH  10  11
BRANCH   6  25
ATOM     25  C   UNL     1      -5.865   4.811 125.289  0.00  0.00    +0.000 C 
ATOM     26  OXT UNL     1      -5.699   5.769 126.031  0.00  0.00    +0.000 OA
BRANCH  25  27
ATOM     27  O   UNL     1      -6.033   5.040 123.973  0.00  0.00    +0.000 OA
ATOM     28  H   UNL     1      -6.199   4.276 123.382  0.00  0.00    +0.000 HD
ENDBRANCH  25  27
ENDBRANCH   6  25
TORSDOF 6
ENDMDL
MODEL 2
REMARK VINA RESULT:      -7.4      6.242      9.562
REMARK  Name = Cefaclor
REMARK  6 active torsions:
REMARK  status: ('A' for Active; 'I' for Inactive)
REMARK    1  A    between atoms: CA_7  and  C_23
REMARK    2  A    between atoms: CA_11  and  N_12
REMARK    3  A    between atoms: C_13  and  CA_15
REMARK    4  A    between atoms: CA_15  and  N_16
REMARK    5  A    between atoms: CA_15  and  C_17
REMARK    6  A    between atoms: C_23  and  O_24
REMARK                            x       y       z     vdW  Elec       q    Type
REMARK                         _______ _______ _______ _____ _____    ______ ____
ROOT
ATOM      1  C   UNL     1      -7.523   3.856 130.863  0.00  0.00    +0.000 C 
ATOM      2  S   UNL     1      -8.599   3.183 132.151  0.00  0.00    +0.000 S 
ATOM      3  C   UNL     1      -8.080   1.498 131.860  0.00  0.00    +0.000 C 
ATOM      4  C   UNL     1      -8.063   1.064 130.420  0.00  0.00    +0.000 C 
ATOM      5 CL   UNL     1      -8.285  -0.669 130.356  0.00  0.00    +0.000 Cl
ATOM      6  CA  UNL     1      -7.919   1.882 129.345  0.00  0.00    +0.000 C 
ATOM      7  N   UNL     1      -7.786   3.235 129.569  0.00  0.00    +0.000 N 
ATOM      8  C   UNL     1      -8.061   4.382 128.911  0.00  0.00    +0.000 C 
ATOM      9  O   UNL     1      -8.303   4.544 127.732  0.00  0.00    +0.000 OA
ATOM     10  CA  UNL     1      -8.063   5.188 130.274  0.00  0.00    +0.000 C 
ENDROOT
BRANCH  10  11
ATOM     11  N   UNL     1      -9.402   5.610 130.796  0.00  0.00    +0.000 N 
ATOM     12  C   UNL     1      -9.920   6.832 130.459  0.00  0.00    +0.000 C 
ATOM     13  O   UNL     1      -9.294   7.578 129.705  0.00  0.00    +0.000 OA
ATOM     14  H   UNL     1      -9.921   4.987 131.410  0.00  0.00    +0.000 HD
BRANCH  12  15
ATOM     15  CA  UNL     1     -11.295   7.200 131.088  0.00  0.00    +0.000 C 
BRANCH  15  16
ATOM     16  C   UNL     1     -12.282   7.564 129.995  0.00  0.00    +0.000 A 
ATOM     17  C   UNL     1     -12.888   6.566 129.214  0.00  0.00    +0.000 A 
ATOM     18  C   UNL     1     -13.633   6.899 128.087  0.00  0.00    +0.000 A 
ATOM     19  C   UNL     1     -13.887   8.234 127.799  0.00  0.00    +0.000 A 
ATOM     20  C   UNL     1     -13.345   9.238 128.602  0.00  0.00    +0.000 A 
ATOM     21  C   UNL     1     -12.538   8.906 129.692  0.00  0.00    +0.000 A 
ENDBRANCH  15  16
BRANCH  15  22
ATOM     22  N   UNL     1     -11.768   6.064 131.890  0.00  0.00    +0.000 NA
ATOM     23  H1  UNL     1     -12.444   6.432 132.563  0.00  0.00    +0.000 HD
ATOM     24  H2  UNL     1     -10.991   5.711 132.446  0.00  0.00    +0.000 HD
ENDBRANCH  15  22
ENDBRANCH  12  15
ENDBRANCH  10  11
BRANCH   6  25
ATOM     25  C   UNL     1      -7.918   1.278 127.949  0.00  0.00    +0.000 C 
ATOM     26  OXT UNL     1      -6.988   0.635 127.482  0.00  0.00    +0.000 OA
BRANCH  25  27
ATOM     27  O   UNL     1      -8.968   1.558 127.153  0.00  0.00    +0.000 OA
ATOM     28  H   UNL     1      -9.595   0.838 126.936  0.00  0.00    +0.000 HD
ENDBRANCH  25  27
ENDBRANCH   6  25
TORSDOF 6
ENDMDL
MODEL 3
REMARK VINA RESULT:      -7.2      6.845      9.080
REMARK  Name = Cefaclor
REMARK  6 active torsions:
REMARK  status: ('A' for Active; 'I' for Inactive)
REMARK    1  A    between atoms: CA_7  and  C_23
REMARK    2  A    between atoms: CA_11  and  N_12
REMARK    3  A    between atoms: C_13  and  CA_15
REMARK    4  A    between atoms: CA_15  and  N_16
REMARK    5  A    between atoms: CA_15  and  C_17
REMARK    6  A    between atoms: C_23  and  O_24
REMARK                            x       y       z     vdW  Elec       q    Type
REMARK                         _______ _______ _______ _____ _____    ______ ____
ROOT
ATOM      1  C   UNL     1      -5.713   4.453 131.337  0.00  0.00    +0.000 C 
ATOM      2  S   UNL     1      -6.342   3.023 130.425  0.00  0.00    +0.000 S 
ATOM      3  C   UNL     1      -4.747   2.628 129.724  0.00  0.00    +0.000 C 
ATOM      4  C   UNL     1      -3.997   3.786 129.124  0.00  0.00    +0.000 C 
ATOM      5 CL   UNL     1      -2.922   3.174 127.888  0.00  0.00    +0.000 Cl
ATOM      6  CA  UNL     1      -4.143   5.091 129.469  0.00  0.00    +0.000 C 
ATOM      7  N   UNL     1      -5.062   5.408 130.447  0.00  0.00    +0.000 N 
ATOM      8  C   UNL     1      -5.835   6.465 130.776  0.00  0.00    +0.000 C 
ATOM      9  O   UNL     1      -5.747   7.619 130.406  0.00  0.00    +0.000 OA
ATOM     10  CA  UNL     1      -6.809   5.523 131.595  0.00  0.00    +0.000 C 
ENDROOT
BRANCH  10  11
ATOM     11  N   UNL     1      -8.136   5.228 130.965  0.00  0.00    +0.000 N 
ATOM     12  C   UNL     1      -9.285   5.745 131.503  0.00  0.00    +0.000 C 
ATOM     13  O   UNL     1      -9.226   6.472 132.495  0.00  0.00    +0.000 OA
ATOM     14  H   UNL     1      -8.181   4.635 130.139  0.00  0.00    +0.000 HD
BRANCH  12  15
ATOM     15  CA  UNL     1     -10.618   5.345 130.806  0.00  0.00    +0.000 C 
BRANCH  15  16
ATOM     16  C   UNL     1     -11.182   6.532 130.050  0.00  0.00    +0.000 A 
ATOM     17  C   UNL     1     -10.529   7.036 128.912  0.00  0.00    +0.000 A 
ATOM     18  C   UNL     1     -10.927   8.238 128.337  0.00  0.00    +0.000 A 
ATOM     19  C   UNL     1     -12.059   8.889 128.814  0.00  0.00    +0.000 A 
ATOM     20  C   UNL     1     -12.757   8.369 129.904  0.00  0.00    +0.000 A 
ATOM     21  C   UNL     1     -12.317   7.200 130.527  0.00  0.00    +0.000 A 
ENDBRANCH  15  16
BRANCH  15  22
ATOM     22  N   UNL     1     -10.363   4.205 129.913  0.00  0.00    +0.000 NA
ATOM     23  H1  UNL     1     -10.952   4.332 129.088  0.00  0.00    +0.000 HD
ATOM     24  H2  UNL     1     -10.700   3.357 130.365  0.00  0.00    +0.000 HD
ENDBRANCH  15  22
ENDBRANCH  12  15
ENDBRANCH  10  11
BRANCH   6  25
ATOM     25  C   UNL     1      -3.299   6.143 128.765  0.00  0.00    +0.000 C 
ATOM     26  OXT UNL     1      -2.106   6.314 128.973  0.00  0.00    +0.000 OA
BRANCH  25  27
ATOM     27  O   UNL     1      -3.935   6.994 127.939  0.00  0.00    +0.000 OA
ATOM     28  H   UNL     1      -4.297   6.647 127.097  0.00  0.00    +0.000 HD
ENDBRANCH  25  27
ENDBRANCH   6  25
TORSDOF 6
ENDMDL
MODEL 4
REMARK VINA RESULT:      -7.1      3.175      3.979
REMARK  Name = Cefaclor
REMARK  6 active torsions:
REMARK  status: ('A' for Active; 'I' for Inactive)
REMARK    1  A    between atoms: CA_7  and  C_23
REMARK    2  A    between atoms: CA_11  and  N_12
REMARK    3  A    between atoms: C_13  and  CA_15
REMARK    4  A    between atoms: CA_15  and  N_16
REMARK    5  A    between atoms: CA_15  and  C_17
REMARK    6  A    between atoms: C_23  and  O_24
REMARK                            x       y       z     vdW  Elec       q    Type
REMARK                         _______ _______ _______ _____ _____    ______ ____
ROOT
ATOM      1  C   UNL     1      -7.709   2.991 124.659  0.00  0.00    +0.000 C 
ATOM      2  S   UNL     1      -5.991   2.619 125.085  0.00  0.00    +0.000 S 
ATOM      3  C   UNL     1      -5.339   3.952 124.090  0.00  0.00    +0.000 C 
ATOM      4  C   UNL     1      -5.891   4.051 122.695  0.00  0.00    +0.000 C 
ATOM      5 CL   UNL     1      -4.700   4.824 121.676  0.00  0.00    +0.000 Cl
ATOM      6  CA  UNL     1      -7.104   3.597 122.287  0.00  0.00    +0.000 C 
ATOM      7  N   UNL     1      -7.915   2.978 123.215  0.00  0.00    +0.000 N 
ATOM      8  C   UNL     1      -8.888   2.042 123.215  0.00  0.00    +0.000 C 
ATOM      9  O   UNL     1      -9.543   1.624 122.281  0.00  0.00    +0.000 OA
ATOM     10  CA  UNL     1      -8.627   1.742 124.747  0.00  0.00    +0.000 C 
ENDROOT
BRANCH  10  11
ATOM     11  N   UNL     1      -7.918   0.460 125.063  0.00  0.00    +0.000 N 
ATOM     12  C   UNL     1      -8.631  -0.691 125.263  0.00  0.00    +0.000 C 
ATOM     13  O   UNL     1      -9.858  -0.680 125.161  0.00  0.00    +0.000 OA
ATOM     14  H   UNL     1      -6.903   0.452 125.135  0.00  0.00    +0.000 HD
BRANCH  12  15
ATOM     15  CA  UNL     1      -7.809  -1.961 125.631  0.00  0.00    +0.000 C 
BRANCH  15  16
ATOM     16  C   UNL     1      -8.024  -2.310 127.091  0.00  0.00    +0.000 A 
ATOM     17  C   UNL     1      -7.449  -1.529 128.109  0.00  0.00    +0.000 A 
ATOM     18  C   UNL     1      -7.474  -1.956 129.433  0.00  0.00    +0.000 A 
ATOM     19  C   UNL     1      -8.181  -3.102 129.774  0.00  0.00    +0.000 A 
ATOM     20  C   UNL     1      -8.811  -3.856 128.784  0.00  0.00    +0.000 A 
ATOM     21  C   UNL     1      -8.728  -3.467 127.446  0.00  0.00    +0.000 A 
ENDBRANCH  15  16
BRANCH  15  22
ATOM     22  N   UNL     1      -8.214  -3.061 124.745  0.00  0.00    +0.000 NA
ATOM     23  H1  UNL     1      -8.709  -3.745 125.321  0.00  0.00    +0.000 HD
ATOM     24  H2  UNL     1      -7.376  -3.537 124.413  0.00  0.00    +0.000 HD
ENDBRANCH  15  22
ENDBRANCH  12  15
ENDBRANCH  10  11
BRANCH   6  25
ATOM     25  C   UNL     1      -7.515   3.781 120.834  0.00  0.00    +0.000 C 
ATOM     26  OXT UNL     1      -6.738   3.721 119.891  0.00  0.00    +0.000 OA
BRANCH  25  27
ATOM     27  O   UNL     1      -8.793   4.127 120.591  0.00  0.00    +0.000 OA
ATOM     28  H   UNL     1      -9.317   3.579 119.971  0.00  0.00    +0.000 HD
ENDBRANCH  25  27
ENDBRANCH   6  25
TORSDOF 6
ENDMDL
MODEL 5
REMARK VINA RESULT:      -7.0      5.182      8.659
REMARK  Name = Cefaclor
REMARK  6 active torsions:
REMARK  status: ('A' for Active; 'I' for Inactive)
REMARK    1  A    between atoms: CA_7  and  C_23
REMARK    2  A    between atoms: CA_11  and  N_12
REMARK    3  A    between atoms: C_13  and  CA_15
REMARK    4  A    between atoms: CA_15  and  N_16
REMARK    5  A    between atoms: CA_15  and  C_17
REMARK    6  A    between atoms: C_23  and  O_24
REMARK                            x       y       z     vdW  Elec       q    Type
REMARK                         _______ _______ _______ _____ _____    ______ ____
ROOT
ATOM      1  C   UNL     1      -7.169   2.764 127.982  0.00  0.00    +0.000 C 
ATOM      2  S   UNL     1      -7.934   1.641 129.175  0.00  0.00    +0.000 S 
ATOM      3  C   UNL     1      -7.824   0.229 128.085  0.00  0.00    +0.000 C 
ATOM      4  C   UNL     1      -8.294   0.459 126.675  0.00  0.00    +0.000 C 
ATOM      5 CL   UNL     1      -8.826  -1.067 126.008  0.00  0.00    +0.000 Cl
ATOM      6  CA  UNL     1      -8.322   1.655 126.032  0.00  0.00    +0.000 C 
ATOM      7  N   UNL     1      -7.895   2.773 126.716  0.00  0.00    +0.000 N 
ATOM      8  C   UNL     1      -8.140   4.101 126.699  0.00  0.00    +0.000 C 
ATOM      9  O   UNL     1      -8.675   4.766 125.835  0.00  0.00    +0.000 OA
ATOM     10  CA  UNL     1      -7.611   4.239 128.185  0.00  0.00    +0.000 C 
ENDROOT
BRANCH  10  11
ATOM     11  N   UNL     1      -8.650   4.444 129.245  0.00  0.00    +0.000 N 
ATOM     12  C   UNL     1      -8.493   5.429 130.183  0.00  0.00    +0.000 C 
ATOM     13  O   UNL     1      -7.507   6.164 130.143  0.00  0.00    +0.000 OA
ATOM     14  H   UNL     1      -9.470   3.841 129.269  0.00  0.00    +0.000 HD
BRANCH  12  15
ATOM     15  CA  UNL     1      -9.602   5.533 131.270  0.00  0.00    +0.000 C 
BRANCH  15  16
ATOM     16  C   UNL     1     -10.711   6.451 130.792  0.00  0.00    +0.000 A 
ATOM     17  C   UNL     1     -10.534   7.258 129.655  0.00  0.00    +0.000 A 
ATOM     18  C   UNL     1     -11.462   8.242 129.330  0.00  0.00    +0.000 A 
ATOM     19  C   UNL     1     -12.638   8.348 130.062  0.00  0.00    +0.000 A 
ATOM     20  C   UNL     1     -12.858   7.513 131.157  0.00  0.00    +0.000 A 
ATOM     21  C   UNL     1     -11.895   6.572 131.527  0.00  0.00    +0.000 A 
ENDBRANCH  15  16
BRANCH  15  22
ATOM     22  N   UNL     1     -10.104   4.184 131.567  0.00  0.00    +0.000 NA
ATOM     23  H1  UNL     1     -11.027   4.105 131.133  0.00  0.00    +0.000 HD
ATOM     24  H2  UNL     1     -10.264   4.109 132.570  0.00  0.00    +0.000 HD
ENDBRANCH  15  22
ENDBRANCH  12  15
ENDBRANCH  10  11
BRANCH   6  25
ATOM     25  C   UNL     1      -8.824   1.714 124.598  0.00  0.00    +0.000 C 
ATOM     26  OXT UNL     1      -8.162   1.377 123.626  0.00  0.00    +0.000 OA
BRANCH  25  27
ATOM     27  O   UNL     1     -10.035   2.264 124.389  0.00  0.00    +0.000 OA
ATOM     28  H   UNL     1     -10.081   3.157 123.988  0.00  0.00    +0.000 HD
ENDBRANCH  25  27
ENDBRANCH   6  25
TORSDOF 6
ENDMDL
MODEL 6
REMARK VINA RESULT:      -7.0      8.148      9.952
REMARK  Name = Cefaclor
REMARK  6 active torsions:
REMARK  status: ('A' for Active; 'I' for Inactive)
REMARK    1  A    between atoms: CA_7  and  C_23
REMARK    2  A    between atoms: CA_11  and  N_12
REMARK    3  A    between atoms: C_13  and  CA_15
REMARK    4  A    between atoms: CA_15  and  N_16
REMARK    5  A    between atoms: CA_15  and  C_17
REMARK    6  A    between atoms: C_23  and  O_24
REMARK                            x       y       z     vdW  Elec       q    Type
REMARK                         _______ _______ _______ _____ _____    ______ ____
ROOT
ATOM      1  C   UNL     1     -10.687   5.079 130.759  0.00  0.00    +0.000 C 
ATOM      2  S   UNL     1     -10.874   6.180 132.182  0.00  0.00    +0.000 S 
ATOM      3  C   UNL     1     -12.222   7.090 131.442  0.00  0.00    +0.000 C 
ATOM      4  C   UNL     1     -12.006   7.529 130.020  0.00  0.00    +0.000 C 
ATOM      5 CL   UNL     1     -12.974   8.953 129.722  0.00  0.00    +0.000 Cl
ATOM      6  CA  UNL     1     -11.181   6.932 129.121  0.00  0.00    +0.000 C 
ATOM      7  N   UNL     1     -10.460   5.831 129.529  0.00  0.00    +0.000 N 
ATOM      8  C   UNL     1      -9.289   5.238 129.211  0.00  0.00    +0.000 C 
ATOM      9  O   UNL     1      -8.601   5.391 128.221  0.00  0.00    +0.000 OA
ATOM     10  CA  UNL     1      -9.244   4.523 130.623  0.00  0.00    +0.000 C 
ENDROOT
BRANCH  10  11
ATOM     11  N   UNL     1      -8.263   5.069 131.615  0.00  0.00    +0.000 N 
ATOM     12  C   UNL     1      -6.995   4.557 131.684  0.00  0.00    +0.000 C 
ATOM     13  O   UNL     1      -6.651   3.660 130.914  0.00  0.00    +0.000 OA
ATOM     14  H   UNL     1      -8.547   5.818 132.243  0.00  0.00    +0.000 HD
BRANCH  12  15
ATOM     15  CA  UNL     1      -6.064   5.157 132.778  0.00  0.00    +0.000 C 
BRANCH  15  16
ATOM     16  C   UNL     1      -5.195   6.245 132.176  0.00  0.00    +0.000 A 
ATOM     17  C   UNL     1      -5.567   6.882 130.980  0.00  0.00    +0.000 A 
ATOM     18  C   UNL     1      -4.683   7.731 130.321  0.00  0.00    +0.000 A 
ATOM     19  C   UNL     1      -3.467   8.052 130.911  0.00  0.00    +0.000 A 
ATOM     20  C   UNL     1      -3.108   7.477 132.130  0.00  0.00    +0.000 A 
ATOM     21  C   UNL     1      -3.964   6.570 132.758  0.00  0.00    +0.000 A 
ENDBRANCH  15  16
BRANCH  15  22
ATOM     22  N   UNL     1      -6.893   5.672 133.877  0.00  0.00    +0.000 NA
ATOM     23  H1  UNL     1      -6.257   6.050 134.582  0.00  0.00    +0.000 HD
ATOM     24  H2  UNL     1      -7.364   4.887 134.324  0.00  0.00    +0.000 HD
ENDBRANCH  15  22
ENDBRANCH  12  15
ENDBRANCH  10  11
BRANCH   6  25
ATOM     25  C   UNL     1     -11.081   7.502 127.714  0.00  0.00    +0.000 C 
ATOM     26  OXT UNL     1     -11.361   6.876 126.701  0.00  0.00    +0.000 OA
BRANCH  25  27
ATOM     27  O   UNL     1     -10.559   8.736 127.582  0.00  0.00    +0.000 OA
ATOM     28  H   UNL     1      -9.590   8.847 127.677  0.00  0.00    +0.000 HD
ENDBRANCH  25  27
ENDBRANCH   6  25
TORSDOF 6
ENDMDL
MODEL 7
REMARK VINA RESULT:      -6.9      6.779      9.670
REMARK  Name = Cefaclor
REMARK  6 active torsions:
REMARK  status: ('A' for Active; 'I' for Inactive)
REMARK    1  A    between atoms: CA_7  and  C_23
REMARK    2  A    between atoms: CA_11  and  N_12
REMARK    3  A    between atoms: C_13  and  CA_15
REMARK    4  A    between atoms: CA_15  and  N_16
REMARK    5  A    between atoms: CA_15  and  C_17
REMARK    6  A    between atoms: C_23  and  O_24
REMARK                            x       y       z     vdW  Elec       q    Type
REMARK                         _______ _______ _______ _____ _____    ______ ____
ROOT
ATOM      1  C   UNL     1      -7.721   2.292 129.832  0.00  0.00    +0.000 C 
ATOM      2  S   UNL     1      -6.583   3.659 130.163  0.00  0.00    +0.000 S 
ATOM      3  C   UNL     1      -5.178   2.580 130.392  0.00  0.00    +0.000 C 
ATOM      4  C   UNL     1      -5.407   1.397 131.292  0.00  0.00    +0.000 C 
ATOM      5 CL   UNL     1      -3.877   0.924 131.993  0.00  0.00    +0.000 Cl
ATOM      6  CA  UNL     1      -6.605   0.806 131.537  0.00  0.00    +0.000 C 
ATOM      7  N   UNL     1      -7.725   1.326 130.925  0.00  0.00    +0.000 N 
ATOM      8  C   UNL     1      -9.050   1.398 131.178  0.00  0.00    +0.000 C 
ATOM      9  O   UNL     1      -9.711   0.756 131.969  0.00  0.00    +0.000 OA
ATOM     10  CA  UNL     1      -9.189   2.637 130.202  0.00  0.00    +0.000 C 
ENDROOT
BRANCH  10  11
ATOM     11  N   UNL     1      -9.377   3.976 130.849  0.00  0.00    +0.000 N 
ATOM     12  C   UNL     1     -10.546   4.667 130.677  0.00  0.00    +0.000 C 
ATOM     13  O   UNL     1     -11.457   4.177 130.008  0.00  0.00    +0.000 OA
ATOM     14  H   UNL     1      -8.627   4.373 131.410  0.00  0.00    +0.000 HD
BRANCH  12  15
ATOM     15  CA  UNL     1     -10.629   6.068 131.349  0.00  0.00    +0.000 C 
BRANCH  15  16
ATOM     16  C   UNL     1     -11.056   7.106 130.329  0.00  0.00    +0.000 A 
ATOM     17  C   UNL     1     -12.363   7.621 130.332  0.00  0.00    +0.000 A 
ATOM     18  C   UNL     1     -12.817   8.416 129.285  0.00  0.00    +0.000 A 
ATOM     19  C   UNL     1     -11.935   8.809 128.286  0.00  0.00    +0.000 A 
ATOM     20  C   UNL     1     -10.615   8.358 128.301  0.00  0.00    +0.000 A 
ATOM     21  C   UNL     1     -10.177   7.503 129.314  0.00  0.00    +0.000 A 
ENDBRANCH  15  16
BRANCH  15  22
ATOM     22  N   UNL     1     -11.569   5.998 132.477  0.00  0.00    +0.000 NA
ATOM     23  H1  UNL     1     -11.223   5.276 133.113  0.00  0.00    +0.000 HD
ATOM     24  H2  UNL     1     -12.465   5.656 132.134  0.00  0.00    +0.000 HD
ENDBRANCH  15  22
ENDBRANCH  12  15
ENDBRANCH  10  11
BRANCH   6  25
ATOM     25  C   UNL     1      -6.663  -0.391 132.473  0.00  0.00    +0.000 C 
ATOM     26  OXT UNL     1      -6.327  -1.525 132.157  0.00  0.00    +0.000 OA
BRANCH  25  27
ATOM     27  O   UNL     1      -7.211  -0.201 133.688  0.00  0.00    +0.000 OA
ATOM     28  H   UNL     1      -7.224  -0.950 134.318  0.00  0.00    +0.000 HD
ENDBRANCH  25  27
ENDBRANCH   6  25
TORSDOF 6
ENDMDL
MODEL 8
REMARK VINA RESULT:      -6.9      3.357      4.352
REMARK  Name = Cefaclor
REMARK  6 active torsions:
REMARK  status: ('A' for Active; 'I' for Inactive)
REMARK    1  A    between atoms: CA_7  and  C_23
REMARK    2  A    between atoms: CA_11  and  N_12
REMARK    3  A    between atoms: C_13  and  CA_15
REMARK    4  A    between atoms: CA_15  and  N_16
REMARK    5  A    between atoms: CA_15  and  C_17
REMARK    6  A    between atoms: C_23  and  O_24
REMARK                            x       y       z     vdW  Elec       q    Type
REMARK                         _______ _______ _______ _____ _____    ______ ____
ROOT
ATOM      1  C   UNL     1      -5.524   3.165 128.161  0.00  0.00    +0.000 C 
ATOM      2  S   UNL     1      -4.238   2.392 127.152  0.00  0.00    +0.000 S 
ATOM      3  C   UNL     1      -4.298   3.666 125.900  0.00  0.00    +0.000 C 
ATOM      4  C   UNL     1      -5.673   4.043 125.423  0.00  0.00    +0.000 C 
ATOM      5 CL   UNL     1      -5.549   4.663 123.794  0.00  0.00    +0.000 Cl
ATOM      6  CA  UNL     1      -6.824   3.907 126.131  0.00  0.00    +0.000 C 
ATOM      7  N   UNL     1      -6.751   3.367 127.397  0.00  0.00    +0.000 N 
ATOM      8  C   UNL     1      -7.555   2.664 128.224  0.00  0.00    +0.000 C 
ATOM      9  O   UNL     1      -8.758   2.507 128.167  0.00  0.00    +0.000 OA
ATOM     10  CA  UNL     1      -6.298   2.136 129.030  0.00  0.00    +0.000 C 
ENDROOT
BRANCH  10  11
ATOM     11  N   UNL     1      -5.915   0.706 128.801  0.00  0.00    +0.000 N 
ATOM     12  C   UNL     1      -6.396  -0.277 129.625  0.00  0.00    +0.000 C 
ATOM     13  O   UNL     1      -7.165   0.012 130.542  0.00  0.00    +0.000 OA
ATOM     14  H   UNL     1      -5.287   0.469 128.036  0.00  0.00    +0.000 HD
BRANCH  12  15
ATOM     15  CA  UNL     1      -5.904  -1.725 129.336  0.00  0.00    +0.000 C 
BRANCH  15  16
ATOM     16  C   UNL     1      -6.924  -2.458 128.485  0.00  0.00    +0.000 A 
ATOM     17  C   UNL     1      -6.980  -2.253 127.096  0.00  0.00    +0.000 A 
ATOM     18  C   UNL     1      -8.033  -2.762 126.344  0.00  0.00    +0.000 A 
ATOM     19  C   UNL     1      -8.976  -3.586 126.947  0.00  0.00    +0.000 A 
ATOM     20  C   UNL     1      -8.900  -3.851 128.314  0.00  0.00    +0.000 A 
ATOM     21  C   UNL     1      -7.883  -3.283 129.084  0.00  0.00    +0.000 A 
ENDBRANCH  15  16
BRANCH  15  22
ATOM     22  N   UNL     1      -4.594  -1.658 128.674  0.00  0.00    +0.000 NA
ATOM     23  H1  UNL     1      -4.701  -2.082 127.751  0.00  0.00    +0.000 HD
ATOM     24  H2  UNL     1      -3.943  -2.259 129.178  0.00  0.00    +0.000 HD
ENDBRANCH  15  22
ENDBRANCH  12  15
ENDBRANCH  10  11
BRANCH   6  25
ATOM     25  C   UNL     1      -8.138   4.344 125.502  0.00  0.00    +0.000 C 
ATOM     26  OXT UNL     1      -8.902   3.588 124.916  0.00  0.00    +0.000 OA
BRANCH  25  27
ATOM     27  O   UNL     1      -8.420   5.661 125.509  0.00  0.00    +0.000 OA
ATOM     28  H   UNL     1      -8.751   6.063 126.339  0.00  0.00    +0.000 HD
ENDBRANCH  25  27
ENDBRANCH   6  25
TORSDOF 6
ENDMDL
MODEL 9
REMARK VINA RESULT:      -6.7      4.190      4.964
REMARK  Name = Cefaclor
REMARK  6 active torsions:
REMARK  status: ('A' for Active; 'I' for Inactive)
REMARK    1  A    between atoms: CA_7  and  C_23
REMARK    2  A    between atoms: CA_11  and  N_12
REMARK    3  A    between atoms: C_13  and  CA_15
REMARK    4  A    between atoms: CA_15  and  N_16
REMARK    5  A    between atoms: CA_15  and  C_17
REMARK    6  A    between atoms: C_23  and  O_24
REMARK                            x       y       z     vdW  Elec       q    Type
REMARK                         _______ _______ _______ _____ _____    ______ ____
ROOT
ATOM      1  C   UNL     1      -7.774  -1.384 128.792  0.00  0.00    +0.000 C 
ATOM      2  S   UNL     1      -8.105  -3.139 128.507  0.00  0.00    +0.000 S 
ATOM      3  C   UNL     1      -7.272  -3.653 130.002  0.00  0.00    +0.000 C 
ATOM      4  C   UNL     1      -5.915  -3.046 130.232  0.00  0.00    +0.000 C 
ATOM      5 CL   UNL     1      -4.974  -4.138 131.219  0.00  0.00    +0.000 Cl
ATOM      6  CA  UNL     1      -5.484  -1.856 129.738  0.00  0.00    +0.000 C 
ATOM      7  N   UNL     1      -6.346  -1.129 128.945  0.00  0.00    +0.000 N 
ATOM      8  C   UNL     1      -6.251  -0.229 127.942  0.00  0.00    +0.000 C 
ATOM      9  O   UNL     1      -5.289   0.426 127.594  0.00  0.00    +0.000 OA
ATOM     10  CA  UNL     1      -7.725  -0.566 127.473  0.00  0.00    +0.000 C 
ENDROOT
BRANCH  10  11
ATOM     11  N   UNL     1      -7.855  -1.381 126.222  0.00  0.00    +0.000 N 
ATOM     12  C   UNL     1      -8.913  -1.181 125.376  0.00  0.00    +0.000 C 
ATOM     13  O   UNL     1      -9.748  -0.314 125.631  0.00  0.00    +0.000 OA
ATOM     14  H   UNL     1      -7.157  -2.090 126.009  0.00  0.00    +0.000 HD
BRANCH  12  15
ATOM     15  CA  UNL     1      -8.987  -2.108 124.128  0.00  0.00    +0.000 C 
BRANCH  15  16
ATOM     16  C   UNL     1      -7.592  -2.552 123.730  0.00  0.00    +0.000 A 
ATOM     17  C   UNL     1      -6.992  -3.667 124.339  0.00  0.00    +0.000 A 
ATOM     18  C   UNL     1      -5.648  -3.957 124.127  0.00  0.00    +0.000 A 
ATOM     19  C   UNL     1      -4.920  -3.212 123.208  0.00  0.00    +0.000 A 
ATOM     20  C   UNL     1      -5.517  -2.139 122.547  0.00  0.00    +0.000 A 
ATOM     21  C   UNL     1      -6.846  -1.803 122.812  0.00  0.00    +0.000 A 
ENDBRANCH  15  16
BRANCH  15  22
ATOM     22  N   UNL     1      -9.852  -3.254 124.439  0.00  0.00    +0.000 NA
ATOM     23  H1  UNL     1      -9.467  -4.064 123.948  0.00  0.00    +0.000 HD
ATOM     24  H2  UNL     1     -10.769  -3.092 124.024  0.00  0.00    +0.000 HD
ENDBRANCH  15  22
ENDBRANCH  12  15
ENDBRANCH  10  11
BRANCH   6  25
ATOM     25  C   UNL     1      -4.078  -1.382 130.070  0.00  0.00    +0.000 C 
ATOM     26  OXT UNL     1      -3.832  -0.400 130.759  0.00  0.00    +0.000 OA
BRANCH  25  27
ATOM     27  O   UNL     1      -3.052  -2.029 129.487  0.00  0.00    +0.000 OA
ATOM     28  H   UNL     1      -2.140  -1.718 129.664  0.00  0.00    +0.000 HD
ENDBRANCH  25  27
ENDBRANCH   6  25
TORSDOF 6
ENDMDL
