MODEL 1
REMARK VINA RESULT:      -7.0      0.000      0.000
REMARK  Name = Cefazolin
REMARK  9 active torsions:
REMARK  status: ('A' for Active; 'I' for Inactive)
REMARK    1  A    between atoms: C_5  and  C_6
REMARK    2  A    between atoms: C_6  and  S_7
REMARK    3  A    between atoms: S_7  and  C_8
REMARK    4  A    between atoms: C_11  and  C_12
REMARK    5  A    between atoms: CA_14  and  C_28
REMARK    6  A    between atoms: CA_18  and  N_19
REMARK    7  A    between atoms: C_20  and  C_22
REMARK    8  A    between atoms: C_22  and  N_23
REMARK    9  A    between atoms: C_28  and  O_29
REMARK                            x       y       z     vdW  Elec       q    Type
REMARK                         _______ _______ _______ _____ _____    ______ ____
ROOT
ATOM      1  C   UNL     1      -8.980   1.274 125.779  0.00  0.00    +0.000 C 
ATOM      2  S   UNL     1      -7.702   0.583 126.848  0.00  0.00    +0.000 S 
ATOM      3  C   UNL     1      -7.952   1.869 128.104  0.00  0.00    +0.000 C 
ATOM      4  C   UNL     1      -7.825   3.294 127.583  0.00  0.00    +0.000 C 
ATOM      5  CA  UNL     1      -8.084   3.597 126.271  0.00  0.00    +0.000 C 
ATOM      6  N   UNL     1      -8.572   2.631 125.401  0.00  0.00    +0.000 N 
ATOM      7  C   UNL     1      -8.210   2.292 124.130  0.00  0.00    +0.000 C 
ATOM      8  O   UNL     1      -7.621   2.932 123.297  0.00  0.00    +0.000 OA
ATOM      9  CA  UNL     1      -8.902   0.900 124.265  0.00  0.00    +0.000 C 
ENDROOT
BRANCH   9  10
ATOM     10  N   UNL     1      -8.193  -0.373 123.848  0.00  0.00    +0.000 N 
ATOM     11  C   UNL     1      -8.892  -1.301 123.079  0.00  0.00    +0.000 C 
ATOM     12  O   UNL     1     -10.090  -1.131 122.861  0.00  0.00    +0.000 OA
ATOM     13  H   UNL     1      -7.209  -0.509 124.058  0.00  0.00    +0.000 HD
BRANCH  11  14
ATOM     14  C   UNL     1      -8.119  -2.505 122.559  0.00  0.00    +0.000 C 
BRANCH  14  15
ATOM     15  N   UNL     1      -6.877  -2.693 123.285  0.00  0.00    +0.000 N 
ATOM     16  C   UNL     1      -5.606  -2.656 122.803  0.00  0.00    +0.000 A 
ATOM     17  N   UNL     1      -4.774  -2.807 123.807  0.00  0.00    +0.000 NA
ATOM     18  N   UNL     1      -5.561  -2.972 124.923  0.00  0.00    +0.000 NA
ATOM     19  N   UNL     1      -6.850  -2.953 124.603  0.00  0.00    +0.000 NA
ENDBRANCH  14  15
ENDBRANCH  11  14
ENDBRANCH   9  10
BRANCH   5  20
ATOM     20  C   UNL     1      -7.869   5.028 125.787  0.00  0.00    +0.000 C 
ATOM     21  OXT UNL     1      -6.774   5.479 125.476  0.00  0.00    +0.000 OA
BRANCH  20  22
ATOM     22  O   UNL     1      -8.941   5.842 125.790  0.00  0.00    +0.000 OA
ATOM     23  H   UNL     1      -9.644   5.654 125.141  0.00  0.00    +0.000 HD
ENDBRANCH  20  22
ENDBRANCH   5  20
BRANCH   4  24
ATOM     24  C   UNL     1      -7.371   4.360 128.630  0.00  0.00    +0.000 C 
BRANCH  24  25
ATOM     25  S   UNL     1      -8.466   4.508 130.085  0.00  0.00    +0.000 S 
BRANCH  25  26
ATOM     26  C   UNL     1      -9.767   5.554 129.584  0.00  0.00    +0.000 A 
ATOM     27  N   UNL     1      -9.726   6.236 128.462  0.00  0.00    +0.000 NA
ATOM     28  N   UNL     1     -10.943   6.828 128.167  0.00  0.00    +0.000 NA
ATOM     29  C   UNL     1     -11.860   6.568 129.076  0.00  0.00    +0.000 A 
ATOM     30  C   UNL     1     -13.259   7.071 129.037  0.00  0.00    +0.000 C 
ATOM     31  S   UNL     1     -11.301   5.571 130.361  0.00  0.00    +0.000 S 
ENDBRANCH  25  26
ENDBRANCH  24  25
ENDBRANCH   4  24
TORSDOF 8
ENDMDL
MODEL 2
REMARK VINA RESULT:      -7.0      6.593      8.830
REMARK  Name = Cefazolin
REMARK  9 active torsions:
REMARK  status: ('A' for Active; 'I' for Inactive)
REMARK    1  A    between atoms: C_5  and  C_6
REMARK    2  A    between atoms: C_6  and  S_7
REMARK    3  A    between atoms: S_7  and  C_8
REMARK    4  A    between atoms: C_11  and  C_12
REMARK    5  A    between atoms: CA_14  and  C_28
REMARK    6  A    between atoms: CA_18  and  N_19
REMARK    7  A    between atoms: C_20  and  C_22
REMARK    8  A    between atoms: C_22  and  N_23
REMARK    9  A    between atoms: C_28  and  O_29
REMARK                            x       y       z     vdW  Elec       q    Type
REMARK                         _______ _______ _______ _____ _____    ______ ____
ROOT
ATOM      1  C   UNL     1      -9.269   3.839 130.540  0.00  0.00    +0.000 C 
ATOM      2  S   UNL     1      -8.618   4.110 128.880  0.00  0.00    +0.000 S 
ATOM      3  C   UNL     1      -7.117   3.152 129.230  0.00  0.00    +0.000 C 
ATOM      4  C   UNL     1      -6.334   3.628 130.445  0.00  0.00    +0.000 C 
ATOM      5  CA  UNL     1      -6.953   4.281 131.479  0.00  0.00    +0.000 C 
ATOM      6  N   UNL     1      -8.333   4.436 131.498  0.00  0.00    +0.000 N 
ATOM      7  C   UNL     1      -9.118   5.519 131.766  0.00  0.00    +0.000 C 
ATOM      8  O   UNL     1      -8.866   6.524 132.379  0.00  0.00    +0.000 OA
ATOM      9  CA  UNL     1     -10.337   4.859 131.048  0.00  0.00    +0.000 C 
ENDROOT
BRANCH   9  10
ATOM     10  N   UNL     1     -11.167   5.631 130.042  0.00  0.00    +0.000 N 
ATOM     11  C   UNL     1     -12.152   6.494 130.517  0.00  0.00    +0.000 C 
ATOM     12  O   UNL     1     -12.409   6.521 131.719  0.00  0.00    +0.000 OA
ATOM     13  H   UNL     1     -10.958   5.578 129.049  0.00  0.00    +0.000 HD
BRANCH  11  14
ATOM     14  C   UNL     1     -12.879   7.359 129.497  0.00  0.00    +0.000 C 
BRANCH  14  15
ATOM     15  N   UNL     1     -12.123   7.474 128.264  0.00  0.00    +0.000 N 
ATOM     16  C   UNL     1     -11.226   8.434 127.912  0.00  0.00    +0.000 A 
ATOM     17  N   UNL     1     -10.721   8.124 126.741  0.00  0.00    +0.000 NA
ATOM     18  N   UNL     1     -11.350   6.963 126.357  0.00  0.00    +0.000 NA
ATOM     19  N   UNL     1     -12.246   6.586 127.262  0.00  0.00    +0.000 NA
ENDBRANCH  14  15
ENDBRANCH  11  14
ENDBRANCH   9  10
BRANCH   5  20
ATOM     20  C   UNL     1      -6.106   4.800 132.638  0.00  0.00    +0.000 C 
ATOM     21  OXT UNL     1      -5.766   4.109 133.589  0.00  0.00    +0.000 OA
BRANCH  20  22
ATOM     22  O   UNL     1      -5.800   6.111 132.632  0.00  0.00    +0.000 OA
ATOM     23  H   UNL     1      -6.050   6.630 133.418  0.00  0.00    +0.000 HD
ENDBRANCH  20  22
ENDBRANCH   5  20
BRANCH   4  24
ATOM     24  C   UNL     1      -4.800   3.337 130.419  0.00  0.00    +0.000 C 
BRANCH  24  25
ATOM     25  S   UNL     1      -3.861   4.320 129.197  0.00  0.00    +0.000 S 
BRANCH  25  26
ATOM     26  C   UNL     1      -3.636   5.883 129.934  0.00  0.00    +0.000 A 
ATOM     27  N   UNL     1      -4.532   6.840 129.838  0.00  0.00    +0.000 NA
ATOM     28  N   UNL     1      -4.241   7.911 130.668  0.00  0.00    +0.000 NA
ATOM     29  C   UNL     1      -3.139   7.722 131.362  0.00  0.00    +0.000 A 
ATOM     30  C   UNL     1      -2.568   8.697 132.330  0.00  0.00    +0.000 C 
ATOM     31  S   UNL     1      -2.375   6.212 131.056  0.00  0.00    +0.000 S 
ENDBRANCH  25  26
ENDBRANCH  24  25
ENDBRANCH   4  24
TORSDOF 8
ENDMDL
MODEL 3
REMARK VINA RESULT:      -6.9      6.276      9.130
REMARK  Name = Cefazolin
REMARK  9 active torsions:
REMARK  status: ('A' for Active; 'I' for Inactive)
REMARK    1  A    between atoms: C_5  and  C_6
REMARK    2  A    between atoms: C_6  and  S_7
REMARK    3  A    between atoms: S_7  and  C_8
REMARK    4  A    between atoms: C_11  and  C_12
REMARK    5  A    between atoms: CA_14  and  C_28
REMARK    6  A    between atoms: CA_18  and  N_19
REMARK    7  A    between atoms: C_20  and  C_22
REMARK    8  A    between atoms: C_22  and  N_23
REMARK    9  A    between atoms: C_28  and  O_29
REMARK                            x       y       z     vdW  Elec       q    Type
REMARK                         _______ _______ _______ _____ _____    ______ ____
ROOT
ATOM      1  C   UNL     1      -9.618   4.049 130.712  0.00  0.00    +0.000 C 
ATOM      2  S   UNL     1      -8.558   4.470 129.316  0.00  0.00    +0.000 S 
ATOM      3  C   UNL     1      -7.274   3.299 129.840  0.00  0.00    +0.000 C 
ATOM      4  C   UNL     1      -6.778   3.503 131.264  0.00  0.00    +0.000 C 
ATOM      5  CA  UNL     1      -7.577   4.073 132.221  0.00  0.00    +0.000 C 
ATOM      6  N   UNL     1      -8.902   4.388 131.946  0.00  0.00    +0.000 N 
ATOM      7  C   UNL     1      -9.637   5.509 132.200  0.00  0.00    +0.000 C 
ATOM      8  O   UNL     1      -9.461   6.380 133.012  0.00  0.00    +0.000 OA
ATOM      9  CA  UNL     1     -10.690   5.107 131.121  0.00  0.00    +0.000 C 
ENDROOT
BRANCH   9  10
ATOM     10  N   UNL     1     -11.180   6.107 130.093  0.00  0.00    +0.000 N 
ATOM     11  C   UNL     1     -12.194   6.990 130.456  0.00  0.00    +0.000 C 
ATOM     12  O   UNL     1     -12.750   6.863 131.546  0.00  0.00    +0.000 OA
ATOM     13  H   UNL     1     -10.726   6.182 129.187  0.00  0.00    +0.000 HD
BRANCH  11  14
ATOM     14  C   UNL     1     -12.575   8.071 129.454  0.00  0.00    +0.000 C 
BRANCH  14  15
ATOM     15  N   UNL     1     -12.096   7.754 128.122  0.00  0.00    +0.000 N 
ATOM     16  C   UNL     1     -11.068   8.324 127.439  0.00  0.00    +0.000 A 
ATOM     17  N   UNL     1     -10.926   7.694 126.296  0.00  0.00    +0.000 NA
ATOM     18  N   UNL     1     -11.914   6.738 126.271  0.00  0.00    +0.000 NA
ATOM     19  N   UNL     1     -12.666   6.802 127.364  0.00  0.00    +0.000 NA
ENDBRANCH  14  15
ENDBRANCH  11  14
ENDBRANCH   9  10
BRANCH   5  20
ATOM     20  C   UNL     1      -7.003   4.319 133.613  0.00  0.00    +0.000 C 
ATOM     21  OXT UNL     1      -7.013   3.482 134.506  0.00  0.00    +0.000 OA
BRANCH  20  22
ATOM     22  O   UNL     1      -6.542   5.556 133.874  0.00  0.00    +0.000 OA
ATOM     23  H   UNL     1      -6.924   6.291 133.360  0.00  0.00    +0.000 HD
ENDBRANCH  20  22
ENDBRANCH   5  20
BRANCH   4  24
ATOM     24  C   UNL     1      -5.314   3.036 131.545  0.00  0.00    +0.000 C 
BRANCH  24  25
ATOM     25  S   UNL     1      -4.499   2.207 130.135  0.00  0.00    +0.000 S 
BRANCH  25  26
ATOM     26  C   UNL     1      -3.570   3.448 129.340  0.00  0.00    +0.000 A 
ATOM     27  N   UNL     1      -3.067   3.287 128.137  0.00  0.00    +0.000 NA
ATOM     28  N   UNL     1      -2.552   4.467 127.625  0.00  0.00    +0.000 NA
ATOM     29  C   UNL     1      -2.688   5.477 128.459  0.00  0.00    +0.000 A 
ATOM     30  C   UNL     1      -2.226   6.865 128.192  0.00  0.00    +0.000 C 
ATOM     31  S   UNL     1      -3.464   5.058 129.935  0.00  0.00    +0.000 S 
ENDBRANCH  25  26
ENDBRANCH  24  25
ENDBRANCH   4  24
TORSDOF 8
ENDMDL
MODEL 4
REMARK VINA RESULT:      -6.9      4.047      5.926
REMARK  Name = Cefazolin
REMARK  9 active torsions:
REMARK  status: ('A' for Active; 'I' for Inactive)
REMARK    1  A    between atoms: C_5  and  C_6
REMARK    2  A    between atoms: C_6  and  S_7
REMARK    3  A    between atoms: S_7  and  C_8
REMARK    4  A    between atoms: C_11  and  C_12
REMARK    5  A    between atoms: CA_14  and  C_28
REMARK    6  A    between atoms: CA_18  and  N_19
REMARK    7  A    between atoms: C_20  and  C_22
REMARK    8  A    between atoms: C_22  and  N_23
REMARK    9  A    between atoms: C_28  and  O_29
REMARK                            x       y       z     vdW  Elec       q    Type
REMARK                         _______ _______ _______ _____ _____    ______ ____
ROOT
ATOM      1  C   UNL     1      -7.984   2.086 125.298  0.00  0.00    +0.000 C 
ATOM      2  S   UNL     1      -6.487   1.120 125.574  0.00  0.00    +0.000 S 
ATOM      3  C   UNL     1      -6.987   0.685 127.263  0.00  0.00    +0.000 C 
ATOM      4  C   UNL     1      -7.302   1.878 128.155  0.00  0.00    +0.000 C 
ATOM      5  CA  UNL     1      -7.735   3.066 127.626  0.00  0.00    +0.000 C 
ATOM      6  N   UNL     1      -8.001   3.186 126.268  0.00  0.00    +0.000 N 
ATOM      7  C   UNL     1      -7.658   4.145 125.361  0.00  0.00    +0.000 C 
ATOM      8  O   UNL     1      -7.336   5.293 125.533  0.00  0.00    +0.000 OA
ATOM      9  CA  UNL     1      -7.923   3.167 124.173  0.00  0.00    +0.000 C 
ENDROOT
BRANCH   9  10
ATOM     10  N   UNL     1      -6.921   3.013 123.046  0.00  0.00    +0.000 N 
ATOM     11  C   UNL     1      -7.358   3.213 121.739  0.00  0.00    +0.000 C 
ATOM     12  O   UNL     1      -8.555   3.388 121.516  0.00  0.00    +0.000 OA
ATOM     13  H   UNL     1      -5.940   2.843 123.246  0.00  0.00    +0.000 HD
BRANCH  11  14
ATOM     14  C   UNL     1      -6.307   3.187 120.637  0.00  0.00    +0.000 C 
BRANCH  14  15
ATOM     15  N   UNL     1      -5.571   4.436 120.575  0.00  0.00    +0.000 N 
ATOM     16  C   UNL     1      -5.551   5.352 119.570  0.00  0.00    +0.000 A 
ATOM     17  N   UNL     1      -4.810   6.368 119.948  0.00  0.00    +0.000 NA
ATOM     18  N   UNL     1      -4.343   6.046 121.200  0.00  0.00    +0.000 NA
ATOM     19  N   UNL     1      -4.765   4.842 121.570  0.00  0.00    +0.000 NA
ENDBRANCH  14  15
ENDBRANCH  11  14
ENDBRANCH   9  10
BRANCH   5  20
ATOM     20  C   UNL     1      -7.966   4.250 128.561  0.00  0.00    +0.000 C 
ATOM     21  OXT UNL     1      -9.043   4.495 129.088  0.00  0.00    +0.000 OA
BRANCH  20  22
ATOM     22  O   UNL     1      -6.938   5.101 128.734  0.00  0.00    +0.000 OA
ATOM     23  H   UNL     1      -6.961   5.672 129.524  0.00  0.00    +0.000 HD
ENDBRANCH  20  22
ENDBRANCH   5  20
BRANCH   4  24
ATOM     24  C   UNL     1      -7.084   1.655 129.685  0.00  0.00    +0.000 C 
BRANCH  24  25
ATOM     25  S   UNL     1      -5.342   1.391 130.173  0.00  0.00    +0.000 S 
BRANCH  25  26
ATOM     26  C   UNL     1      -4.557   2.929 129.942  0.00  0.00    +0.000 A 
ATOM     27  N   UNL     1      -4.305   3.745 130.941  0.00  0.00    +0.000 NA
ATOM     28  N   UNL     1      -3.495   4.802 130.559  0.00  0.00    +0.000 NA
ATOM     29  C   UNL     1      -3.162   4.744 129.286  0.00  0.00    +0.000 A 
ATOM     30  C   UNL     1      -2.308   5.741 128.586  0.00  0.00    +0.000 C 
ATOM     31  S   UNL     1      -3.812   3.383 128.460  0.00  0.00    +0.000 S 
ENDBRANCH  25  26
ENDBRANCH  24  25
ENDBRANCH   4  24
TORSDOF 8
ENDMDL
MODEL 5
REMARK VINA RESULT:      -6.8      5.140      8.591
REMARK  Name = Cefazolin
REMARK  9 active torsions:
REMARK  status: ('A' for Active; 'I' for Inactive)
REMARK    1  A    between atoms: C_5  and  C_6
REMARK    2  A    between atoms: C_6  and  S_7
REMARK    3  A    between atoms: S_7  and  C_8
REMARK    4  A    between atoms: C_11  and  C_12
REMARK    5  A    between atoms: CA_14  and  C_28
REMARK    6  A    between atoms: CA_18  and  N_19
REMARK    7  A    between atoms: C_20  and  C_22
REMARK    8  A    between atoms: C_22  and  N_23
REMARK    9  A    between atoms: C_28  and  O_29
REMARK                            x       y       z     vdW  Elec       q    Type
REMARK                         _______ _______ _______ _____ _____    ______ ____
ROOT
ATOM      1  C   UNL     1      -7.086   4.494 131.224  0.00  0.00    +0.000 C 
ATOM      2  S   UNL     1      -7.549   3.551 129.758  0.00  0.00    +0.000 S 
ATOM      3  C   UNL     1      -5.872   2.884 129.565  0.00  0.00    +0.000 C 
ATOM      4  C   UNL     1      -4.779   3.940 129.481  0.00  0.00    +0.000 C 
ATOM      5  CA  UNL     1      -4.933   5.171 130.063  0.00  0.00    +0.000 C 
ATOM      6  N   UNL     1      -6.050   5.457 130.837  0.00  0.00    +0.000 N 
ATOM      7  C   UNL     1      -6.885   6.536 130.857  0.00  0.00    +0.000 C 
ATOM      8  O   UNL     1      -6.702   7.662 130.471  0.00  0.00    +0.000 OA
ATOM      9  CA  UNL     1      -7.992   5.713 131.587  0.00  0.00    +0.000 C 
ENDROOT
BRANCH   9  10
ATOM     10  N   UNL     1      -9.431   5.740 131.111  0.00  0.00    +0.000 N 
ATOM     11  C   UNL     1     -10.409   6.209 131.983  0.00  0.00    +0.000 C 
ATOM     12  O   UNL     1     -10.112   6.474 133.147  0.00  0.00    +0.000 OA
ATOM     13  H   UNL     1      -9.663   5.493 130.153  0.00  0.00    +0.000 HD
BRANCH  11  14
ATOM     14  C   UNL     1     -11.824   6.354 131.438  0.00  0.00    +0.000 C 
BRANCH  14  15
ATOM     15  N   UNL     1     -11.817   6.787 130.053  0.00  0.00    +0.000 N 
ATOM     16  C   UNL     1     -11.923   8.051 129.565  0.00  0.00    +0.000 A 
ATOM     17  N   UNL     1     -11.802   8.007 128.259  0.00  0.00    +0.000 NA
ATOM     18  N   UNL     1     -11.652   6.677 127.943  0.00  0.00    +0.000 NA
ATOM     19  N   UNL     1     -11.710   5.919 129.032  0.00  0.00    +0.000 NA
ENDBRANCH  14  15
ENDBRANCH  11  14
ENDBRANCH   9  10
BRANCH   5  20
ATOM     20  C   UNL     1      -3.835   6.215 129.884  0.00  0.00    +0.000 C 
ATOM     21  OXT UNL     1      -2.843   6.282 130.598  0.00  0.00    +0.000 OA
BRANCH  20  22
ATOM     22  O   UNL     1      -4.031   7.153 128.938  0.00  0.00    +0.000 OA
ATOM     23  H   UNL     1      -4.618   7.897 129.164  0.00  0.00    +0.000 HD
ENDBRANCH  20  22
ENDBRANCH   5  20
BRANCH   4  24
ATOM     24  C   UNL     1      -3.500   3.528 128.685  0.00  0.00    +0.000 C 
BRANCH  24  25
ATOM     25  S   UNL     1      -3.455   4.127 126.959  0.00  0.00    +0.000 S 
BRANCH  25  26
ATOM     26  C   UNL     1      -5.118   4.168 126.438  0.00  0.00    +0.000 A 
ATOM     27  N   UNL     1      -5.795   5.289 126.340  0.00  0.00    +0.000 NA
ATOM     28  N   UNL     1      -7.017   5.107 125.712  0.00  0.00    +0.000 NA
ATOM     29  C   UNL     1      -7.216   3.855 125.357  0.00  0.00    +0.000 A 
ATOM     30  C   UNL     1      -8.436   3.351 124.672  0.00  0.00    +0.000 C 
ATOM     31  S   UNL     1      -5.915   2.803 125.759  0.00  0.00    +0.000 S 
ENDBRANCH  25  26
ENDBRANCH  24  25
ENDBRANCH   4  24
TORSDOF 8
ENDMDL
MODEL 6
REMARK VINA RESULT:      -6.7      4.494      6.355
REMARK  Name = Cefazolin
REMARK  9 active torsions:
REMARK  status: ('A' for Active; 'I' for Inactive)
REMARK    1  A    between atoms: C_5  and  C_6
REMARK    2  A    between atoms: C_6  and  S_7
REMARK    3  A    between atoms: S_7  and  C_8
REMARK    4  A    between atoms: C_11  and  C_12
REMARK    5  A    between atoms: CA_14  and  C_28
REMARK    6  A    between atoms: CA_18  and  N_19
REMARK    7  A    between atoms: C_20  and  C_22
REMARK    8  A    between atoms: C_22  and  N_23
REMARK    9  A    between atoms: C_28  and  O_29
REMARK                            x       y       z     vdW  Elec       q    Type
REMARK                         _______ _______ _______ _____ _____    ______ ____
ROOT
ATOM      1  C   UNL     1      -7.909   2.063 125.547  0.00  0.00    +0.000 C 
ATOM      2  S   UNL     1      -6.413   1.115 125.886  0.00  0.00    +0.000 S 
ATOM      3  C   UNL     1      -6.937   0.751 127.585  0.00  0.00    +0.000 C 
ATOM      4  C   UNL     1      -7.269   1.980 128.420  0.00  0.00    +0.000 C 
ATOM      5  CA  UNL     1      -7.699   3.142 127.835  0.00  0.00    +0.000 C 
ATOM      6  N   UNL     1      -7.944   3.203 126.469  0.00  0.00    +0.000 N 
ATOM      7  C   UNL     1      -7.591   4.123 125.526  0.00  0.00    +0.000 C 
ATOM      8  O   UNL     1      -7.276   5.278 125.654  0.00  0.00    +0.000 OA
ATOM      9  CA  UNL     1      -7.835   3.094 124.378  0.00  0.00    +0.000 C 
ENDROOT
BRANCH   9  10
ATOM     10  N   UNL     1      -6.816   2.896 123.273  0.00  0.00    +0.000 N 
ATOM     11  C   UNL     1      -7.214   3.117 121.957  0.00  0.00    +0.000 C 
ATOM     12  O   UNL     1      -8.396   3.346 121.708  0.00  0.00    +0.000 OA
ATOM     13  H   UNL     1      -5.848   2.682 123.495  0.00  0.00    +0.000 HD
BRANCH  11  14
ATOM     14  C   UNL     1      -6.141   3.044 120.879  0.00  0.00    +0.000 C 
BRANCH  14  15
ATOM     15  N   UNL     1      -5.513   4.335 120.666  0.00  0.00    +0.000 N 
ATOM     16  C   UNL     1      -5.622   5.157 119.588  0.00  0.00    +0.000 A 
ATOM     17  N   UNL     1      -4.948   6.256 119.831  0.00  0.00    +0.000 NA
ATOM     18  N   UNL     1      -4.389   6.084 121.076  0.00  0.00    +0.000 NA
ATOM     19  N   UNL     1      -4.690   4.889 121.571  0.00  0.00    +0.000 NA
ENDBRANCH  14  15
ENDBRANCH  11  14
ENDBRANCH   9  10
BRANCH   5  20
ATOM     20  C   UNL     1      -7.947   4.364 128.714  0.00  0.00    +0.000 C 
ATOM     21  OXT UNL     1      -7.058   5.113 129.097  0.00  0.00    +0.000 OA
BRANCH  20  22
ATOM     22  O   UNL     1      -9.207   4.560 129.147  0.00  0.00    +0.000 OA
ATOM     23  H   UNL     1      -9.420   4.256 130.048  0.00  0.00    +0.000 HD
ENDBRANCH  20  22
ENDBRANCH   5  20
BRANCH   4  24
ATOM     24  C   UNL     1      -7.073   1.824 129.962  0.00  0.00    +0.000 C 
BRANCH  24  25
ATOM     25  S   UNL     1      -8.483   1.051 130.831  0.00  0.00    +0.000 S 
BRANCH  25  26
ATOM     26  C   UNL     1      -7.793  -0.236 131.782  0.00  0.00    +0.000 A 
ATOM     27  N   UNL     1      -7.672  -0.157 133.088  0.00  0.00    +0.000 NA
ATOM     28  N   UNL     1      -7.296  -1.366 133.651  0.00  0.00    +0.000 NA
ATOM     29  C   UNL     1      -7.150  -2.315 132.750  0.00  0.00    +0.000 A 
ATOM     30  C   UNL     1      -6.746  -3.715 133.049  0.00  0.00    +0.000 C 
ATOM     31  S   UNL     1      -7.468  -1.799 131.140  0.00  0.00    +0.000 S 
ENDBRANCH  25  26
ENDBRANCH  24  25
ENDBRANCH   4  24
TORSDOF 8
ENDMDL
MODEL 7
REMARK VINA RESULT:      -6.6      3.732      4.486
REMARK  Name = Cefazolin
REMARK  9 active torsions:
REMARK  status: ('A' for Active; 'I' for Inactive)
REMARK    1  A    between atoms: C_5  and  C_6
REMARK    2  A    between atoms: C_6  and  S_7
REMARK    3  A    between atoms: S_7  and  C_8
REMARK    4  A    between atoms: C_11  and  C_12
REMARK    5  A    between atoms: CA_14  and  C_28
REMARK    6  A    between atoms: CA_18  and  N_19
REMARK    7  A    between atoms: C_20  and  C_22
REMARK    8  A    between atoms: C_22  and  N_23
REMARK    9  A    between atoms: C_28  and  O_29
REMARK                            x       y       z     vdW  Elec       q    Type
REMARK                         _______ _______ _______ _____ _____    ______ ____
ROOT
ATOM      1  C   UNL     1      -6.651   1.656 128.762  0.00  0.00    +0.000 C 
ATOM      2  S   UNL     1      -7.848   2.434 127.661  0.00  0.00    +0.000 S 
ATOM      3  C   UNL     1      -8.294   3.680 128.903  0.00  0.00    +0.000 C 
ATOM      4  C   UNL     1      -8.744   3.107 130.239  0.00  0.00    +0.000 C 
ATOM      5  CA  UNL     1      -8.314   1.878 130.667  0.00  0.00    +0.000 C 
ATOM      6  N   UNL     1      -7.370   1.162 129.941  0.00  0.00    +0.000 N 
ATOM      7  C   UNL     1      -7.322  -0.148 129.564  0.00  0.00    +0.000 C 
ATOM      8  O   UNL     1      -7.886  -1.106 130.026  0.00  0.00    +0.000 OA
ATOM      9  CA  UNL     1      -6.275   0.173 128.452  0.00  0.00    +0.000 C 
ENDROOT
BRANCH   9  10
ATOM     10  N   UNL     1      -6.441  -0.358 127.042  0.00  0.00    +0.000 N 
ATOM     11  C   UNL     1      -5.962  -1.633 126.752  0.00  0.00    +0.000 C 
ATOM     12  O   UNL     1      -5.315  -2.247 127.598  0.00  0.00    +0.000 OA
ATOM     13  H   UNL     1      -6.957   0.174 126.347  0.00  0.00    +0.000 HD
BRANCH  11  14
ATOM     14  C   UNL     1      -6.261  -2.197 125.370  0.00  0.00    +0.000 C 
BRANCH  14  15
ATOM     15  N   UNL     1      -7.679  -2.451 125.194  0.00  0.00    +0.000 N 
ATOM     16  C   UNL     1      -8.324  -2.889 124.081  0.00  0.00    +0.000 A 
ATOM     17  N   UNL     1      -9.594  -3.051 124.371  0.00  0.00    +0.000 NA
ATOM     18  N   UNL     1      -9.729  -2.670 125.686  0.00  0.00    +0.000 NA
ATOM     19  N   UNL     1      -8.569  -2.254 126.181  0.00  0.00    +0.000 NA
ENDBRANCH  14  15
ENDBRANCH  11  14
ENDBRANCH   9  10
BRANCH   5  20
ATOM     20  C   UNL     1      -8.855   1.321 131.980  0.00  0.00    +0.000 C 
ATOM     21  OXT UNL     1      -8.369   1.577 133.074  0.00  0.00    +0.000 OA
BRANCH  20  22
ATOM     22  O   UNL     1      -9.870   0.440 131.899  0.00  0.00    +0.000 OA
ATOM     23  H   UNL     1     -10.402   0.449 131.082  0.00  0.00    +0.000 HD
ENDBRANCH  20  22
ENDBRANCH   5  20
BRANCH   4  24
ATOM     24  C   UNL     1      -9.726   4.000 131.063  0.00  0.00    +0.000 C 
BRANCH  24  25
ATOM     25  S   UNL     1      -9.028   5.603 131.595  0.00  0.00    +0.000 S 
BRANCH  25  26
ATOM     26  C   UNL     1      -9.795   6.800 130.587  0.00  0.00    +0.000 A 
ATOM     27  N   UNL     1      -9.131   7.488 129.685  0.00  0.00    +0.000 NA
ATOM     28  N   UNL     1      -9.973   8.223 128.866  0.00  0.00    +0.000 NA
ATOM     29  C   UNL     1     -11.241   8.060 129.176  0.00  0.00    +0.000 A 
ATOM     30  C   UNL     1     -12.377   8.724 128.481  0.00  0.00    +0.000 C 
ATOM     31  S   UNL     1     -11.502   6.987 130.495  0.00  0.00    +0.000 S 
ENDBRANCH  25  26
ENDBRANCH  24  25
ENDBRANCH   4  24
TORSDOF 8
ENDMDL
MODEL 8
REMARK VINA RESULT:      -6.5      4.138      8.388
REMARK  Name = Cefazolin
REMARK  9 active torsions:
REMARK  status: ('A' for Active; 'I' for Inactive)
REMARK    1  A    between atoms: C_5  and  C_6
REMARK    2  A    between atoms: C_6  and  S_7
REMARK    3  A    between atoms: S_7  and  C_8
REMARK    4  A    between atoms: C_11  and  C_12
REMARK    5  A    between atoms: CA_14  and  C_28
REMARK    6  A    between atoms: CA_18  and  N_19
REMARK    7  A    between atoms: C_20  and  C_22
REMARK    8  A    between atoms: C_22  and  N_23
REMARK    9  A    between atoms: C_28  and  O_29
REMARK                            x       y       z     vdW  Elec       q    Type
REMARK                         _______ _______ _______ _____ _____    ______ ____
ROOT
ATOM      1  C   UNL     1      -4.668   2.743 125.848  0.00  0.00    +0.000 C 
ATOM      2  S   UNL     1      -5.630   1.643 126.905  0.00  0.00    +0.000 S 
ATOM      3  C   UNL     1      -6.070   0.566 125.513  0.00  0.00    +0.000 C 
ATOM      4  C   UNL     1      -6.737   1.282 124.347  0.00  0.00    +0.000 C 
ATOM      5  CA  UNL     1      -6.505   2.610 124.102  0.00  0.00    +0.000 C 
ATOM      6  N   UNL     1      -5.573   3.319 124.848  0.00  0.00    +0.000 N 
ATOM      7  C   UNL     1      -5.633   4.546 125.442  0.00  0.00    +0.000 C 
ATOM      8  O   UNL     1      -6.354   5.482 125.211  0.00  0.00    +0.000 OA
ATOM      9  CA  UNL     1      -4.433   4.193 126.376  0.00  0.00    +0.000 C 
ENDROOT
BRANCH   9  10
ATOM     10  N   UNL     1      -4.493   4.462 127.866  0.00  0.00    +0.000 N 
ATOM     11  C   UNL     1      -3.304   4.723 128.542  0.00  0.00    +0.000 C 
ATOM     12  O   UNL     1      -2.231   4.612 127.952  0.00  0.00    +0.000 OA
ATOM     13  H   UNL     1      -5.388   4.526 128.345  0.00  0.00    +0.000 HD
BRANCH  11  14
ATOM     14  C   UNL     1      -3.404   5.124 130.008  0.00  0.00    +0.000 C 
BRANCH  14  15
ATOM     15  N   UNL     1      -4.346   6.211 130.199  0.00  0.00    +0.000 N 
ATOM     16  C   UNL     1      -4.146   7.541 130.005  0.00  0.00    +0.000 A 
ATOM     17  N   UNL     1      -5.277   8.170 130.227  0.00  0.00    +0.000 NA
ATOM     18  N   UNL     1      -6.179   7.199 130.595  0.00  0.00    +0.000 NA
ATOM     19  N   UNL     1      -5.602   6.003 130.629  0.00  0.00    +0.000 NA
ENDBRANCH  14  15
ENDBRANCH  11  14
ENDBRANCH   9  10
BRANCH   5  20
ATOM     20  C   UNL     1      -7.257   3.294 122.964  0.00  0.00    +0.000 C 
ATOM     21  OXT UNL     1      -6.818   3.390 121.825  0.00  0.00    +0.000 OA
BRANCH  20  22
ATOM     22  O   UNL     1      -8.425   3.887 123.272  0.00  0.00    +0.000 OA
ATOM     23  H   UNL     1      -9.044   4.060 122.539  0.00  0.00    +0.000 HD
ENDBRANCH  20  22
ENDBRANCH   5  20
BRANCH   4  24
ATOM     24  C   UNL     1      -7.698   0.410 123.478  0.00  0.00    +0.000 C 
BRANCH  24  25
ATOM     25  S   UNL     1      -7.296  -1.372 123.457  0.00  0.00    +0.000 S 
BRANCH  25  26
ATOM     26  C   UNL     1      -8.184  -2.065 124.787  0.00  0.00    +0.000 A 
ATOM     27  N   UNL     1      -9.471  -2.320 124.714  0.00  0.00    +0.000 NA
ATOM     28  N   UNL     1      -9.919  -3.054 125.800  0.00  0.00    +0.000 NA
ATOM     29  C   UNL     1      -8.953  -3.330 126.651  0.00  0.00    +0.000 A 
ATOM     30  C   UNL     1      -9.128  -4.097 127.914  0.00  0.00    +0.000 C 
ATOM     31  S   UNL     1      -7.417  -2.714 126.182  0.00  0.00    +0.000 S 
ENDBRANCH  25  26
ENDBRANCH  24  25
ENDBRANCH   4  24
TORSDOF 8
ENDMDL
MODEL 9
REMARK VINA RESULT:      -6.4      4.273      5.525
REMARK  Name = Cefazolin
REMARK  9 active torsions:
REMARK  status: ('A' for Active; 'I' for Inactive)
REMARK    1  A    between atoms: C_5  and  C_6
REMARK    2  A    between atoms: C_6  and  S_7
REMARK    3  A    between atoms: S_7  and  C_8
REMARK    4  A    between atoms: C_11  and  C_12
REMARK    5  A    between atoms: CA_14  and  C_28
REMARK    6  A    between atoms: CA_18  and  N_19
REMARK    7  A    between atoms: C_20  and  C_22
REMARK    8  A    between atoms: C_22  and  N_23
REMARK    9  A    between atoms: C_28  and  O_29
REMARK                            x       y       z     vdW  Elec       q    Type
REMARK                         _______ _______ _______ _____ _____    ______ ____
ROOT
ATOM      1  C   UNL     1      -6.491   2.798 126.530  0.00  0.00    +0.000 C 
ATOM      2  S   UNL     1      -5.182   1.560 126.461  0.00  0.00    +0.000 S 
ATOM      3  C   UNL     1      -5.242   1.286 128.253  0.00  0.00    +0.000 C 
ATOM      4  C   UNL     1      -5.060   2.543 129.091  0.00  0.00    +0.000 C 
ATOM      5  CA  UNL     1      -5.403   3.778 128.604  0.00  0.00    +0.000 C 
ATOM      6  N   UNL     1      -6.024   3.908 127.368  0.00  0.00    +0.000 N 
ATOM      7  C   UNL     1      -5.789   4.750 126.321  0.00  0.00    +0.000 C 
ATOM      8  O   UNL     1      -5.227   5.815 126.297  0.00  0.00    +0.000 OA
ATOM      9  CA  UNL     1      -6.562   3.810 125.344  0.00  0.00    +0.000 C 
ENDROOT
BRANCH   9  10
ATOM     10  N   UNL     1      -5.976   3.424 124.000  0.00  0.00    +0.000 N 
ATOM     11  C   UNL     1      -6.821   3.392 122.893  0.00  0.00    +0.000 C 
ATOM     12  O   UNL     1      -8.030   3.554 123.045  0.00  0.00    +0.000 OA
ATOM     13  H   UNL     1      -4.978   3.268 123.896  0.00  0.00    +0.000 HD
BRANCH  11  14
ATOM     14  C   UNL     1      -6.185   3.135 121.533  0.00  0.00    +0.000 C 
BRANCH  14  15
ATOM     15  N   UNL     1      -5.576   4.337 120.996  0.00  0.00    +0.000 N 
ATOM     16  C   UNL     1      -5.776   4.911 119.781  0.00  0.00    +0.000 A 
ATOM     17  N   UNL     1      -5.081   6.023 119.724  0.00  0.00    +0.000 NA
ATOM     18  N   UNL     1      -4.416   6.109 120.925  0.00  0.00    +0.000 NA
ATOM     19  N   UNL     1      -4.675   5.054 121.689  0.00  0.00    +0.000 NA
ENDBRANCH  14  15
ENDBRANCH  11  14
ENDBRANCH   9  10
BRANCH   5  20
ATOM     20  C   UNL     1      -5.131   5.012 129.459  0.00  0.00    +0.000 C 
ATOM     21  OXT UNL     1      -6.015   5.721 129.921  0.00  0.00    +0.000 OA
BRANCH  20  22
ATOM     22  O   UNL     1      -3.844   5.365 129.631  0.00  0.00    +0.000 OA
ATOM     23  H   UNL     1      -3.458   5.222 130.515  0.00  0.00    +0.000 HD
ENDBRANCH  20  22
ENDBRANCH   5  20
BRANCH   4  24
ATOM     24  C   UNL     1      -4.452   2.328 130.514  0.00  0.00    +0.000 C 
BRANCH  24  25
ATOM     25  S   UNL     1      -5.648   1.753 131.770  0.00  0.00    +0.000 S 
BRANCH  25  26
ATOM     26  C   UNL     1      -6.901   2.963 131.807  0.00  0.00    +0.000 A 
ATOM     27  N   UNL     1      -7.984   2.876 131.067  0.00  0.00    +0.000 NA
ATOM     28  N   UNL     1      -8.928   3.829 131.411  0.00  0.00    +0.000 NA
ATOM     29  C   UNL     1      -8.527   4.599 132.400  0.00  0.00    +0.000 A 
ATOM     30  C   UNL     1      -9.319   5.715 132.983  0.00  0.00    +0.000 C 
ATOM     31  S   UNL     1      -6.959   4.210 132.991  0.00  0.00    +0.000 S 
ENDBRANCH  25  26
ENDBRANCH  24  25
ENDBRANCH   4  24
TORSDOF 8
ENDMDL
