MODEL 1
REMARK VINA RESULT:      -6.9      0.000      0.000
REMARK  Name = Cefalotin
REMARK  9 active torsions:
REMARK  status: ('A' for Active; 'I' for Inactive)
REMARK    1  A    between atoms: CA_2  and  N_3
REMARK    2  A    between atoms: C_4  and  C_6
REMARK    3  A    between atoms: C_6  and  C_7
REMARK    4  A    between atoms: CA_15  and  C_16
REMARK    5  A    between atoms: C_16  and  O_17
REMARK    6  A    between atoms: C_19  and  C_20
REMARK    7  A    between atoms: C_20  and  O_21
REMARK    8  A    between atoms: O_21  and  C_22
REMARK    9  A    between atoms: C_22  and  C_23
REMARK                            x       y       z     vdW  Elec       q    Type
REMARK                         _______ _______ _______ _____ _____    ______ ____
ROOT
ATOM      1  CA  UNL     1      -7.660   3.785 127.890  0.00  0.00    +0.000 C 
ATOM      2  C   UNL     1      -8.058   4.125 126.413  0.00  0.00    +0.000 C 
ATOM      3  O   UNL     1      -8.630   4.990 125.798  0.00  0.00    +0.000 OA
ATOM      4  N   UNL     1      -7.341   3.066 125.951  0.00  0.00    +0.000 N 
ATOM      5  CA  UNL     1      -7.383   2.392 124.756  0.00  0.00    +0.000 C 
ATOM      6  C   UNL     1      -7.326   1.031 124.735  0.00  0.00    +0.000 C 
ATOM      7  C   UNL     1      -7.315   0.156 125.966  0.00  0.00    +0.000 C 
ATOM      8  S   UNL     1      -7.888   0.907 127.490  0.00  0.00    +0.000 S 
ATOM      9  C   UNL     1      -7.058   2.480 127.258  0.00  0.00    +0.000 C 
ENDROOT
BRANCH   1  10
ATOM     10  N   UNL     1      -8.708   3.716 128.965  0.00  0.00    +0.000 N 
ATOM     11  C   UNL     1      -9.106   4.835 129.671  0.00  0.00    +0.000 C 
ATOM     12  O   UNL     1      -8.557   5.912 129.461  0.00  0.00    +0.000 OA
ATOM     13  H   UNL     1      -9.012   2.809 129.302  0.00  0.00    +0.000 HD
BRANCH  11  14
ATOM     14  C   UNL     1     -10.212   4.624 130.704  0.00  0.00    +0.000 C 
BRANCH  14  15
ATOM     15  C   UNL     1     -11.246   5.726 130.660  0.00  0.00    +0.000 A 
ATOM     16  C   UNL     1     -11.642   6.556 131.692  0.00  0.00    +0.000 A 
ATOM     17  C   UNL     1     -12.684   7.450 131.308  0.00  0.00    +0.000 A 
ATOM     18  C   UNL     1     -13.055   7.280 129.995  0.00  0.00    +0.000 A 
ATOM     19  S   UNL     1     -12.067   6.140 129.203  0.00  0.00    +0.000 S 
ENDBRANCH  14  15
ENDBRANCH  11  14
ENDBRANCH   1  10
BRANCH   5  20
ATOM     20  C   UNL     1      -7.440   3.151 123.429  0.00  0.00    +0.000 C 
ATOM     21  OXT UNL     1      -6.446   3.537 122.826  0.00  0.00    +0.000 OA
BRANCH  20  22
ATOM     22  O   UNL     1      -8.659   3.516 122.986  0.00  0.00    +0.000 OA
ATOM     23  H   UNL     1      -9.373   2.859 123.110  0.00  0.00    +0.000 HD
ENDBRANCH  20  22
ENDBRANCH   5  20
BRANCH   6  24
ATOM     24  C   UNL     1      -7.302   0.252 123.421  0.00  0.00    +0.000 C 
BRANCH  24  25
ATOM     25  O   UNL     1      -7.698  -1.119 123.583  0.00  0.00    +0.000 OA
BRANCH  25  26
ATOM     26  C   UNL     1      -8.932  -1.545 123.221  0.00  0.00    +0.000 C 
ATOM     27  C   UNL     1      -9.291  -2.998 123.370  0.00  0.00    +0.000 C 
ATOM     28  O   UNL     1      -9.759  -0.740 122.796  0.00  0.00    +0.000 OA
ENDBRANCH  25  26
ENDBRANCH  24  25
ENDBRANCH   6  24
TORSDOF 8
ENDMDL
MODEL 2
REMARK VINA RESULT:      -6.8      3.881      8.060
REMARK  Name = Cefalotin
REMARK  9 active torsions:
REMARK  status: ('A' for Active; 'I' for Inactive)
REMARK    1  A    between atoms: CA_2  and  N_3
REMARK    2  A    between atoms: C_4  and  C_6
REMARK    3  A    between atoms: C_6  and  C_7
REMARK    4  A    between atoms: CA_15  and  C_16
REMARK    5  A    between atoms: C_16  and  O_17
REMARK    6  A    between atoms: C_19  and  C_20
REMARK    7  A    between atoms: C_20  and  O_21
REMARK    8  A    between atoms: O_21  and  C_22
REMARK    9  A    between atoms: C_22  and  C_23
REMARK                            x       y       z     vdW  Elec       q    Type
REMARK                         _______ _______ _______ _____ _____    ______ ____
ROOT
ATOM      1  CA  UNL     1      -9.252   0.790 125.089  0.00  0.00    +0.000 C 
ATOM      2  C   UNL     1      -8.820   2.196 124.548  0.00  0.00    +0.000 C 
ATOM      3  O   UNL     1      -8.914   2.855 123.543  0.00  0.00    +0.000 OA
ATOM      4  N   UNL     1      -8.357   2.553 125.775  0.00  0.00    +0.000 N 
ATOM      5  CA  UNL     1      -7.490   3.542 126.168  0.00  0.00    +0.000 C 
ATOM      6  C   UNL     1      -6.528   3.281 127.097  0.00  0.00    +0.000 C 
ATOM      7  C   UNL     1      -6.260   1.918 127.689  0.00  0.00    +0.000 C 
ATOM      8  S   UNL     1      -6.898   0.508 126.784  0.00  0.00    +0.000 S 
ATOM      9  C   UNL     1      -8.490   1.235 126.388  0.00  0.00    +0.000 C 
ENDROOT
BRANCH   1  10
ATOM     10  N   UNL     1      -8.868  -0.461 124.351  0.00  0.00    +0.000 N 
ATOM     11  C   UNL     1      -9.419  -0.787 123.127  0.00  0.00    +0.000 C 
ATOM     12  O   UNL     1     -10.288  -0.069 122.643  0.00  0.00    +0.000 OA
ATOM     13  H   UNL     1      -8.322  -1.170 124.830  0.00  0.00    +0.000 HD
BRANCH  11  14
ATOM     14  C   UNL     1      -8.901  -2.068 122.472  0.00  0.00    +0.000 C 
BRANCH  14  15
ATOM     15  C   UNL     1      -7.565  -2.492 123.036  0.00  0.00    +0.000 A 
ATOM     16  C   UNL     1      -6.309  -2.057 122.655  0.00  0.00    +0.000 A 
ATOM     17  C   UNL     1      -5.262  -2.713 123.367  0.00  0.00    +0.000 A 
ATOM     18  C   UNL     1      -5.745  -3.629 124.272  0.00  0.00    +0.000 A 
ATOM     19  S   UNL     1      -7.447  -3.603 124.347  0.00  0.00    +0.000 S 
ENDBRANCH  14  15
ENDBRANCH  11  14
ENDBRANCH   1  10
BRANCH   5  20
ATOM     20  C   UNL     1      -7.619   4.962 125.615  0.00  0.00    +0.000 C 
ATOM     21  OXT UNL     1      -8.570   5.698 125.848  0.00  0.00    +0.000 OA
BRANCH  20  22
ATOM     22  O   UNL     1      -6.689   5.356 124.722  0.00  0.00    +0.000 OA
ATOM     23  H   UNL     1      -6.717   4.912 123.852  0.00  0.00    +0.000 HD
ENDBRANCH  20  22
ENDBRANCH   5  20
BRANCH   6  24
ATOM     24  C   UNL     1      -5.591   4.374 127.606  0.00  0.00    +0.000 C 
BRANCH  24  25
ATOM     25  O   UNL     1      -4.455   4.572 126.751  0.00  0.00    +0.000 OA
BRANCH  25  26
ATOM     26  C   UNL     1      -3.190   4.396 127.205  0.00  0.00    +0.000 C 
ATOM     27  C   UNL     1      -2.462   3.115 126.901  0.00  0.00    +0.000 C 
ATOM     28  O   UNL     1      -2.637   5.291 127.842  0.00  0.00    +0.000 OA
ENDBRANCH  25  26
ENDBRANCH  24  25
ENDBRANCH   6  24
TORSDOF 8
ENDMDL
MODEL 3
REMARK VINA RESULT:      -6.7      3.939      8.351
REMARK  Name = Cefalotin
REMARK  9 active torsions:
REMARK  status: ('A' for Active; 'I' for Inactive)
REMARK    1  A    between atoms: CA_2  and  N_3
REMARK    2  A    between atoms: C_4  and  C_6
REMARK    3  A    between atoms: C_6  and  C_7
REMARK    4  A    between atoms: CA_15  and  C_16
REMARK    5  A    between atoms: C_16  and  O_17
REMARK    6  A    between atoms: C_19  and  C_20
REMARK    7  A    between atoms: C_20  and  O_21
REMARK    8  A    between atoms: O_21  and  C_22
REMARK    9  A    between atoms: C_22  and  C_23
REMARK                            x       y       z     vdW  Elec       q    Type
REMARK                         _______ _______ _______ _____ _____    ______ ____
ROOT
ATOM      1  CA  UNL     1      -8.042  -0.214 126.713  0.00  0.00    +0.000 C 
ATOM      2  C   UNL     1      -8.597   1.134 126.136  0.00  0.00    +0.000 C 
ATOM      3  O   UNL     1      -9.544   1.537 125.510  0.00  0.00    +0.000 OA
ATOM      4  N   UNL     1      -7.614   1.834 126.764  0.00  0.00    +0.000 N 
ATOM      5  CA  UNL     1      -7.124   3.099 126.555  0.00  0.00    +0.000 C 
ATOM      6  C   UNL     1      -5.780   3.324 126.577  0.00  0.00    +0.000 C 
ATOM      7  C   UNL     1      -4.735   2.245 126.726  0.00  0.00    +0.000 C 
ATOM      8  S   UNL     1      -5.254   0.567 126.371  0.00  0.00    +0.000 S 
ATOM      9  C   UNL     1      -6.842   0.675 127.199  0.00  0.00    +0.000 C 
ENDROOT
BRANCH   1  10
ATOM     10  N   UNL     1      -7.819  -1.394 125.809  0.00  0.00    +0.000 N 
ATOM     11  C   UNL     1      -8.867  -2.164 125.341  0.00  0.00    +0.000 C 
ATOM     12  O   UNL     1     -10.011  -1.920 125.709  0.00  0.00    +0.000 OA
ATOM     13  H   UNL     1      -6.876  -1.742 125.673  0.00  0.00    +0.000 HD
BRANCH  11  14
ATOM     14  C   UNL     1      -8.495  -3.306 124.395  0.00  0.00    +0.000 C 
BRANCH  14  15
ATOM     15  C   UNL     1      -7.049  -3.236 123.962  0.00  0.00    +0.000 A 
ATOM     16  C   UNL     1      -6.016  -4.082 124.319  0.00  0.00    +0.000 A 
ATOM     17  C   UNL     1      -4.764  -3.684 123.765  0.00  0.00    +0.000 A 
ATOM     18  C   UNL     1      -4.874  -2.546 123.001  0.00  0.00    +0.000 A 
ATOM     19  S   UNL     1      -6.493  -2.040 122.853  0.00  0.00    +0.000 S 
ENDBRANCH  14  15
ENDBRANCH  11  14
ENDBRANCH   1  10
BRANCH   5  20
ATOM     20  C   UNL     1      -8.070   4.282 126.345  0.00  0.00    +0.000 C 
ATOM     21  OXT UNL     1      -8.446   5.018 127.249  0.00  0.00    +0.000 OA
BRANCH  20  22
ATOM     22  O   UNL     1      -8.608   4.424 125.118  0.00  0.00    +0.000 OA
ATOM     23  H   UNL     1      -8.945   5.316 124.900  0.00  0.00    +0.000 HD
ENDBRANCH  20  22
ENDBRANCH   5  20
BRANCH   6  24
ATOM     24  C   UNL     1      -5.203   4.730 126.416  0.00  0.00    +0.000 C 
BRANCH  24  25
ATOM     25  O   UNL     1      -4.992   5.389 127.674  0.00  0.00    +0.000 OA
BRANCH  25  26
ATOM     26  C   UNL     1      -3.831   6.031 127.948  0.00  0.00    +0.000 C 
ATOM     27  C   UNL     1      -2.551   5.245 128.044  0.00  0.00    +0.000 C 
ATOM     28  O   UNL     1      -3.824   7.252 128.094  0.00  0.00    +0.000 OA
ENDBRANCH  25  26
ENDBRANCH  24  25
ENDBRANCH   6  24
TORSDOF 8
ENDMDL
MODEL 4
REMARK VINA RESULT:      -6.5      2.060      2.523
REMARK  Name = Cefalotin
REMARK  9 active torsions:
REMARK  status: ('A' for Active; 'I' for Inactive)
REMARK    1  A    between atoms: CA_2  and  N_3
REMARK    2  A    between atoms: C_4  and  C_6
REMARK    3  A    between atoms: C_6  and  C_7
REMARK    4  A    between atoms: CA_15  and  C_16
REMARK    5  A    between atoms: C_16  and  O_17
REMARK    6  A    between atoms: C_19  and  C_20
REMARK    7  A    between atoms: C_20  and  O_21
REMARK    8  A    between atoms: O_21  and  C_22
REMARK    9  A    between atoms: C_22  and  C_23
REMARK                            x       y       z     vdW  Elec       q    Type
REMARK                         _______ _______ _______ _____ _____    ______ ____
ROOT
ATOM      1  CA  UNL     1      -5.059   3.683 127.131  0.00  0.00    +0.000 C 
ATOM      2  C   UNL     1      -6.005   4.174 125.982  0.00  0.00    +0.000 C 
ATOM      3  O   UNL     1      -6.582   5.176 125.641  0.00  0.00    +0.000 OA
ATOM      4  N   UNL     1      -5.846   3.000 125.316  0.00  0.00    +0.000 N 
ATOM      5  CA  UNL     1      -6.587   2.410 124.322  0.00  0.00    +0.000 C 
ATOM      6  C   UNL     1      -6.858   1.076 124.371  0.00  0.00    +0.000 C 
ATOM      7  C   UNL     1      -6.480   0.167 125.516  0.00  0.00    +0.000 C 
ATOM      8  S   UNL     1      -6.096   0.959 127.078  0.00  0.00    +0.000 S 
ATOM      9  C   UNL     1      -5.133   2.304 126.383  0.00  0.00    +0.000 C 
ENDROOT
BRANCH   1  10
ATOM     10  N   UNL     1      -5.477   3.812 128.568  0.00  0.00    +0.000 N 
ATOM     11  C   UNL     1      -5.328   4.992 129.270  0.00  0.00    +0.000 C 
ATOM     12  O   UNL     1      -4.791   5.955 128.732  0.00  0.00    +0.000 OA
ATOM     13  H   UNL     1      -5.716   2.975 129.091  0.00  0.00    +0.000 HD
BRANCH  11  14
ATOM     14  C   UNL     1      -5.837   4.990 130.712  0.00  0.00    +0.000 C 
BRANCH  14  15
ATOM     15  C   UNL     1      -7.277   5.439 130.805  0.00  0.00    +0.000 A 
ATOM     16  C   UNL     1      -7.752   6.718 131.027  0.00  0.00    +0.000 A 
ATOM     17  C   UNL     1      -9.175   6.768 131.109  0.00  0.00    +0.000 A 
ATOM     18  C   UNL     1      -9.747   5.529 130.945  0.00  0.00    +0.000 A 
ATOM     19  S   UNL     1      -8.585   4.341 130.573  0.00  0.00    +0.000 S 
ENDBRANCH  14  15
ENDBRANCH  11  14
ENDBRANCH   1  10
BRANCH   5  20
ATOM     20  C   UNL     1      -7.075   3.222 123.121  0.00  0.00    +0.000 C 
ATOM     21  OXT UNL     1      -6.405   3.413 122.114  0.00  0.00    +0.000 OA
BRANCH  20  22
ATOM     22  O   UNL     1      -8.256   3.858 123.254  0.00  0.00    +0.000 OA
ATOM     23  H   UNL     1      -8.214   4.765 123.617  0.00  0.00    +0.000 HD
ENDBRANCH  20  22
ENDBRANCH   5  20
BRANCH   6  24
ATOM     24  C   UNL     1      -7.622   0.374 123.249  0.00  0.00    +0.000 C 
BRANCH  24  25
ATOM     25  O   UNL     1      -7.882  -1.009 123.537  0.00  0.00    +0.000 OA
BRANCH  25  26
ATOM     26  C   UNL     1      -9.058  -1.591 123.199  0.00  0.00    +0.000 C 
ATOM     27  C   UNL     1      -9.260  -3.060 123.453  0.00  0.00    +0.000 C 
ATOM     28  O   UNL     1      -9.959  -0.914 122.707  0.00  0.00    +0.000 OA
ENDBRANCH  25  26
ENDBRANCH  24  25
ENDBRANCH   6  24
TORSDOF 8
ENDMDL
MODEL 5
REMARK VINA RESULT:      -6.5      4.185      5.059
REMARK  Name = Cefalotin
REMARK  9 active torsions:
REMARK  status: ('A' for Active; 'I' for Inactive)
REMARK    1  A    between atoms: CA_2  and  N_3
REMARK    2  A    between atoms: C_4  and  C_6
REMARK    3  A    between atoms: C_6  and  C_7
REMARK    4  A    between atoms: CA_15  and  C_16
REMARK    5  A    between atoms: C_16  and  O_17
REMARK    6  A    between atoms: C_19  and  C_20
REMARK    7  A    between atoms: C_20  and  O_21
REMARK    8  A    between atoms: O_21  and  C_22
REMARK    9  A    between atoms: C_22  and  C_23
REMARK                            x       y       z     vdW  Elec       q    Type
REMARK                         _______ _______ _______ _____ _____    ______ ____
ROOT
ATOM      1  CA  UNL     1      -4.437   4.160 126.801  0.00  0.00    +0.000 C 
ATOM      2  C   UNL     1      -5.610   4.503 125.819  0.00  0.00    +0.000 C 
ATOM      3  O   UNL     1      -6.284   5.450 125.499  0.00  0.00    +0.000 OA
ATOM      4  N   UNL     1      -5.536   3.266 125.260  0.00  0.00    +0.000 N 
ATOM      5  CA  UNL     1      -6.433   2.556 124.501  0.00  0.00    +0.000 C 
ATOM      6  C   UNL     1      -6.634   1.231 124.741  0.00  0.00    +0.000 C 
ATOM      7  C   UNL     1      -6.001   0.461 125.874  0.00  0.00    +0.000 C 
ATOM      8  S   UNL     1      -5.350   1.426 127.237  0.00  0.00    +0.000 S 
ATOM      9  C   UNL     1      -4.599   2.706 126.229  0.00  0.00    +0.000 C 
ENDROOT
BRANCH   1  10
ATOM     10  N   UNL     1      -4.569   4.437 128.272  0.00  0.00    +0.000 N 
ATOM     11  C   UNL     1      -4.413   5.706 128.794  0.00  0.00    +0.000 C 
ATOM     12  O   UNL     1      -4.105   6.634 128.053  0.00  0.00    +0.000 OA
ATOM     13  H   UNL     1      -4.605   3.657 128.921  0.00  0.00    +0.000 HD
BRANCH  11  14
ATOM     14  C   UNL     1      -4.619   5.846 130.302  0.00  0.00    +0.000 C 
BRANCH  14  15
ATOM     15  C   UNL     1      -3.341   6.224 131.016  0.00  0.00    +0.000 A 
ATOM     16  C   UNL     1      -2.218   5.442 131.211  0.00  0.00    +0.000 A 
ATOM     17  C   UNL     1      -1.215   6.105 131.978  0.00  0.00    +0.000 A 
ATOM     18  C   UNL     1      -1.599   7.373 132.348  0.00  0.00    +0.000 A 
ATOM     19  S   UNL     1      -3.100   7.801 131.667  0.00  0.00    +0.000 S 
ENDBRANCH  14  15
ENDBRANCH  11  14
ENDBRANCH   1  10
BRANCH   5  20
ATOM     20  C   UNL     1      -7.181   3.222 123.345  0.00  0.00    +0.000 C 
ATOM     21  OXT UNL     1      -6.740   3.295 122.204  0.00  0.00    +0.000 OA
BRANCH  20  22
ATOM     22  O   UNL     1      -8.323   3.869 123.648  0.00  0.00    +0.000 OA
ATOM     23  H   UNL     1      -8.448   4.740 123.220  0.00  0.00    +0.000 HD
ENDBRANCH  20  22
ENDBRANCH   5  20
BRANCH   6  24
ATOM     24  C   UNL     1      -7.574   0.395 123.872  0.00  0.00    +0.000 C 
BRANCH  24  25
ATOM     25  O   UNL     1      -7.611  -0.985 124.267  0.00  0.00    +0.000 OA
BRANCH  25  26
ATOM     26  C   UNL     1      -8.785  -1.650 124.397  0.00  0.00    +0.000 C 
ATOM     27  C   UNL     1      -9.132  -2.742 123.423  0.00  0.00    +0.000 C 
ATOM     28  O   UNL     1      -9.547  -1.374 125.321  0.00  0.00    +0.000 OA
ENDBRANCH  25  26
ENDBRANCH  24  25
ENDBRANCH   6  24
TORSDOF 8
ENDMDL
MODEL 6
REMARK VINA RESULT:      -6.4      1.632      2.266
REMARK  Name = Cefalotin
REMARK  9 active torsions:
REMARK  status: ('A' for Active; 'I' for Inactive)
REMARK    1  A    between atoms: CA_2  and  N_3
REMARK    2  A    between atoms: C_4  and  C_6
REMARK    3  A    between atoms: C_6  and  C_7
REMARK    4  A    between atoms: CA_15  and  C_16
REMARK    5  A    between atoms: C_16  and  O_17
REMARK    6  A    between atoms: C_19  and  C_20
REMARK    7  A    between atoms: C_20  and  O_21
REMARK    8  A    between atoms: O_21  and  C_22
REMARK    9  A    between atoms: C_22  and  C_23
REMARK                            x       y       z     vdW  Elec       q    Type
REMARK                         _______ _______ _______ _____ _____    ______ ____
ROOT
ATOM      1  CA  UNL     1      -7.457   3.767 127.802  0.00  0.00    +0.000 C 
ATOM      2  C   UNL     1      -7.953   4.076 126.348  0.00  0.00    +0.000 C 
ATOM      3  O   UNL     1      -8.587   4.915 125.760  0.00  0.00    +0.000 OA
ATOM      4  N   UNL     1      -7.234   3.032 125.855  0.00  0.00    +0.000 N 
ATOM      5  CA  UNL     1      -7.326   2.343 124.672  0.00  0.00    +0.000 C 
ATOM      6  C   UNL     1      -7.230   0.984 124.663  0.00  0.00    +0.000 C 
ATOM      7  C   UNL     1      -7.118   0.126 125.900  0.00  0.00    +0.000 C 
ATOM      8  S   UNL     1      -7.621   0.878 127.448  0.00  0.00    +0.000 S 
ATOM      9  C   UNL     1      -6.855   2.472 127.148  0.00  0.00    +0.000 C 
ENDROOT
BRANCH   1  10
ATOM     10  N   UNL     1      -8.437   3.680 128.939  0.00  0.00    +0.000 N 
ATOM     11  C   UNL     1      -8.981   4.808 129.522  0.00  0.00    +0.000 C 
ATOM     12  O   UNL     1      -8.622   5.919 129.147  0.00  0.00    +0.000 OA
ATOM     13  H   UNL     1      -8.577   2.789 129.405  0.00  0.00    +0.000 HD
BRANCH  11  14
ATOM     14  C   UNL     1      -9.997   4.567 130.639  0.00  0.00    +0.000 C 
BRANCH  14  15
ATOM     15  C   UNL     1      -9.338   4.492 131.997  0.00  0.00    +0.000 A 
ATOM     16  C   UNL     1      -9.259   3.399 132.840  0.00  0.00    +0.000 A 
ATOM     17  C   UNL     1      -8.609   3.703 134.073  0.00  0.00    +0.000 A 
ATOM     18  C   UNL     1      -8.210   5.017 134.138  0.00  0.00    +0.000 A 
ATOM     19  S   UNL     1      -8.505   5.839 132.676  0.00  0.00    +0.000 S 
ENDBRANCH  14  15
ENDBRANCH  11  14
ENDBRANCH   1  10
BRANCH   5  20
ATOM     20  C   UNL     1      -7.486   3.083 123.343  0.00  0.00    +0.000 C 
ATOM     21  OXT UNL     1      -6.542   3.481 122.671  0.00  0.00    +0.000 OA
BRANCH  20  22
ATOM     22  O   UNL     1      -8.738   3.418 122.977  0.00  0.00    +0.000 OA
ATOM     23  H   UNL     1      -9.196   4.060 123.557  0.00  0.00    +0.000 HD
ENDBRANCH  20  22
ENDBRANCH   5  20
BRANCH   6  24
ATOM     24  C   UNL     1      -7.260   0.189 123.358  0.00  0.00    +0.000 C 
BRANCH  24  25
ATOM     25  O   UNL     1      -7.688  -1.168 123.547  0.00  0.00    +0.000 OA
BRANCH  25  26
ATOM     26  C   UNL     1      -8.938  -1.567 123.209  0.00  0.00    +0.000 C 
ATOM     27  C   UNL     1      -9.319  -3.016 123.346  0.00  0.00    +0.000 C 
ATOM     28  O   UNL     1      -9.761  -0.743 122.815  0.00  0.00    +0.000 OA
ENDBRANCH  25  26
ENDBRANCH  24  25
ENDBRANCH   6  24
TORSDOF 8
ENDMDL
MODEL 7
REMARK VINA RESULT:      -6.3      4.900      9.031
REMARK  Name = Cefalotin
REMARK  9 active torsions:
REMARK  status: ('A' for Active; 'I' for Inactive)
REMARK    1  A    between atoms: CA_2  and  N_3
REMARK    2  A    between atoms: C_4  and  C_6
REMARK    3  A    between atoms: C_6  and  C_7
REMARK    4  A    between atoms: CA_15  and  C_16
REMARK    5  A    between atoms: C_16  and  O_17
REMARK    6  A    between atoms: C_19  and  C_20
REMARK    7  A    between atoms: C_20  and  O_21
REMARK    8  A    between atoms: O_21  and  C_22
REMARK    9  A    between atoms: C_22  and  C_23
REMARK                            x       y       z     vdW  Elec       q    Type
REMARK                         _______ _______ _______ _____ _____    ______ ____
ROOT
ATOM      1  CA  UNL     1      -7.611   1.641 131.741  0.00  0.00    +0.000 C 
ATOM      2  C   UNL     1      -8.627   2.582 132.474  0.00  0.00    +0.000 C 
ATOM      3  O   UNL     1      -9.333   2.577 133.451  0.00  0.00    +0.000 OA
ATOM      4  N   UNL     1      -8.324   3.606 131.632  0.00  0.00    +0.000 N 
ATOM      5  CA  UNL     1      -8.995   4.766 131.333  0.00  0.00    +0.000 C 
ATOM      6  C   UNL     1      -9.090   5.188 130.041  0.00  0.00    +0.000 C 
ATOM      7  C   UNL     1      -8.582   4.413 128.849  0.00  0.00    +0.000 C 
ATOM      8  S   UNL     1      -8.285   2.662 129.095  0.00  0.00    +0.000 S 
ATOM      9  C   UNL     1      -7.514   2.820 130.707  0.00  0.00    +0.000 C 
ENDROOT
BRANCH   1  10
ATOM     10  N   UNL     1      -8.024   0.262 131.311  0.00  0.00    +0.000 N 
ATOM     11  C   UNL     1      -7.132  -0.623 130.737  0.00  0.00    +0.000 C 
ATOM     12  O   UNL     1      -5.979  -0.266 130.518  0.00  0.00    +0.000 OA
ATOM     13  H   UNL     1      -9.011   0.027 131.281  0.00  0.00    +0.000 HD
BRANCH  11  14
ATOM     14  C   UNL     1      -7.681  -2.007 130.391  0.00  0.00    +0.000 C 
BRANCH  14  15
ATOM     15  C   UNL     1      -6.807  -3.115 130.932  0.00  0.00    +0.000 A 
ATOM     16  C   UNL     1      -6.193  -4.131 130.223  0.00  0.00    +0.000 A 
ATOM     17  C   UNL     1      -5.485  -5.038 131.067  0.00  0.00    +0.000 A 
ATOM     18  C   UNL     1      -5.578  -4.690 132.394  0.00  0.00    +0.000 A 
ATOM     19  S   UNL     1      -6.404  -3.215 132.604  0.00  0.00    +0.000 S 
ENDBRANCH  14  15
ENDBRANCH  11  14
ENDBRANCH   1  10
BRANCH   5  20
ATOM     20  C   UNL     1      -9.599   5.630 132.441  0.00  0.00    +0.000 C 
ATOM     21  OXT UNL     1      -8.933   6.325 133.198  0.00  0.00    +0.000 OA
BRANCH  20  22
ATOM     22  O   UNL     1     -10.923   5.503 132.661  0.00  0.00    +0.000 OA
ATOM     23  H   UNL     1     -11.499   6.125 132.172  0.00  0.00    +0.000 HD
ENDBRANCH  20  22
ENDBRANCH   5  20
BRANCH   6  24
ATOM     24  C   UNL     1      -9.770   6.507 129.679  0.00  0.00    +0.000 C 
BRANCH  24  25
ATOM     25  O   UNL     1     -10.926   6.324 128.847  0.00  0.00    +0.000 OA
BRANCH  25  26
ATOM     26  C   UNL     1     -12.146   6.777 129.225  0.00  0.00    +0.000 C 
ATOM     27  C   UNL     1     -12.252   7.801 130.322  0.00  0.00    +0.000 C 
ATOM     28  O   UNL     1     -13.156   6.367 128.656  0.00  0.00    +0.000 OA
ENDBRANCH  25  26
ENDBRANCH  24  25
ENDBRANCH   6  24
TORSDOF 8
ENDMDL
MODEL 8
REMARK VINA RESULT:      -6.3      4.777      7.278
REMARK  Name = Cefalotin
REMARK  9 active torsions:
REMARK  status: ('A' for Active; 'I' for Inactive)
REMARK    1  A    between atoms: CA_2  and  N_3
REMARK    2  A    between atoms: C_4  and  C_6
REMARK    3  A    between atoms: C_6  and  C_7
REMARK    4  A    between atoms: CA_15  and  C_16
REMARK    5  A    between atoms: C_16  and  O_17
REMARK    6  A    between atoms: C_19  and  C_20
REMARK    7  A    between atoms: C_20  and  O_21
REMARK    8  A    between atoms: O_21  and  C_22
REMARK    9  A    between atoms: C_22  and  C_23
REMARK                            x       y       z     vdW  Elec       q    Type
REMARK                         _______ _______ _______ _____ _____    ______ ____
ROOT
ATOM      1  CA  UNL     1      -7.835  -0.193 127.309  0.00  0.00    +0.000 C 
ATOM      2  C   UNL     1      -8.747  -0.549 126.085  0.00  0.00    +0.000 C 
ATOM      3  O   UNL     1      -9.420  -1.465 125.686  0.00  0.00    +0.000 OA
ATOM      4  N   UNL     1      -8.645   0.720 125.609  0.00  0.00    +0.000 N 
ATOM      5  CA  UNL     1      -8.881   1.246 124.363  0.00  0.00    +0.000 C 
ATOM      6  C   UNL     1      -8.015   2.149 123.825  0.00  0.00    +0.000 C 
ATOM      7  C   UNL     1      -6.715   2.572 124.465  0.00  0.00    +0.000 C 
ATOM      8  S   UNL     1      -6.053   1.491 125.733  0.00  0.00    +0.000 S 
ATOM      9  C   UNL     1      -7.618   1.163 126.546  0.00  0.00    +0.000 C 
ENDROOT
BRANCH   1  10
ATOM     10  N   UNL     1      -6.675  -1.074 127.676  0.00  0.00    +0.000 N 
ATOM     11  C   UNL     1      -6.810  -2.135 128.550  0.00  0.00    +0.000 C 
ATOM     12  O   UNL     1      -7.892  -2.342 129.091  0.00  0.00    +0.000 OA
ATOM     13  H   UNL     1      -5.736  -0.789 127.416  0.00  0.00    +0.000 HD
BRANCH  11  14
ATOM     14  C   UNL     1      -5.555  -2.971 128.797  0.00  0.00    +0.000 C 
BRANCH  14  15
ATOM     15  C   UNL     1      -5.496  -3.501 130.212  0.00  0.00    +0.000 A 
ATOM     16  C   UNL     1      -5.586  -4.816 130.627  0.00  0.00    +0.000 A 
ATOM     17  C   UNL     1      -5.546  -4.947 132.047  0.00  0.00    +0.000 A 
ATOM     18  C   UNL     1      -5.426  -3.730 132.676  0.00  0.00    +0.000 A 
ATOM     19  S   UNL     1      -5.237  -2.458 131.559  0.00  0.00    +0.000 S 
ENDBRANCH  14  15
ENDBRANCH  11  14
ENDBRANCH   1  10
BRANCH   5  20
ATOM     20  C   UNL     1     -10.141   0.870 123.580  0.00  0.00    +0.000 C 
ATOM     21  OXT UNL     1     -10.136   0.134 122.601  0.00  0.00    +0.000 OA
BRANCH  20  22
ATOM     22  O   UNL     1     -11.283   1.497 123.923  0.00  0.00    +0.000 OA
ATOM     23  H   UNL     1     -11.753   1.957 123.199  0.00  0.00    +0.000 HD
ENDBRANCH  20  22
ENDBRANCH   5  20
BRANCH   6  24
ATOM     24  C   UNL     1      -8.282   2.804 122.471  0.00  0.00    +0.000 C 
BRANCH  24  25
ATOM     25  O   UNL     1      -7.232   3.700 122.074  0.00  0.00    +0.000 OA
BRANCH  25  26
ATOM     26  C   UNL     1      -6.606   3.568 120.879  0.00  0.00    +0.000 C 
ATOM     27  C   UNL     1      -7.214   4.185 119.649  0.00  0.00    +0.000 C 
ATOM     28  O   UNL     1      -5.537   2.966 120.810  0.00  0.00    +0.000 OA
ENDBRANCH  25  26
ENDBRANCH  24  25
ENDBRANCH   6  24
TORSDOF 8
ENDMDL
MODEL 9
REMARK VINA RESULT:      -6.3      4.114      6.769
REMARK  Name = Cefalotin
REMARK  9 active torsions:
REMARK  status: ('A' for Active; 'I' for Inactive)
REMARK    1  A    between atoms: CA_2  and  N_3
REMARK    2  A    between atoms: C_4  and  C_6
REMARK    3  A    between atoms: C_6  and  C_7
REMARK    4  A    between atoms: CA_15  and  C_16
REMARK    5  A    between atoms: C_16  and  O_17
REMARK    6  A    between atoms: C_19  and  C_20
REMARK    7  A    between atoms: C_20  and  O_21
REMARK    8  A    between atoms: O_21  and  C_22
REMARK    9  A    between atoms: C_22  and  C_23
REMARK                            x       y       z     vdW  Elec       q    Type
REMARK                         _______ _______ _______ _____ _____    ______ ____
ROOT
ATOM      1  CA  UNL     1      -6.845   0.967 128.055  0.00  0.00    +0.000 C 
ATOM      2  C   UNL     1      -7.641   2.274 127.720  0.00  0.00    +0.000 C 
ATOM      3  O   UNL     1      -8.383   3.055 128.262  0.00  0.00    +0.000 OA
ATOM      4  N   UNL     1      -7.051   2.350 126.497  0.00  0.00    +0.000 N 
ATOM      5  CA  UNL     1      -7.399   3.033 125.360  0.00  0.00    +0.000 C 
ATOM      6  C   UNL     1      -7.315   2.427 124.143  0.00  0.00    +0.000 C 
ATOM      7  C   UNL     1      -6.944   0.978 123.934  0.00  0.00    +0.000 C 
ATOM      8  S   UNL     1      -7.097  -0.104 125.355  0.00  0.00    +0.000 S 
ATOM      9  C   UNL     1      -6.405   1.042 126.549  0.00  0.00    +0.000 C 
ENDROOT
BRANCH   1  10
ATOM     10  N   UNL     1      -7.557  -0.241 128.597  0.00  0.00    +0.000 N 
ATOM     11  C   UNL     1      -6.884  -1.405 128.913  0.00  0.00    +0.000 C 
ATOM     12  O   UNL     1      -5.679  -1.487 128.700  0.00  0.00    +0.000 OA
ATOM     13  H   UNL     1      -8.571  -0.269 128.574  0.00  0.00    +0.000 HD
BRANCH  11  14
ATOM     14  C   UNL     1      -7.730  -2.537 129.497  0.00  0.00    +0.000 C 
BRANCH  14  15
ATOM     15  C   UNL     1      -7.066  -3.183 130.691  0.00  0.00    +0.000 A 
ATOM     16  C   UNL     1      -7.295  -2.924 132.030  0.00  0.00    +0.000 A 
ATOM     17  C   UNL     1      -6.446  -3.684 132.888  0.00  0.00    +0.000 A 
ATOM     18  C   UNL     1      -5.593  -4.501 132.183  0.00  0.00    +0.000 A 
ATOM     19  S   UNL     1      -5.904  -4.442 130.509  0.00  0.00    +0.000 S 
ENDBRANCH  14  15
ENDBRANCH  11  14
ENDBRANCH   1  10
BRANCH   5  20
ATOM     20  C   UNL     1      -7.837   4.498 125.428  0.00  0.00    +0.000 C 
ATOM     21  OXT UNL     1      -8.998   4.851 125.596  0.00  0.00    +0.000 OA
BRANCH  20  22
ATOM     22  O   UNL     1      -6.901   5.428 125.158  0.00  0.00    +0.000 OA
ATOM     23  H   UNL     1      -6.072   5.097 124.758  0.00  0.00    +0.000 HD
ENDBRANCH  20  22
ENDBRANCH   5  20
BRANCH   6  24
ATOM     24  C   UNL     1      -7.630   3.179 122.851  0.00  0.00    +0.000 C 
BRANCH  24  25
ATOM     25  O   UNL     1      -6.555   3.121 121.901  0.00  0.00    +0.000 OA
BRANCH  25  26
ATOM     26  C   UNL     1      -5.714   4.168 121.722  0.00  0.00    +0.000 C 
ATOM     27  C   UNL     1      -5.416   4.654 120.330  0.00  0.00    +0.000 C 
ATOM     28  O   UNL     1      -5.218   4.730 122.697  0.00  0.00    +0.000 OA
ENDBRANCH  25  26
ENDBRANCH  24  25
ENDBRANCH   6  24
TORSDOF 8
ENDMDL
