MODEL 1
REMARK VINA RESULT:      -7.9      0.000      0.000
REMARK  Name = Cefamandole
REMARK  10 active torsions:
REMARK  status: ('A' for Active; 'I' for Inactive)
REMARK    1  A    between atoms: C_5  and  C_6
REMARK    2  A    between atoms: C_6  and  S_7
REMARK    3  A    between atoms: S_7  and  C_8
REMARK    4  A    between atoms: N_12  and  C_13
REMARK    5  A    between atoms: CA_14  and  C_30
REMARK    6  A    between atoms: CA_18  and  N_19
REMARK    7  A    between atoms: C_20  and  C_22
REMARK    8  A    between atoms: C_22  and  O_23
REMARK    9  A    between atoms: C_22  and  C_24
REMARK   10  A    between atoms: C_30  and  O_31
REMARK                            x       y       z     vdW  Elec       q    Type
REMARK                         _______ _______ _______ _____ _____    ______ ____
ROOT
ATOM      1  C   UNL     1      -7.654   3.305 129.524  0.00  0.00    +0.000 C 
ATOM      2  S   UNL     1      -8.888   2.047 129.859  0.00  0.00    +0.000 S 
ATOM      3  C   UNL     1      -7.790   0.709 129.317  0.00  0.00    +0.000 C 
ATOM      4  C   UNL     1      -7.218   0.889 127.918  0.00  0.00    +0.000 C 
ATOM      5  CA  UNL     1      -7.046   2.129 127.367  0.00  0.00    +0.000 C 
ATOM      6  N   UNL     1      -7.289   3.269 128.109  0.00  0.00    +0.000 N 
ATOM      7  C   UNL     1      -7.940   4.419 127.781  0.00  0.00    +0.000 C 
ATOM      8  O   UNL     1      -8.193   4.870 126.696  0.00  0.00    +0.000 OA
ATOM      9  CA  UNL     1      -8.166   4.754 129.289  0.00  0.00    +0.000 C 
ENDROOT
BRANCH   9  10
ATOM     10  N   UNL     1      -9.554   5.178 129.675  0.00  0.00    +0.000 N 
ATOM     11  C   UNL     1      -9.731   6.501 130.081  0.00  0.00    +0.000 C 
ATOM     12  O   UNL     1      -8.810   7.315 129.985  0.00  0.00    +0.000 OA
ATOM     13  H   UNL     1     -10.250   4.487 129.950  0.00  0.00    +0.000 HD
BRANCH  11  14
ATOM     14  C   UNL     1     -11.066   6.856 130.798  0.00  0.00    +0.000 C 
BRANCH  14  15
ATOM     15  C   UNL     1     -12.133   7.359 129.837  0.00  0.00    +0.000 A 
ATOM     16  C   UNL     1     -12.843   6.468 129.017  0.00  0.00    +0.000 A 
ATOM     17  C   UNL     1     -13.672   6.957 128.002  0.00  0.00    +0.000 A 
ATOM     18  C   UNL     1     -13.887   8.329 127.866  0.00  0.00    +0.000 A 
ATOM     19  C   UNL     1     -13.234   9.218 128.704  0.00  0.00    +0.000 A 
ATOM     20  C   UNL     1     -12.355   8.734 129.662  0.00  0.00    +0.000 A 
ENDBRANCH  14  15
BRANCH  14  21
ATOM     21  O   UNL     1     -11.608   5.687 131.424  0.00  0.00    +0.000 OA
ATOM     22  H   UNL     1     -10.876   5.042 131.477  0.00  0.00    +0.000 HD
ENDBRANCH  14  21
ENDBRANCH  11  14
ENDBRANCH   9  10
BRANCH   5  23
ATOM     23  C   UNL     1      -6.530   2.248 125.934  0.00  0.00    +0.000 C 
ATOM     24  OXT UNL     1      -5.340   2.320 125.653  0.00  0.00    +0.000 OA
BRANCH  23  25
ATOM     25  O   UNL     1      -7.450   2.399 124.963  0.00  0.00    +0.000 OA
ATOM     26  H   UNL     1      -7.268   3.075 124.280  0.00  0.00    +0.000 HD
ENDBRANCH  23  25
ENDBRANCH   5  23
BRANCH   4  27
ATOM     27  C   UNL     1      -6.860  -0.415 127.162  0.00  0.00    +0.000 C 
BRANCH  27  28
ATOM     28  S   UNL     1      -8.300  -1.377 126.587  0.00  0.00    +0.000 S 
BRANCH  28  29
ATOM     29  C   UNL     1      -9.008  -0.434 125.335  0.00  0.00    +0.000 A 
ATOM     30  N   UNL     1      -9.874   0.541 125.499  0.00  0.00    +0.000 NA
ATOM     31  N   UNL     1     -10.354   0.833 124.241  0.00  0.00    +0.000 NA
ATOM     32  N   UNL     1      -9.811   0.038 123.328  0.00  0.00    +0.000 NA
ATOM     33  N   UNL     1      -8.970  -0.757 124.012  0.00  0.00    +0.000 N 
ATOM     34  C   UNL     1      -8.232  -1.791 123.345  0.00  0.00    +0.000 C 
ENDBRANCH  28  29
ENDBRANCH  27  28
ENDBRANCH   4  27
TORSDOF 9
ENDMDL
MODEL 2
REMARK VINA RESULT:      -7.9      3.146      8.634
REMARK  Name = Cefamandole
REMARK  10 active torsions:
REMARK  status: ('A' for Active; 'I' for Inactive)
REMARK    1  A    between atoms: C_5  and  C_6
REMARK    2  A    between atoms: C_6  and  S_7
REMARK    3  A    between atoms: S_7  and  C_8
REMARK    4  A    between atoms: N_12  and  C_13
REMARK    5  A    between atoms: CA_14  and  C_30
REMARK    6  A    between atoms: CA_18  and  N_19
REMARK    7  A    between atoms: C_20  and  C_22
REMARK    8  A    between atoms: C_22  and  O_23
REMARK    9  A    between atoms: C_22  and  C_24
REMARK   10  A    between atoms: C_30  and  O_31
REMARK                            x       y       z     vdW  Elec       q    Type
REMARK                         _______ _______ _______ _____ _____    ______ ____
ROOT
ATOM      1  C   UNL     1      -8.999   1.236 126.475  0.00  0.00    +0.000 C 
ATOM      2  S   UNL     1      -7.508   0.493 127.139  0.00  0.00    +0.000 S 
ATOM      3  C   UNL     1      -7.268   1.841 128.328  0.00  0.00    +0.000 C 
ATOM      4  C   UNL     1      -7.238   3.231 127.711  0.00  0.00    +0.000 C 
ATOM      5  CA  UNL     1      -7.891   3.511 126.540  0.00  0.00    +0.000 C 
ATOM      6  N   UNL     1      -8.690   2.560 125.936  0.00  0.00    +0.000 N 
ATOM      7  C   UNL     1      -8.796   2.192 124.629  0.00  0.00    +0.000 C 
ATOM      8  O   UNL     1      -8.472   2.790 123.638  0.00  0.00    +0.000 OA
ATOM      9  CA  UNL     1      -9.419   0.819 125.037  0.00  0.00    +0.000 C 
ENDROOT
BRANCH   9  10
ATOM     10  N   UNL     1      -8.848  -0.397 124.365  0.00  0.00    +0.000 N 
ATOM     11  C   UNL     1      -9.506  -0.870 123.229  0.00  0.00    +0.000 C 
ATOM     12  O   UNL     1     -10.430  -0.227 122.726  0.00  0.00    +0.000 OA
ATOM     13  H   UNL     1      -8.237  -1.032 124.874  0.00  0.00    +0.000 HD
BRANCH  11  14
ATOM     14  C   UNL     1      -9.137  -2.299 122.734  0.00  0.00    +0.000 C 
BRANCH  14  15
ATOM     15  C   UNL     1      -7.709  -2.691 123.086  0.00  0.00    +0.000 A 
ATOM     16  C   UNL     1      -7.441  -3.532 124.178  0.00  0.00    +0.000 A 
ATOM     17  C   UNL     1      -6.123  -3.721 124.610  0.00  0.00    +0.000 A 
ATOM     18  C   UNL     1      -5.059  -3.169 123.896  0.00  0.00    +0.000 A 
ATOM     19  C   UNL     1      -5.308  -2.381 122.784  0.00  0.00    +0.000 A 
ATOM     20  C   UNL     1      -6.618  -2.133 122.401  0.00  0.00    +0.000 A 
ENDBRANCH  14  15
BRANCH  14  21
ATOM     21  O   UNL     1      -9.986  -3.266 123.363  0.00  0.00    +0.000 OA
ATOM     22  H   UNL     1     -10.294  -3.861 122.652  0.00  0.00    +0.000 HD
ENDBRANCH  14  21
ENDBRANCH  11  14
ENDBRANCH   9  10
BRANCH   5  23
ATOM     23  C   UNL     1      -7.773   4.906 125.931  0.00  0.00    +0.000 C 
ATOM     24  OXT UNL     1      -6.733   5.348 125.460  0.00  0.00    +0.000 OA
BRANCH  23  25
ATOM     25  O   UNL     1      -8.847   5.712 126.036  0.00  0.00    +0.000 OA
ATOM     26  H   UNL     1      -8.781   6.458 126.665  0.00  0.00    +0.000 HD
ENDBRANCH  23  25
ENDBRANCH   5  23
BRANCH   4  27
ATOM     27  C   UNL     1      -6.417   4.296 128.480  0.00  0.00    +0.000 C 
BRANCH  27  28
ATOM     28  S   UNL     1      -7.219   4.919 129.996  0.00  0.00    +0.000 S 
BRANCH  28  29
ATOM     29  C   UNL     1      -8.897   4.993 129.627  0.00  0.00    +0.000 A 
ATOM     30  N   UNL     1      -9.500   5.953 128.962  0.00  0.00    +0.000 NA
ATOM     31  N   UNL     1     -10.850   5.732 129.123  0.00  0.00    +0.000 NA
ATOM     32  N   UNL     1     -11.071   4.673 129.892  0.00  0.00    +0.000 NA
ATOM     33  N   UNL     1      -9.849   4.211 130.209  0.00  0.00    +0.000 N 
ATOM     34  C   UNL     1      -9.696   3.083 131.082  0.00  0.00    +0.000 C 
ENDBRANCH  28  29
ENDBRANCH  27  28
ENDBRANCH   4  27
TORSDOF 9
ENDMDL
MODEL 3
REMARK VINA RESULT:      -7.7      3.725      4.718
REMARK  Name = Cefamandole
REMARK  10 active torsions:
REMARK  status: ('A' for Active; 'I' for Inactive)
REMARK    1  A    between atoms: C_5  and  C_6
REMARK    2  A    between atoms: C_6  and  S_7
REMARK    3  A    between atoms: S_7  and  C_8
REMARK    4  A    between atoms: N_12  and  C_13
REMARK    5  A    between atoms: CA_14  and  C_30
REMARK    6  A    between atoms: CA_18  and  N_19
REMARK    7  A    between atoms: C_20  and  C_22
REMARK    8  A    between atoms: C_22  and  O_23
REMARK    9  A    between atoms: C_22  and  C_24
REMARK   10  A    between atoms: C_30  and  O_31
REMARK                            x       y       z     vdW  Elec       q    Type
REMARK                         _______ _______ _______ _____ _____    ______ ____
ROOT
ATOM      1  C   UNL     1      -6.961   4.776 131.357  0.00  0.00    +0.000 C 
ATOM      2  S   UNL     1      -7.159   3.645 129.978  0.00  0.00    +0.000 S 
ATOM      3  C   UNL     1      -5.415   3.151 130.027  0.00  0.00    +0.000 C 
ATOM      4  C   UNL     1      -4.428   4.307 129.953  0.00  0.00    +0.000 C 
ATOM      5  CA  UNL     1      -4.757   5.561 130.392  0.00  0.00    +0.000 C 
ATOM      6  N   UNL     1      -5.966   5.792 131.018  0.00  0.00    +0.000 N 
ATOM      7  C   UNL     1      -6.866   6.803 130.865  0.00  0.00    +0.000 C 
ATOM      8  O   UNL     1      -6.711   7.898 130.393  0.00  0.00    +0.000 OA
ATOM      9  CA  UNL     1      -7.999   5.926 131.484  0.00  0.00    +0.000 C 
ENDROOT
BRANCH   9  10
ATOM     10  N   UNL     1      -9.304   5.904 130.741  0.00  0.00    +0.000 N 
ATOM     11  C   UNL     1     -10.468   6.117 131.480  0.00  0.00    +0.000 C 
ATOM     12  O   UNL     1     -10.405   6.451 132.666  0.00  0.00    +0.000 OA
ATOM     13  H   UNL     1      -9.380   5.437 129.838  0.00  0.00    +0.000 HD
BRANCH  11  14
ATOM     14  C   UNL     1     -11.822   5.762 130.800  0.00  0.00    +0.000 C 
BRANCH  14  15
ATOM     15  C   UNL     1     -12.316   6.859 129.869  0.00  0.00    +0.000 A 
ATOM     16  C   UNL     1     -12.189   8.213 130.219  0.00  0.00    +0.000 A 
ATOM     17  C   UNL     1     -12.824   9.198 129.454  0.00  0.00    +0.000 A 
ATOM     18  C   UNL     1     -13.492   8.856 128.277  0.00  0.00    +0.000 A 
ATOM     19  C   UNL     1     -13.577   7.529 127.891  0.00  0.00    +0.000 A 
ATOM     20  C   UNL     1     -13.011   6.546 128.690  0.00  0.00    +0.000 A 
ENDBRANCH  14  15
BRANCH  14  21
ATOM     21  O   UNL     1     -11.668   4.589 129.993  0.00  0.00    +0.000 OA
ATOM     22  H   UNL     1     -10.993   4.039 130.436  0.00  0.00    +0.000 HD
ENDBRANCH  14  21
ENDBRANCH  11  14
ENDBRANCH   9  10
BRANCH   5  23
ATOM     23  C   UNL     1      -3.751   6.699 130.233  0.00  0.00    +0.000 C 
ATOM     24  OXT UNL     1      -2.876   6.942 131.054  0.00  0.00    +0.000 OA
BRANCH  23  25
ATOM     25  O   UNL     1      -3.931   7.533 129.191  0.00  0.00    +0.000 OA
ATOM     26  H   UNL     1      -3.159   7.695 128.613  0.00  0.00    +0.000 HD
ENDBRANCH  23  25
ENDBRANCH   5  23
BRANCH   4  27
ATOM     27  C   UNL     1      -3.044   3.977 129.340  0.00  0.00    +0.000 C 
BRANCH  27  28
ATOM     28  S   UNL     1      -2.810   4.577 127.633  0.00  0.00    +0.000 S 
BRANCH  28  29
ATOM     29  C   UNL     1      -4.369   4.511 126.909  0.00  0.00    +0.000 A 
ATOM     30  N   UNL     1      -5.240   5.494 126.863  0.00  0.00    +0.000 NA
ATOM     31  N   UNL     1      -6.420   4.931 126.429  0.00  0.00    +0.000 NA
ATOM     32  N   UNL     1      -6.282   3.625 126.237  0.00  0.00    +0.000 NA
ATOM     33  N   UNL     1      -4.999   3.361 126.539  0.00  0.00    +0.000 N 
ATOM     34  C   UNL     1      -4.496   2.019 126.491  0.00  0.00    +0.000 C 
ENDBRANCH  28  29
ENDBRANCH  27  28
ENDBRANCH   4  27
TORSDOF 9
ENDMDL
MODEL 4
REMARK VINA RESULT:      -7.7      3.829      4.438
REMARK  Name = Cefamandole
REMARK  10 active torsions:
REMARK  status: ('A' for Active; 'I' for Inactive)
REMARK    1  A    between atoms: C_5  and  C_6
REMARK    2  A    between atoms: C_6  and  S_7
REMARK    3  A    between atoms: S_7  and  C_8
REMARK    4  A    between atoms: N_12  and  C_13
REMARK    5  A    between atoms: CA_14  and  C_30
REMARK    6  A    between atoms: CA_18  and  N_19
REMARK    7  A    between atoms: C_20  and  C_22
REMARK    8  A    between atoms: C_22  and  O_23
REMARK    9  A    between atoms: C_22  and  C_24
REMARK   10  A    between atoms: C_30  and  O_31
REMARK                            x       y       z     vdW  Elec       q    Type
REMARK                         _______ _______ _______ _____ _____    ______ ____
ROOT
ATOM      1  C   UNL     1      -7.704   3.720 128.122  0.00  0.00    +0.000 C 
ATOM      2  S   UNL     1      -8.385   4.902 126.958  0.00  0.00    +0.000 S 
ATOM      3  C   UNL     1      -7.551   4.120 125.550  0.00  0.00    +0.000 C 
ATOM      4  C   UNL     1      -6.047   3.965 125.713  0.00  0.00    +0.000 C 
ATOM      5  CA  UNL     1      -5.465   3.860 126.948  0.00  0.00    +0.000 C 
ATOM      6  N   UNL     1      -6.243   3.784 128.087  0.00  0.00    +0.000 N 
ATOM      7  C   UNL     1      -6.116   4.406 129.292  0.00  0.00    +0.000 C 
ATOM      8  O   UNL     1      -5.150   4.925 129.784  0.00  0.00    +0.000 OA
ATOM      9  CA  UNL     1      -7.624   4.159 129.611  0.00  0.00    +0.000 C 
ENDROOT
BRANCH   9  10
ATOM     10  N   UNL     1      -8.395   5.335 130.135  0.00  0.00    +0.000 N 
ATOM     11  C   UNL     1      -9.624   5.078 130.743  0.00  0.00    +0.000 C 
ATOM     12  O   UNL     1      -9.985   3.919 130.962  0.00  0.00    +0.000 OA
ATOM     13  H   UNL     1      -8.213   6.274 129.782  0.00  0.00    +0.000 HD
BRANCH  11  14
ATOM     14  C   UNL     1     -10.574   6.290 130.975  0.00  0.00    +0.000 C 
BRANCH  14  15
ATOM     15  C   UNL     1     -11.228   6.777 129.691  0.00  0.00    +0.000 A 
ATOM     16  C   UNL     1     -10.583   7.709 128.862  0.00  0.00    +0.000 A 
ATOM     17  C   UNL     1     -11.275   8.297 127.797  0.00  0.00    +0.000 A 
ATOM     18  C   UNL     1     -12.569   7.883 127.481  0.00  0.00    +0.000 A 
ATOM     19  C   UNL     1     -13.197   6.923 128.258  0.00  0.00    +0.000 A 
ATOM     20  C   UNL     1     -12.537   6.396 129.359  0.00  0.00    +0.000 A 
ENDBRANCH  14  15
BRANCH  14  21
ATOM     21  O   UNL     1     -11.641   5.910 131.851  0.00  0.00    +0.000 OA
ATOM     22  H   UNL     1     -11.333   5.115 132.328  0.00  0.00    +0.000 HD
ENDBRANCH  14  21
ENDBRANCH  11  14
ENDBRANCH   9  10
BRANCH   5  23
ATOM     23  C   UNL     1      -3.944   3.772 127.057  0.00  0.00    +0.000 C 
ATOM     24  OXT UNL     1      -3.328   2.716 127.014  0.00  0.00    +0.000 OA
BRANCH  23  25
ATOM     25  O   UNL     1      -3.285   4.913 127.332  0.00  0.00    +0.000 OA
ATOM     26  H   UNL     1      -2.327   4.932 127.132  0.00  0.00    +0.000 HD
ENDBRANCH  23  25
ENDBRANCH   5  23
BRANCH   4  27
ATOM     27  C   UNL     1      -5.221   3.948 124.402  0.00  0.00    +0.000 C 
BRANCH  27  28
ATOM     28  S   UNL     1      -6.187   3.553 122.906  0.00  0.00    +0.000 S 
BRANCH  28  29
ATOM     29  C   UNL     1      -5.483   4.489 121.647  0.00  0.00    +0.000 A 
ATOM     30  N   UNL     1      -4.503   5.354 121.785  0.00  0.00    +0.000 NA
ATOM     31  N   UNL     1      -4.438   6.041 120.592  0.00  0.00    +0.000 NA
ATOM     32  N   UNL     1      -5.374   5.624 119.750  0.00  0.00    +0.000 NA
ATOM     33  N   UNL     1      -6.030   4.653 120.410  0.00  0.00    +0.000 N 
ATOM     34  C   UNL     1      -7.157   3.995 119.816  0.00  0.00    +0.000 C 
ENDBRANCH  28  29
ENDBRANCH  27  28
ENDBRANCH   4  27
TORSDOF 9
ENDMDL
MODEL 5
REMARK VINA RESULT:      -7.6      3.953      8.579
REMARK  Name = Cefamandole
REMARK  10 active torsions:
REMARK  status: ('A' for Active; 'I' for Inactive)
REMARK    1  A    between atoms: C_5  and  C_6
REMARK    2  A    between atoms: C_6  and  S_7
REMARK    3  A    between atoms: S_7  and  C_8
REMARK    4  A    between atoms: N_12  and  C_13
REMARK    5  A    between atoms: CA_14  and  C_30
REMARK    6  A    between atoms: CA_18  and  N_19
REMARK    7  A    between atoms: C_20  and  C_22
REMARK    8  A    between atoms: C_22  and  O_23
REMARK    9  A    between atoms: C_22  and  C_24
REMARK   10  A    between atoms: C_30  and  O_31
REMARK                            x       y       z     vdW  Elec       q    Type
REMARK                         _______ _______ _______ _____ _____    ______ ____
ROOT
ATOM      1  C   UNL     1      -6.964   2.216 130.644  0.00  0.00    +0.000 C 
ATOM      2  S   UNL     1      -8.311   1.544 129.670  0.00  0.00    +0.000 S 
ATOM      3  C   UNL     1      -9.043   3.181 129.403  0.00  0.00    +0.000 C 
ATOM      4  C   UNL     1      -9.318   3.966 130.676  0.00  0.00    +0.000 C 
ATOM      5  CA  UNL     1      -8.588   3.764 131.816  0.00  0.00    +0.000 C 
ATOM      6  N   UNL     1      -7.502   2.910 131.813  0.00  0.00    +0.000 N 
ATOM      7  C   UNL     1      -7.118   1.960 132.711  0.00  0.00    +0.000 C 
ATOM      8  O   UNL     1      -7.429   1.831 133.865  0.00  0.00    +0.000 OA
ATOM      9  CA  UNL     1      -6.249   1.248 131.628  0.00  0.00    +0.000 C 
ENDROOT
BRANCH   9  10
ATOM     10  N   UNL     1      -6.401  -0.243 131.526  0.00  0.00    +0.000 N 
ATOM     11  C   UNL     1      -5.342  -0.960 130.970  0.00  0.00    +0.000 C 
ATOM     12  O   UNL     1      -4.275  -0.401 130.708  0.00  0.00    +0.000 OA
ATOM     13  H   UNL     1      -7.325  -0.672 131.542  0.00  0.00    +0.000 HD
BRANCH  11  14
ATOM     14  C   UNL     1      -5.620  -2.433 130.550  0.00  0.00    +0.000 C 
BRANCH  14  15
ATOM     15  C   UNL     1      -6.667  -2.542 129.451  0.00  0.00    +0.000 A 
ATOM     16  C   UNL     1      -7.812  -3.336 129.622  0.00  0.00    +0.000 A 
ATOM     17  C   UNL     1      -8.660  -3.587 128.537  0.00  0.00    +0.000 A 
ATOM     18  C   UNL     1      -8.440  -2.962 127.309  0.00  0.00    +0.000 A 
ATOM     19  C   UNL     1      -7.344  -2.132 127.143  0.00  0.00    +0.000 A 
ATOM     20  C   UNL     1      -6.462  -1.943 128.198  0.00  0.00    +0.000 A 
ENDBRANCH  14  15
BRANCH  14  21
ATOM     21  O   UNL     1      -4.424  -3.023 130.026  0.00  0.00    +0.000 OA
ATOM     22  H   UNL     1      -4.607  -3.222 129.087  0.00  0.00    +0.000 HD
ENDBRANCH  14  21
ENDBRANCH  11  14
ENDBRANCH   9  10
BRANCH   5  23
ATOM     23  C   UNL     1      -8.949   4.533 133.085  0.00  0.00    +0.000 C 
ATOM     24  OXT UNL     1      -8.433   5.599 133.395  0.00  0.00    +0.000 OA
BRANCH  23  25
ATOM     25  O   UNL     1      -9.791   3.930 133.947  0.00  0.00    +0.000 OA
ATOM     26  H   UNL     1      -9.389   3.465 134.708  0.00  0.00    +0.000 HD
ENDBRANCH  23  25
ENDBRANCH   5  23
BRANCH   4  27
ATOM     27  C   UNL     1     -10.477   4.992 130.603  0.00  0.00    +0.000 C 
BRANCH  27  28
ATOM     28  S   UNL     1      -9.979   6.657 130.048  0.00  0.00    +0.000 S 
BRANCH  28  29
ATOM     29  C   UNL     1     -10.227   6.664 128.346  0.00  0.00    +0.000 A 
ATOM     30  N   UNL     1      -9.494   6.031 127.457  0.00  0.00    +0.000 NA
ATOM     31  N   UNL     1      -9.890   6.515 126.230  0.00  0.00    +0.000 NA
ATOM     32  N   UNL     1     -10.828   7.444 126.364  0.00  0.00    +0.000 NA
ATOM     33  N   UNL     1     -11.038   7.539 127.689  0.00  0.00    +0.000 N 
ATOM     34  C   UNL     1     -11.969   8.494 128.217  0.00  0.00    +0.000 C 
ENDBRANCH  28  29
ENDBRANCH  27  28
ENDBRANCH   4  27
TORSDOF 9
ENDMDL
MODEL 6
REMARK VINA RESULT:      -7.5      4.536      5.496
REMARK  Name = Cefamandole
REMARK  10 active torsions:
REMARK  status: ('A' for Active; 'I' for Inactive)
REMARK    1  A    between atoms: C_5  and  C_6
REMARK    2  A    between atoms: C_6  and  S_7
REMARK    3  A    between atoms: S_7  and  C_8
REMARK    4  A    between atoms: N_12  and  C_13
REMARK    5  A    between atoms: CA_14  and  C_30
REMARK    6  A    between atoms: CA_18  and  N_19
REMARK    7  A    between atoms: C_20  and  C_22
REMARK    8  A    between atoms: C_22  and  O_23
REMARK    9  A    between atoms: C_22  and  C_24
REMARK   10  A    between atoms: C_30  and  O_31
REMARK                            x       y       z     vdW  Elec       q    Type
REMARK                         _______ _______ _______ _____ _____    ______ ____
ROOT
ATOM      1  C   UNL     1      -7.393   2.420 130.811  0.00  0.00    +0.000 C 
ATOM      2  S   UNL     1      -6.398   3.193 132.087  0.00  0.00    +0.000 S 
ATOM      3  C   UNL     1      -5.189   1.840 132.079  0.00  0.00    +0.000 C 
ATOM      4  C   UNL     1      -5.788   0.457 132.287  0.00  0.00    +0.000 C 
ATOM      5  CA  UNL     1      -7.079   0.172 131.931  0.00  0.00    +0.000 C 
ATOM      6  N   UNL     1      -7.849   1.110 131.271  0.00  0.00    +0.000 N 
ATOM      7  C   UNL     1      -9.144   1.487 131.462  0.00  0.00    +0.000 C 
ATOM      8  O   UNL     1     -10.034   0.905 132.023  0.00  0.00    +0.000 OA
ATOM      9  CA  UNL     1      -8.887   2.840 130.727  0.00  0.00    +0.000 C 
ENDROOT
BRANCH   9  10
ATOM     10  N   UNL     1      -9.404   4.075 131.406  0.00  0.00    +0.000 N 
ATOM     11  C   UNL     1     -10.549   4.669 130.875  0.00  0.00    +0.000 C 
ATOM     12  O   UNL     1     -11.182   4.114 129.974  0.00  0.00    +0.000 OA
ATOM     13  H   UNL     1      -8.793   4.638 131.995  0.00  0.00    +0.000 HD
BRANCH  11  14
ATOM     14  C   UNL     1     -10.890   6.112 131.347  0.00  0.00    +0.000 C 
BRANCH  14  15
ATOM     15  C   UNL     1     -11.224   7.044 130.191  0.00  0.00    +0.000 A 
ATOM     16  C   UNL     1     -12.557   7.287 129.823  0.00  0.00    +0.000 A 
ATOM     17  C   UNL     1     -12.843   7.980 128.641  0.00  0.00    +0.000 A 
ATOM     18  C   UNL     1     -11.813   8.532 127.879  0.00  0.00    +0.000 A 
ATOM     19  C   UNL     1     -10.494   8.345 128.262  0.00  0.00    +0.000 A 
ATOM     20  C   UNL     1     -10.210   7.594 129.393  0.00  0.00    +0.000 A 
ENDBRANCH  14  15
BRANCH  14  21
ATOM     21  O   UNL     1     -12.048   6.088 132.191  0.00  0.00    +0.000 OA
ATOM     22  H   UNL     1     -12.567   5.307 131.918  0.00  0.00    +0.000 HD
ENDBRANCH  14  21
ENDBRANCH  11  14
ENDBRANCH   9  10
BRANCH   5  23
ATOM     23  C   UNL     1      -7.649  -1.214 132.223  0.00  0.00    +0.000 C 
ATOM     24  OXT UNL     1      -7.892  -1.616 133.354  0.00  0.00    +0.000 OA
BRANCH  23  25
ATOM     25  O   UNL     1      -7.767  -2.058 131.181  0.00  0.00    +0.000 OA
ATOM     26  H   UNL     1      -6.963  -2.545 130.910  0.00  0.00    +0.000 HD
ENDBRANCH  23  25
ENDBRANCH   5  23
BRANCH   4  27
ATOM     27  C   UNL     1      -4.852  -0.595 132.934  0.00  0.00    +0.000 C 
BRANCH  27  28
ATOM     28  S   UNL     1      -3.594  -1.283 131.806  0.00  0.00    +0.000 S 
BRANCH  28  29
ATOM     29  C   UNL     1      -4.428  -2.440 130.844  0.00  0.00    +0.000 A 
ATOM     30  N   UNL     1      -5.040  -2.199 129.706  0.00  0.00    +0.000 NA
ATOM     31  N   UNL     1      -5.771  -3.333 129.425  0.00  0.00    +0.000 NA
ATOM     32  N   UNL     1      -5.630  -4.240 130.384  0.00  0.00    +0.000 NA
ATOM     33  N   UNL     1      -4.790  -3.681 131.273  0.00  0.00    +0.000 N 
ATOM     34  C   UNL     1      -4.441  -4.367 132.483  0.00  0.00    +0.000 C 
ENDBRANCH  28  29
ENDBRANCH  27  28
ENDBRANCH   4  27
TORSDOF 9
ENDMDL
MODEL 7
REMARK VINA RESULT:      -7.4      3.310      4.358
REMARK  Name = Cefamandole
REMARK  10 active torsions:
REMARK  status: ('A' for Active; 'I' for Inactive)
REMARK    1  A    between atoms: C_5  and  C_6
REMARK    2  A    between atoms: C_6  and  S_7
REMARK    3  A    between atoms: S_7  and  C_8
REMARK    4  A    between atoms: N_12  and  C_13
REMARK    5  A    between atoms: CA_14  and  C_30
REMARK    6  A    between atoms: CA_18  and  N_19
REMARK    7  A    between atoms: C_20  and  C_22
REMARK    8  A    between atoms: C_22  and  O_23
REMARK    9  A    between atoms: C_22  and  C_24
REMARK   10  A    between atoms: C_30  and  O_31
REMARK                            x       y       z     vdW  Elec       q    Type
REMARK                         _______ _______ _______ _____ _____    ______ ____
ROOT
ATOM      1  C   UNL     1      -8.137   2.926 131.234  0.00  0.00    +0.000 C 
ATOM      2  S   UNL     1      -9.437   1.929 131.962  0.00  0.00    +0.000 S 
ATOM      3  C   UNL     1      -8.431   0.422 131.896  0.00  0.00    +0.000 C 
ATOM      4  C   UNL     1      -7.874   0.093 130.519  0.00  0.00    +0.000 C 
ATOM      5  CA  UNL     1      -7.638   1.069 129.588  0.00  0.00    +0.000 C 
ATOM      6  N   UNL     1      -7.799   2.402 129.912  0.00  0.00    +0.000 N 
ATOM      7  C   UNL     1      -8.386   3.418 129.220  0.00  0.00    +0.000 C 
ATOM      8  O   UNL     1      -8.630   3.501 128.046  0.00  0.00    +0.000 OA
ATOM      9  CA  UNL     1      -8.565   4.245 130.531  0.00  0.00    +0.000 C 
ENDROOT
BRANCH   9  10
ATOM     10  N   UNL     1      -9.918   4.859 130.752  0.00  0.00    +0.000 N 
ATOM     11  C   UNL     1     -10.040   6.234 130.547  0.00  0.00    +0.000 C 
ATOM     12  O   UNL     1      -9.106   6.882 130.069  0.00  0.00    +0.000 OA
ATOM     13  H   UNL     1     -10.613   4.389 131.328  0.00  0.00    +0.000 HD
BRANCH  11  14
ATOM     14  C   UNL     1     -11.323   6.926 131.093  0.00  0.00    +0.000 C 
BRANCH  14  15
ATOM     15  C   UNL     1     -12.259   7.383 129.985  0.00  0.00    +0.000 A 
ATOM     16  C   UNL     1     -12.889   6.452 129.143  0.00  0.00    +0.000 A 
ATOM     17  C   UNL     1     -13.583   6.888 128.009  0.00  0.00    +0.000 A 
ATOM     18  C   UNL     1     -13.752   8.252 127.766  0.00  0.00    +0.000 A 
ATOM     19  C   UNL     1     -13.182   9.182 128.620  0.00  0.00    +0.000 A 
ATOM     20  C   UNL     1     -12.431   8.747 129.702  0.00  0.00    +0.000 A 
ENDBRANCH  14  15
BRANCH  14  21
ATOM     21  O   UNL     1     -12.069   6.004 131.896  0.00  0.00    +0.000 OA
ATOM     22  H   UNL     1     -11.877   5.115 131.540  0.00  0.00    +0.000 HD
ENDBRANCH  14  21
ENDBRANCH  11  14
ENDBRANCH   9  10
BRANCH   5  23
ATOM     23  C   UNL     1      -7.140   0.676 128.199  0.00  0.00    +0.000 C 
ATOM     24  OXT UNL     1      -5.954   0.613 127.903  0.00  0.00    +0.000 OA
BRANCH  23  25
ATOM     25  O   UNL     1      -8.072   0.512 127.240  0.00  0.00    +0.000 OA
ATOM     26  H   UNL     1      -7.984   1.064 126.437  0.00  0.00    +0.000 HD
ENDBRANCH  23  25
ENDBRANCH   5  23
BRANCH   4  27
ATOM     27  C   UNL     1      -7.607  -1.407 130.236  0.00  0.00    +0.000 C 
BRANCH  27  28
ATOM     28  S   UNL     1      -6.655  -2.263 131.536  0.00  0.00    +0.000 S 
BRANCH  28  29
ATOM     29  C   UNL     1      -5.095  -2.525 130.861  0.00  0.00    +0.000 A 
ATOM     30  N   UNL     1      -4.559  -3.694 130.590  0.00  0.00    +0.000 NA
ATOM     31  N   UNL     1      -3.233  -3.443 130.311  0.00  0.00    +0.000 NA
ATOM     32  N   UNL     1      -2.957  -2.151 130.433  0.00  0.00    +0.000 NA
ATOM     33  N   UNL     1      -4.121  -1.576 130.779  0.00  0.00    +0.000 N 
ATOM     34  C   UNL     1      -4.194  -0.169 131.047  0.00  0.00    +0.000 C 
ENDBRANCH  28  29
ENDBRANCH  27  28
ENDBRANCH   4  27
TORSDOF 9
ENDMDL
MODEL 8
REMARK VINA RESULT:      -7.4      4.852      7.055
REMARK  Name = Cefamandole
REMARK  10 active torsions:
REMARK  status: ('A' for Active; 'I' for Inactive)
REMARK    1  A    between atoms: C_5  and  C_6
REMARK    2  A    between atoms: C_6  and  S_7
REMARK    3  A    between atoms: S_7  and  C_8
REMARK    4  A    between atoms: N_12  and  C_13
REMARK    5  A    between atoms: CA_14  and  C_30
REMARK    6  A    between atoms: CA_18  and  N_19
REMARK    7  A    between atoms: C_20  and  C_22
REMARK    8  A    between atoms: C_22  and  O_23
REMARK    9  A    between atoms: C_22  and  C_24
REMARK   10  A    between atoms: C_30  and  O_31
REMARK                            x       y       z     vdW  Elec       q    Type
REMARK                         _______ _______ _______ _____ _____    ______ ____
ROOT
ATOM      1  C   UNL     1      -7.417   3.678 126.873  0.00  0.00    +0.000 C 
ATOM      2  S   UNL     1      -5.811   3.956 126.125  0.00  0.00    +0.000 S 
ATOM      3  C   UNL     1      -6.542   4.423 124.532  0.00  0.00    +0.000 C 
ATOM      4  C   UNL     1      -7.506   3.397 123.954  0.00  0.00    +0.000 C 
ATOM      5  CA  UNL     1      -8.202   2.534 124.756  0.00  0.00    +0.000 C 
ATOM      6  N   UNL     1      -8.130   2.640 126.131  0.00  0.00    +0.000 N 
ATOM      7  C   UNL     1      -7.988   1.681 127.088  0.00  0.00    +0.000 C 
ATOM      8  O   UNL     1      -8.199   0.500 127.023  0.00  0.00    +0.000 OA
ATOM      9  CA  UNL     1      -7.468   2.740 128.111  0.00  0.00    +0.000 C 
ENDROOT
BRANCH   9  10
ATOM     10  N   UNL     1      -6.232   2.372 128.880  0.00  0.00    +0.000 N 
ATOM     11  C   UNL     1      -5.858   3.208 129.932  0.00  0.00    +0.000 C 
ATOM     12  O   UNL     1      -6.596   4.127 130.296  0.00  0.00    +0.000 OA
ATOM     13  H   UNL     1      -5.528   1.761 128.470  0.00  0.00    +0.000 HD
BRANCH  11  14
ATOM     14  C   UNL     1      -4.421   3.036 130.505  0.00  0.00    +0.000 C 
BRANCH  14  15
ATOM     15  C   UNL     1      -3.489   4.169 130.101  0.00  0.00    +0.000 A 
ATOM     16  C   UNL     1      -2.965   5.050 131.061  0.00  0.00    +0.000 A 
ATOM     17  C   UNL     1      -2.277   6.199 130.658  0.00  0.00    +0.000 A 
ATOM     18  C   UNL     1      -2.008   6.424 129.307  0.00  0.00    +0.000 A 
ATOM     19  C   UNL     1      -2.473   5.534 128.353  0.00  0.00    +0.000 A 
ATOM     20  C   UNL     1      -3.219   4.434 128.749  0.00  0.00    +0.000 A 
ENDBRANCH  14  15
BRANCH  14  21
ATOM     21  O   UNL     1      -4.464   3.043 131.937  0.00  0.00    +0.000 OA
ATOM     22  H   UNL     1      -3.551   3.218 132.236  0.00  0.00    +0.000 HD
ENDBRANCH  14  21
ENDBRANCH  11  14
ENDBRANCH   9  10
BRANCH   5  23
ATOM     23  C   UNL     1      -9.105   1.481 124.118  0.00  0.00    +0.000 C 
ATOM     24  OXT UNL     1     -10.302   1.652 123.922  0.00  0.00    +0.000 OA
BRANCH  23  25
ATOM     25  O   UNL     1      -8.562   0.272 123.880  0.00  0.00    +0.000 OA
ATOM     26  H   UNL     1      -9.060  -0.509 124.193  0.00  0.00    +0.000 HD
ENDBRANCH  23  25
ENDBRANCH   5  23
BRANCH   4  27
ATOM     27  C   UNL     1      -7.636   3.386 122.410  0.00  0.00    +0.000 C 
BRANCH  27  28
ATOM     28  S   UNL     1      -6.137   2.831 121.529  0.00  0.00    +0.000 S 
BRANCH  28  29
ATOM     29  C   UNL     1      -5.400   4.266 120.934  0.00  0.00    +0.000 A 
ATOM     30  N   UNL     1      -4.530   5.011 121.578  0.00  0.00    +0.000 NA
ATOM     31  N   UNL     1      -4.408   6.169 120.842  0.00  0.00    +0.000 NA
ATOM     32  N   UNL     1      -5.206   6.146 119.782  0.00  0.00    +0.000 NA
ATOM     33  N   UNL     1      -5.828   4.956 119.839  0.00  0.00    +0.000 N 
ATOM     34  C   UNL     1      -6.817   4.597 118.864  0.00  0.00    +0.000 C 
ENDBRANCH  28  29
ENDBRANCH  27  28
ENDBRANCH   4  27
TORSDOF 9
ENDMDL
MODEL 9
REMARK VINA RESULT:      -7.3      5.505      8.902
REMARK  Name = Cefamandole
REMARK  10 active torsions:
REMARK  status: ('A' for Active; 'I' for Inactive)
REMARK    1  A    between atoms: C_5  and  C_6
REMARK    2  A    between atoms: C_6  and  S_7
REMARK    3  A    between atoms: S_7  and  C_8
REMARK    4  A    between atoms: N_12  and  C_13
REMARK    5  A    between atoms: CA_14  and  C_30
REMARK    6  A    between atoms: CA_18  and  N_19
REMARK    7  A    between atoms: C_20  and  C_22
REMARK    8  A    between atoms: C_22  and  O_23
REMARK    9  A    between atoms: C_22  and  C_24
REMARK   10  A    between atoms: C_30  and  O_31
REMARK                            x       y       z     vdW  Elec       q    Type
REMARK                         _______ _______ _______ _____ _____    ______ ____
ROOT
ATOM      1  C   UNL     1      -6.900   1.634 127.046  0.00  0.00    +0.000 C 
ATOM      2  S   UNL     1      -5.299   1.873 126.273  0.00  0.00    +0.000 S 
ATOM      3  C   UNL     1      -5.945   3.128 125.135  0.00  0.00    +0.000 C 
ATOM      4  C   UNL     1      -7.148   2.682 124.317  0.00  0.00    +0.000 C 
ATOM      5  CA  UNL     1      -8.008   1.719 124.772  0.00  0.00    +0.000 C 
ATOM      6  N   UNL     1      -7.869   1.196 126.043  0.00  0.00    +0.000 N 
ATOM      7  C   UNL     1      -7.935  -0.090 126.485  0.00  0.00    +0.000 C 
ATOM      8  O   UNL     1      -8.431  -1.053 125.962  0.00  0.00    +0.000 OA
ATOM      9  CA  UNL     1      -7.140   0.282 127.776  0.00  0.00    +0.000 C 
ENDROOT
BRANCH   9  10
ATOM     10  N   UNL     1      -6.007  -0.631 128.147  0.00  0.00    +0.000 N 
ATOM     11  C   UNL     1      -5.968  -1.104 129.459  0.00  0.00    +0.000 C 
ATOM     12  O   UNL     1      -6.906  -0.890 130.231  0.00  0.00    +0.000 OA
ATOM     13  H   UNL     1      -5.149  -0.642 127.600  0.00  0.00    +0.000 HD
BRANCH  11  14
ATOM     14  C   UNL     1      -4.641  -1.759 129.943  0.00  0.00    +0.000 C 
BRANCH  14  15
ATOM     15  C   UNL     1      -4.876  -2.954 130.854  0.00  0.00    +0.000 A 
ATOM     16  C   UNL     1      -4.424  -2.947 132.184  0.00  0.00    +0.000 A 
ATOM     17  C   UNL     1      -4.468  -4.121 132.945  0.00  0.00    +0.000 A 
ATOM     18  C   UNL     1      -5.060  -5.275 132.431  0.00  0.00    +0.000 A 
ATOM     19  C   UNL     1      -5.560  -5.279 131.139  0.00  0.00    +0.000 A 
ATOM     20  C   UNL     1      -5.449  -4.137 130.359  0.00  0.00    +0.000 A 
ENDBRANCH  14  15
BRANCH  14  21
ATOM     21  O   UNL     1      -3.902  -2.249 128.819  0.00  0.00    +0.000 OA
ATOM     22  H   UNL     1      -3.055  -1.763 128.816  0.00  0.00    +0.000 HD
ENDBRANCH  14  21
ENDBRANCH  11  14
ENDBRANCH   9  10
BRANCH   5  23
ATOM     23  C   UNL     1      -9.161   1.262 123.881  0.00  0.00    +0.000 C 
ATOM     24  OXT UNL     1     -10.279   1.762 123.920  0.00  0.00    +0.000 OA
BRANCH  23  25
ATOM     25  O   UNL     1      -8.947   0.179 123.111  0.00  0.00    +0.000 OA
ATOM     26  H   UNL     1      -9.337  -0.666 123.415  0.00  0.00    +0.000 HD
ENDBRANCH  23  25
ENDBRANCH   5  23
BRANCH   4  27
ATOM     27  C   UNL     1      -7.326   3.373 122.941  0.00  0.00    +0.000 C 
BRANCH  27  28
ATOM     28  S   UNL     1      -6.169   2.799 121.652  0.00  0.00    +0.000 S 
BRANCH  28  29
ATOM     29  C   UNL     1      -5.386   4.219 121.078  0.00  0.00    +0.000 A 
ATOM     30  N   UNL     1      -4.530   4.954 121.751  0.00  0.00    +0.000 NA
ATOM     31  N   UNL     1      -4.360   6.105 121.014  0.00  0.00    +0.000 NA
ATOM     32  N   UNL     1      -5.116   6.087 119.923  0.00  0.00    +0.000 NA
ATOM     33  N   UNL     1      -5.760   4.908 119.963  0.00  0.00    +0.000 N 
ATOM     34  C   UNL     1      -6.714   4.558 118.952  0.00  0.00    +0.000 C 
ENDBRANCH  28  29
ENDBRANCH  27  28
ENDBRANCH   4  27
TORSDOF 9
ENDMDL
