MODEL 1
REMARK VINA RESULT:      -8.2      0.000      0.000
REMARK  Name = Cefditoren
REMARK  10 active torsions:
REMARK  status: ('A' for Active; 'I' for Inactive)
REMARK    1  A    between atoms: C_5  and  C_6
REMARK    2  A    between atoms: C_7  and  C_8
REMARK    3  A    between atoms: C_9  and  C_10
REMARK    4  A    between atoms: CA_14  and  C_32
REMARK    5  A    between atoms: CA_18  and  N_19
REMARK    6  A    between atoms: C_20  and  C_22
REMARK    7  A    between atoms: C_22  and  C_26
REMARK    8  A    between atoms: N_23  and  O_24
REMARK    9  A    between atoms: O_24  and  C_25
REMARK   10  A    between atoms: C_32  and  O_33
REMARK                            x       y       z     vdW  Elec       q    Type
REMARK                         _______ _______ _______ _____ _____    ______ ____
ROOT
ATOM      1  C   UNL     1      -6.613   2.736 126.945  0.00  0.00    +0.000 C 
ATOM      2  S   UNL     1      -7.302   1.137 127.181  0.00  0.00    +0.000 S 
ATOM      3  C   UNL     1      -6.404   0.537 125.726  0.00  0.00    +0.000 C 
ATOM      4  C   UNL     1      -6.711   1.221 124.399  0.00  0.00    +0.000 C 
ATOM      5  CA  UNL     1      -6.964   2.567 124.410  0.00  0.00    +0.000 C 
ATOM      6  N   UNL     1      -6.984   3.263 125.625  0.00  0.00    +0.000 N 
ATOM      7  C   UNL     1      -7.827   4.200 126.124  0.00  0.00    +0.000 C 
ATOM      8  O   UNL     1      -8.587   4.950 125.533  0.00  0.00    +0.000 OA
ATOM      9  CA  UNL     1      -7.367   3.922 127.590  0.00  0.00    +0.000 C 
ENDROOT
BRANCH   9  10
ATOM     10  N   UNL     1      -8.400   3.693 128.679  0.00  0.00    +0.000 N 
ATOM     11  C   UNL     1      -8.618   4.704 129.626  0.00  0.00    +0.000 C 
ATOM     12  O   UNL     1      -7.864   5.670 129.696  0.00  0.00    +0.000 OA
ATOM     13  H   UNL     1      -9.023   2.893 128.645  0.00  0.00    +0.000 HD
BRANCH  11  14
ATOM     14  C   UNL     1      -9.826   4.586 130.595  0.00  0.00    +0.000 C 
ATOM     15  N   UNL     1      -9.921   3.618 131.476  0.00  0.00    +0.000 NA
BRANCH  14  16
ATOM     16  C   UNL     1     -10.954   5.540 130.553  0.00  0.00    +0.000 A 
ATOM     17  C   UNL     1     -11.380   6.342 131.597  0.00  0.00    +0.000 A 
ATOM     18  S   UNL     1     -12.732   7.289 131.132  0.00  0.00    +0.000 S 
ATOM     19  C   UNL     1     -12.664   6.606 129.563  0.00  0.00    +0.000 A 
ATOM     20  N   UNL     1     -13.529   6.965 128.608  0.00  0.00    +0.000 N 
ATOM     21  N   UNL     1     -11.719   5.716 129.389  0.00  0.00    +0.000 NA
ATOM     22  H   UNL     1     -14.254   7.655 128.756  0.00  0.00    +0.000 HD
ATOM     23  H   UNL     1     -13.455   6.554 127.686  0.00  0.00    +0.000 HD
ENDBRANCH  14  16
BRANCH  15  24
ATOM     24  O   UNL     1      -8.826   2.736 131.441  0.00  0.00    +0.000 OA
ATOM     25  C   UNL     1      -9.263   1.406 131.724  0.00  0.00    +0.000 C 
ENDBRANCH  15  24
ENDBRANCH  11  14
ENDBRANCH   9  10
BRANCH   4  26
ATOM     26  C   UNL     1      -6.701   0.334 123.177  0.00  0.00    +0.000 C 
ATOM     27  C   UNL     1      -6.989  -0.974 122.983  0.00  0.00    +0.000 C 
BRANCH  27  28
ATOM     28  C   UNL     1      -7.532  -1.828 123.978  0.00  0.00    +0.000 A 
ATOM     29  C   UNL     1      -6.987  -2.989 124.539  0.00  0.00    +0.000 A 
ATOM     30  C   UNL     1      -5.670  -3.612 124.140  0.00  0.00    +0.000 C 
ATOM     31  N   UNL     1      -7.930  -3.798 125.175  0.00  0.00    +0.000 NA
ATOM     32  C   UNL     1      -9.090  -3.179 125.238  0.00  0.00    +0.000 A 
ATOM     33  S   UNL     1      -9.154  -1.624 124.524  0.00  0.00    +0.000 S 
ENDBRANCH  27  28
ENDBRANCH   4  26
BRANCH   5  34
ATOM     34  C   UNL     1      -7.183   3.330 123.097  0.00  0.00    +0.000 C 
ATOM     35  OXT UNL     1      -6.302   3.820 122.409  0.00  0.00    +0.000 OA
BRANCH  34  36
ATOM     36  O   UNL     1      -8.468   3.575 122.771  0.00  0.00    +0.000 OA
ATOM     37  H   UNL     1      -9.134   3.034 123.228  0.00  0.00    +0.000 HD
ENDBRANCH  34  36
ENDBRANCH   5  34
TORSDOF 8
ENDMDL
MODEL 2
REMARK VINA RESULT:      -8.0      4.059      4.850
REMARK  Name = Cefditoren
REMARK  10 active torsions:
REMARK  status: ('A' for Active; 'I' for Inactive)
REMARK    1  A    between atoms: C_5  and  C_6
REMARK    2  A    between atoms: C_7  and  C_8
REMARK    3  A    between atoms: C_9  and  C_10
REMARK    4  A    between atoms: CA_14  and  C_32
REMARK    5  A    between atoms: CA_18  and  N_19
REMARK    6  A    between atoms: C_20  and  C_22
REMARK    7  A    between atoms: C_22  and  C_26
REMARK    8  A    between atoms: N_23  and  O_24
REMARK    9  A    between atoms: O_24  and  C_25
REMARK   10  A    between atoms: C_32  and  O_33
REMARK                            x       y       z     vdW  Elec       q    Type
REMARK                         _______ _______ _______ _____ _____    ______ ____
ROOT
ATOM      1  C   UNL     1      -7.279   1.489 129.629  0.00  0.00    +0.000 C 
ATOM      2  S   UNL     1      -8.179   0.870 131.005  0.00  0.00    +0.000 S 
ATOM      3  C   UNL     1      -7.397  -0.750 130.786  0.00  0.00    +0.000 C 
ATOM      4  C   UNL     1      -7.629  -1.449 129.452  0.00  0.00    +0.000 C 
ATOM      5  CA  UNL     1      -7.693  -0.679 128.321  0.00  0.00    +0.000 C 
ATOM      6  N   UNL     1      -7.596   0.715 128.421  0.00  0.00    +0.000 N 
ATOM      7  C   UNL     1      -8.292   1.720 127.837  0.00  0.00    +0.000 C 
ATOM      8  O   UNL     1      -8.950   1.709 126.809  0.00  0.00    +0.000 OA
ATOM      9  CA  UNL     1      -7.850   2.744 128.929  0.00  0.00    +0.000 C 
ENDROOT
BRANCH   9  10
ATOM     10  N   UNL     1      -8.887   3.617 129.614  0.00  0.00    +0.000 N 
ATOM     11  C   UNL     1      -8.599   4.975 129.817  0.00  0.00    +0.000 C 
ATOM     12  O   UNL     1      -7.468   5.411 129.623  0.00  0.00    +0.000 OA
ATOM     13  H   UNL     1      -9.823   3.270 129.794  0.00  0.00    +0.000 HD
BRANCH  11  14
ATOM     14  C   UNL     1      -9.730   5.926 130.295  0.00  0.00    +0.000 C 
ATOM     15  N   UNL     1     -10.108   5.982 131.550  0.00  0.00    +0.000 NA
BRANCH  14  16
ATOM     16  C   UNL     1     -10.466   6.796 129.354  0.00  0.00    +0.000 A 
ATOM     17  C   UNL     1     -11.475   7.682 129.686  0.00  0.00    +0.000 A 
ATOM     18  S   UNL     1     -12.072   8.484 128.293  0.00  0.00    +0.000 S 
ATOM     19  C   UNL     1     -10.942   7.634 127.326  0.00  0.00    +0.000 A 
ATOM     20  N   UNL     1     -10.869   7.828 126.005  0.00  0.00    +0.000 N 
ATOM     21  N   UNL     1     -10.181   6.792 127.979  0.00  0.00    +0.000 NA
ATOM     22  H   UNL     1     -11.463   8.484 125.514  0.00  0.00    +0.000 HD
ATOM     23  H   UNL     1     -10.181   7.322 125.462  0.00  0.00    +0.000 HD
ENDBRANCH  14  16
BRANCH  15  24
ATOM     24  O   UNL     1      -9.382   5.110 132.381  0.00  0.00    +0.000 OA
ATOM     25  C   UNL     1      -8.629   5.860 133.334  0.00  0.00    +0.000 C 
ENDBRANCH  15  24
ENDBRANCH  11  14
ENDBRANCH   9  10
BRANCH   4  26
ATOM     26  C   UNL     1      -7.762  -2.952 129.505  0.00  0.00    +0.000 C 
ATOM     27  C   UNL     1      -6.862  -3.956 129.629  0.00  0.00    +0.000 C 
BRANCH  27  28
ATOM     28  C   UNL     1      -5.480  -3.761 129.884  0.00  0.00    +0.000 A 
ATOM     29  C   UNL     1      -4.746  -4.045 131.042  0.00  0.00    +0.000 A 
ATOM     30  C   UNL     1      -5.325  -4.601 132.323  0.00  0.00    +0.000 C 
ATOM     31  N   UNL     1      -3.527  -3.370 131.112  0.00  0.00    +0.000 NA
ATOM     32  C   UNL     1      -3.286  -2.753 129.975  0.00  0.00    +0.000 A 
ATOM     33  S   UNL     1      -4.491  -2.896 128.767  0.00  0.00    +0.000 S 
ENDBRANCH  27  28
ENDBRANCH   4  26
BRANCH   5  34
ATOM     34  C   UNL     1      -7.825  -1.331 126.939  0.00  0.00    +0.000 C 
ATOM     35  OXT UNL     1      -6.906  -1.801 126.288  0.00  0.00    +0.000 OA
BRANCH  34  36
ATOM     36  O   UNL     1      -9.043  -1.247 126.368  0.00  0.00    +0.000 OA
ATOM     37  H   UNL     1      -9.088  -0.750 125.532  0.00  0.00    +0.000 HD
ENDBRANCH  34  36
ENDBRANCH   5  34
TORSDOF 8
ENDMDL
MODEL 3
REMARK VINA RESULT:      -7.7      3.099      3.907
REMARK  Name = Cefditoren
REMARK  10 active torsions:
REMARK  status: ('A' for Active; 'I' for Inactive)
REMARK    1  A    between atoms: C_5  and  C_6
REMARK    2  A    between atoms: C_7  and  C_8
REMARK    3  A    between atoms: C_9  and  C_10
REMARK    4  A    between atoms: CA_14  and  C_32
REMARK    5  A    between atoms: CA_18  and  N_19
REMARK    6  A    between atoms: C_20  and  C_22
REMARK    7  A    between atoms: C_22  and  C_26
REMARK    8  A    between atoms: N_23  and  O_24
REMARK    9  A    between atoms: O_24  and  C_25
REMARK   10  A    between atoms: C_32  and  O_33
REMARK                            x       y       z     vdW  Elec       q    Type
REMARK                         _______ _______ _______ _____ _____    ______ ____
ROOT
ATOM      1  C   UNL     1      -8.507   1.702 128.728  0.00  0.00    +0.000 C 
ATOM      2  S   UNL     1      -8.143   2.709 127.335  0.00  0.00    +0.000 S 
ATOM      3  C   UNL     1      -7.516   1.257 126.451  0.00  0.00    +0.000 C 
ATOM      4  C   UNL     1      -6.342   0.521 127.084  0.00  0.00    +0.000 C 
ATOM      5  CA  UNL     1      -6.296   0.432 128.450  0.00  0.00    +0.000 C 
ATOM      6  N   UNL     1      -7.286   1.052 129.223  0.00  0.00    +0.000 N 
ATOM      7  C   UNL     1      -7.225   1.797 130.352  0.00  0.00    +0.000 C 
ATOM      8  O   UNL     1      -6.350   1.845 131.201  0.00  0.00    +0.000 OA
ATOM      9  CA  UNL     1      -8.635   2.417 130.093  0.00  0.00    +0.000 C 
ENDROOT
BRANCH   9  10
ATOM     10  N   UNL     1      -8.828   3.921 130.171  0.00  0.00    +0.000 N 
ATOM     11  C   UNL     1     -10.128   4.428 130.315  0.00  0.00    +0.000 C 
ATOM     12  O   UNL     1     -11.104   3.694 130.189  0.00  0.00    +0.000 OA
ATOM     13  H   UNL     1      -8.033   4.544 130.263  0.00  0.00    +0.000 HD
BRANCH  11  14
ATOM     14  C   UNL     1     -10.322   5.936 130.634  0.00  0.00    +0.000 C 
ATOM     15  N   UNL     1     -10.139   6.421 131.839  0.00  0.00    +0.000 NA
BRANCH  14  16
ATOM     16  C   UNL     1     -10.758   6.901 129.604  0.00  0.00    +0.000 A 
ATOM     17  C   UNL     1     -10.329   6.937 128.289  0.00  0.00    +0.000 A 
ATOM     18  S   UNL     1     -11.071   8.225 127.435  0.00  0.00    +0.000 S 
ATOM     19  C   UNL     1     -11.945   8.650 128.846  0.00  0.00    +0.000 A 
ATOM     20  N   UNL     1     -12.805   9.674 128.852  0.00  0.00    +0.000 N 
ATOM     21  N   UNL     1     -11.695   7.906 129.894  0.00  0.00    +0.000 NA
ATOM     22  H   UNL     1     -12.990  10.239 128.033  0.00  0.00    +0.000 HD
ATOM     23  H   UNL     1     -13.318   9.892 129.697  0.00  0.00    +0.000 HD
ENDBRANCH  14  16
BRANCH  15  24
ATOM     24  O   UNL     1      -9.751   5.442 132.772  0.00  0.00    +0.000 OA
ATOM     25  C   UNL     1      -8.494   5.794 133.352  0.00  0.00    +0.000 C 
ENDBRANCH  15  24
ENDBRANCH  11  14
ENDBRANCH   9  10
BRANCH   4  26
ATOM     26  C   UNL     1      -5.325  -0.054 126.127  0.00  0.00    +0.000 C 
ATOM     27  C   UNL     1      -5.323  -1.148 125.329  0.00  0.00    +0.000 C 
BRANCH  27  28
ATOM     28  C   UNL     1      -6.447  -1.989 125.126  0.00  0.00    +0.000 A 
ATOM     29  C   UNL     1      -7.100  -2.319 123.932  0.00  0.00    +0.000 A 
ATOM     30  C   UNL     1      -6.740  -1.779 122.567  0.00  0.00    +0.000 C 
ATOM     31  N   UNL     1      -8.387  -2.825 124.119  0.00  0.00    +0.000 NA
ATOM     32  C   UNL     1      -8.612  -3.029 125.400  0.00  0.00    +0.000 A 
ATOM     33  S   UNL     1      -7.340  -2.607 126.466  0.00  0.00    +0.000 S 
ENDBRANCH  27  28
ENDBRANCH   4  26
BRANCH   5  34
ATOM     34  C   UNL     1      -5.193  -0.378 129.142  0.00  0.00    +0.000 C 
ATOM     35  OXT UNL     1      -5.282  -1.548 129.482  0.00  0.00    +0.000 OA
BRANCH  34  36
ATOM     36  O   UNL     1      -4.098   0.317 129.509  0.00  0.00    +0.000 OA
ATOM     37  H   UNL     1      -4.116   1.271 129.317  0.00  0.00    +0.000 HD
ENDBRANCH  34  36
ENDBRANCH   5  34
TORSDOF 8
ENDMDL
MODEL 4
REMARK VINA RESULT:      -7.5      4.496      9.150
REMARK  Name = Cefditoren
REMARK  10 active torsions:
REMARK  status: ('A' for Active; 'I' for Inactive)
REMARK    1  A    between atoms: C_5  and  C_6
REMARK    2  A    between atoms: C_7  and  C_8
REMARK    3  A    between atoms: C_9  and  C_10
REMARK    4  A    between atoms: CA_14  and  C_32
REMARK    5  A    between atoms: CA_18  and  N_19
REMARK    6  A    between atoms: C_20  and  C_22
REMARK    7  A    between atoms: C_22  and  C_26
REMARK    8  A    between atoms: N_23  and  O_24
REMARK    9  A    between atoms: O_24  and  C_25
REMARK   10  A    between atoms: C_32  and  O_33
REMARK                            x       y       z     vdW  Elec       q    Type
REMARK                         _______ _______ _______ _____ _____    ______ ____
ROOT
ATOM      1  C   UNL     1      -8.921   1.744 130.947  0.00  0.00    +0.000 C 
ATOM      2  S   UNL     1      -8.253   2.350 132.455  0.00  0.00    +0.000 S 
ATOM      3  C   UNL     1      -8.939   3.988 132.098  0.00  0.00    +0.000 C 
ATOM      4  C   UNL     1      -8.464   4.670 130.821  0.00  0.00    +0.000 C 
ATOM      5  CA  UNL     1      -8.229   3.888 129.721  0.00  0.00    +0.000 C 
ATOM      6  N   UNL     1      -8.381   2.498 129.808  0.00  0.00    +0.000 N 
ATOM      7  C   UNL     1      -7.624   1.470 129.356  0.00  0.00    +0.000 C 
ATOM      8  O   UNL     1      -6.799   1.454 128.456  0.00  0.00    +0.000 OA
ATOM      9  CA  UNL     1      -8.274   0.468 130.360  0.00  0.00    +0.000 C 
ENDROOT
BRANCH   9  10
ATOM     10  N   UNL     1      -7.395  -0.427 131.216  0.00  0.00    +0.000 N 
ATOM     11  C   UNL     1      -7.372  -1.804 130.951  0.00  0.00    +0.000 C 
ATOM     12  O   UNL     1      -8.182  -2.307 130.176  0.00  0.00    +0.000 OA
ATOM     13  H   UNL     1      -6.729  -0.030 131.871  0.00  0.00    +0.000 HD
BRANCH  11  14
ATOM     14  C   UNL     1      -6.309  -2.693 131.652  0.00  0.00    +0.000 C 
ATOM     15  N   UNL     1      -5.078  -2.788 131.207  0.00  0.00    +0.000 NA
BRANCH  14  16
ATOM     16  C   UNL     1      -6.636  -3.509 132.840  0.00  0.00    +0.000 A 
ATOM     17  C   UNL     1      -5.856  -4.521 133.371  0.00  0.00    +0.000 A 
ATOM     18  S   UNL     1      -6.610  -5.224 134.741  0.00  0.00    +0.000 S 
ATOM     19  C   UNL     1      -7.918  -4.130 134.575  0.00  0.00    +0.000 A 
ATOM     20  N   UNL     1      -8.950  -4.142 135.426  0.00  0.00    +0.000 N 
ATOM     21  N   UNL     1      -7.824  -3.308 133.560  0.00  0.00    +0.000 NA
ATOM     22  H   UNL     1      -9.009  -4.783 136.206  0.00  0.00    +0.000 HD
ATOM     23  H   UNL     1      -9.702  -3.474 135.310  0.00  0.00    +0.000 HD
ENDBRANCH  14  16
BRANCH  15  24
ATOM     24  O   UNL     1      -4.847  -2.006 130.061  0.00  0.00    +0.000 OA
ATOM     25  C   UNL     1      -3.867  -1.006 130.343  0.00  0.00    +0.000 C 
ENDBRANCH  15  24
ENDBRANCH  11  14
ENDBRANCH   9  10
BRANCH   4  26
ATOM     26  C   UNL     1      -8.299   6.169 130.890  0.00  0.00    +0.000 C 
ATOM     27  C   UNL     1      -9.126   7.203 130.608  0.00  0.00    +0.000 C 
BRANCH  27  28
ATOM     28  C   UNL     1     -10.497   7.060 130.273  0.00  0.00    +0.000 A 
ATOM     29  C   UNL     1     -11.169   7.457 129.110  0.00  0.00    +0.000 A 
ATOM     30  C   UNL     1     -10.538   8.192 127.950  0.00  0.00    +0.000 C 
ATOM     31  N   UNL     1     -12.553   7.539 129.264  0.00  0.00    +0.000 NA
ATOM     32  C   UNL     1     -12.908   7.053 130.435  0.00  0.00    +0.000 A 
ATOM     33  S   UNL     1     -11.635   6.502 131.441  0.00  0.00    +0.000 S 
ENDBRANCH  27  28
ENDBRANCH   4  26
BRANCH   5  34
ATOM     34  C   UNL     1      -7.843   4.524 128.380  0.00  0.00    +0.000 C 
ATOM     35  OXT UNL     1      -8.629   4.914 127.530  0.00  0.00    +0.000 OA
BRANCH  34  36
ATOM     36  O   UNL     1      -6.527   4.522 128.088  0.00  0.00    +0.000 OA
ATOM     37  H   UNL     1      -6.271   4.989 127.274  0.00  0.00    +0.000 HD
ENDBRANCH  34  36
ENDBRANCH   5  34
TORSDOF 8
ENDMDL
MODEL 5
REMARK VINA RESULT:      -7.5      3.321      5.679
REMARK  Name = Cefditoren
REMARK  10 active torsions:
REMARK  status: ('A' for Active; 'I' for Inactive)
REMARK    1  A    between atoms: C_5  and  C_6
REMARK    2  A    between atoms: C_7  and  C_8
REMARK    3  A    between atoms: C_9  and  C_10
REMARK    4  A    between atoms: CA_14  and  C_32
REMARK    5  A    between atoms: CA_18  and  N_19
REMARK    6  A    between atoms: C_20  and  C_22
REMARK    7  A    between atoms: C_22  and  C_26
REMARK    8  A    between atoms: N_23  and  O_24
REMARK    9  A    between atoms: O_24  and  C_25
REMARK   10  A    between atoms: C_32  and  O_33
REMARK                            x       y       z     vdW  Elec       q    Type
REMARK                         _______ _______ _______ _____ _____    ______ ____
ROOT
ATOM      1  C   UNL     1      -7.958   1.619 132.514  0.00  0.00    +0.000 C 
ATOM      2  S   UNL     1      -9.015   0.621 131.525  0.00  0.00    +0.000 S 
ATOM      3  C   UNL     1      -8.240  -0.869 132.203  0.00  0.00    +0.000 C 
ATOM      4  C   UNL     1      -6.742  -1.030 131.973  0.00  0.00    +0.000 C 
ATOM      5  CA  UNL     1      -5.960   0.094 132.002  0.00  0.00    +0.000 C 
ATOM      6  N   UNL     1      -6.551   1.350 132.189  0.00  0.00    +0.000 N 
ATOM      7  C   UNL     1      -6.357   2.547 131.584  0.00  0.00    +0.000 C 
ATOM      8  O   UNL     1      -5.387   2.951 130.963  0.00  0.00    +0.000 OA
ATOM      9  CA  UNL     1      -7.747   3.079 132.054  0.00  0.00    +0.000 C 
ENDROOT
BRANCH   9  10
ATOM     10  N   UNL     1      -8.688   3.729 131.055  0.00  0.00    +0.000 N 
ATOM     11  C   UNL     1      -8.688   5.126 130.937  0.00  0.00    +0.000 C 
ATOM     12  O   UNL     1      -8.086   5.824 131.748  0.00  0.00    +0.000 OA
ATOM     13  H   UNL     1      -9.204   3.168 130.385  0.00  0.00    +0.000 HD
BRANCH  11  14
ATOM     14  C   UNL     1      -9.463   5.787 129.764  0.00  0.00    +0.000 C 
ATOM     15  N   UNL     1      -9.072   5.670 128.517  0.00  0.00    +0.000 NA
BRANCH  14  16
ATOM     16  C   UNL     1     -10.665   6.615 129.993  0.00  0.00    +0.000 A 
ATOM     17  C   UNL     1     -11.610   6.421 130.986  0.00  0.00    +0.000 A 
ATOM     18  S   UNL     1     -12.854   7.597 130.889  0.00  0.00    +0.000 S 
ATOM     19  C   UNL     1     -12.060   8.319 129.553  0.00  0.00    +0.000 A 
ATOM     20  N   UNL     1     -12.558   9.403 128.949  0.00  0.00    +0.000 N 
ATOM     21  N   UNL     1     -10.956   7.723 129.180  0.00  0.00    +0.000 NA
ATOM     22  H   UNL     1     -13.412   9.854 129.249  0.00  0.00    +0.000 HD
ATOM     23  H   UNL     1     -12.059   9.816 128.171  0.00  0.00    +0.000 HD
ENDBRANCH  14  16
BRANCH  15  24
ATOM     24  O   UNL     1      -7.908   4.892 128.379  0.00  0.00    +0.000 OA
ATOM     25  C   UNL     1      -7.891   4.267 127.094  0.00  0.00    +0.000 C 
ENDBRANCH  15  24
ENDBRANCH  11  14
ENDBRANCH   9  10
BRANCH   4  26
ATOM     26  C   UNL     1      -6.254  -2.439 131.736  0.00  0.00    +0.000 C 
ATOM     27  C   UNL     1      -6.117  -3.194 130.620  0.00  0.00    +0.000 C 
BRANCH  27  28
ATOM     28  C   UNL     1      -6.313  -2.710 129.301  0.00  0.00    +0.000 A 
ATOM     29  C   UNL     1      -7.445  -2.807 128.484  0.00  0.00    +0.000 A 
ATOM     30  C   UNL     1      -8.726  -3.521 128.853  0.00  0.00    +0.000 C 
ATOM     31  N   UNL     1      -7.178  -2.598 127.130  0.00  0.00    +0.000 NA
ATOM     32  C   UNL     1      -5.938  -2.188 126.972  0.00  0.00    +0.000 A 
ATOM     33  S   UNL     1      -4.998  -2.057 128.398  0.00  0.00    +0.000 S 
ENDBRANCH  27  28
ENDBRANCH   4  26
BRANCH   5  34
ATOM     34  C   UNL     1      -4.435  -0.013 131.875  0.00  0.00    +0.000 C 
ATOM     35  OXT UNL     1      -3.665  -0.261 132.789  0.00  0.00    +0.000 OA
BRANCH  34  36
ATOM     36  O   UNL     1      -3.923   0.326 130.676  0.00  0.00    +0.000 OA
ATOM     37  H   UNL     1      -3.031   0.716 130.688  0.00  0.00    +0.000 HD
ENDBRANCH  34  36
ENDBRANCH   5  34
TORSDOF 8
ENDMDL
MODEL 6
REMARK VINA RESULT:      -7.5      2.498      3.479
REMARK  Name = Cefditoren
REMARK  10 active torsions:
REMARK  status: ('A' for Active; 'I' for Inactive)
REMARK    1  A    between atoms: C_5  and  C_6
REMARK    2  A    between atoms: C_7  and  C_8
REMARK    3  A    between atoms: C_9  and  C_10
REMARK    4  A    between atoms: CA_14  and  C_32
REMARK    5  A    between atoms: CA_18  and  N_19
REMARK    6  A    between atoms: C_20  and  C_22
REMARK    7  A    between atoms: C_22  and  C_26
REMARK    8  A    between atoms: N_23  and  O_24
REMARK    9  A    between atoms: O_24  and  C_25
REMARK   10  A    between atoms: C_32  and  O_33
REMARK                            x       y       z     vdW  Elec       q    Type
REMARK                         _______ _______ _______ _____ _____    ______ ____
ROOT
ATOM      1  C   UNL     1      -6.964   1.792 127.123  0.00  0.00    +0.000 C 
ATOM      2  S   UNL     1      -8.477   1.005 127.547  0.00  0.00    +0.000 S 
ATOM      3  C   UNL     1      -8.404   0.043 126.013  0.00  0.00    +0.000 C 
ATOM      4  C   UNL     1      -8.389   0.830 124.709  0.00  0.00    +0.000 C 
ATOM      5  CA  UNL     1      -7.710   2.019 124.679  0.00  0.00    +0.000 C 
ATOM      6  N   UNL     1      -7.097   2.501 125.843  0.00  0.00    +0.000 N 
ATOM      7  C   UNL     1      -7.052   3.733 126.404  0.00  0.00    +0.000 C 
ATOM      8  O   UNL     1      -7.226   4.825 125.888  0.00  0.00    +0.000 OA
ATOM      9  CA  UNL     1      -6.670   3.150 127.801  0.00  0.00    +0.000 C 
ENDROOT
BRANCH   9  10
ATOM     10  N   UNL     1      -7.432   3.586 129.040  0.00  0.00    +0.000 N 
ATOM     11  C   UNL     1      -7.010   4.737 129.722  0.00  0.00    +0.000 C 
ATOM     12  O   UNL     1      -5.941   5.273 129.445  0.00  0.00    +0.000 OA
ATOM     13  H   UNL     1      -8.311   3.146 129.292  0.00  0.00    +0.000 HD
BRANCH  11  14
ATOM     14  C   UNL     1      -7.912   5.328 130.840  0.00  0.00    +0.000 C 
ATOM     15  N   UNL     1      -8.987   6.029 130.570  0.00  0.00    +0.000 NA
BRANCH  14  16
ATOM     16  C   UNL     1      -7.587   5.162 132.272  0.00  0.00    +0.000 A 
ATOM     17  C   UNL     1      -6.590   4.355 132.792  0.00  0.00    +0.000 A 
ATOM     18  S   UNL     1      -6.562   4.441 134.505  0.00  0.00    +0.000 S 
ATOM     19  C   UNL     1      -7.854   5.565 134.465  0.00  0.00    +0.000 A 
ATOM     20  N   UNL     1      -8.357   6.090 135.588  0.00  0.00    +0.000 N 
ATOM     21  N   UNL     1      -8.301   5.849 133.268  0.00  0.00    +0.000 NA
ATOM     22  H   UNL     1      -8.000   5.862 136.507  0.00  0.00    +0.000 HD
ATOM     23  H   UNL     1      -9.111   6.762 135.532  0.00  0.00    +0.000 HD
ENDBRANCH  14  16
BRANCH  15  24
ATOM     24  O   UNL     1      -9.219   6.167 129.189  0.00  0.00    +0.000 OA
ATOM     25  C   UNL     1     -10.249   7.129 128.962  0.00  0.00    +0.000 C 
ENDBRANCH  15  24
ENDBRANCH  11  14
ENDBRANCH   9  10
BRANCH   4  26
ATOM     26  C   UNL     1      -9.133   0.209 123.551  0.00  0.00    +0.000 C 
ATOM     27  C   UNL     1      -8.944  -0.922 122.831  0.00  0.00    +0.000 C 
BRANCH  27  28
ATOM     28  C   UNL     1      -7.976  -1.912 123.140  0.00  0.00    +0.000 A 
ATOM     29  C   UNL     1      -8.100  -3.047 123.950  0.00  0.00    +0.000 A 
ATOM     30  C   UNL     1      -9.340  -3.429 124.727  0.00  0.00    +0.000 C 
ATOM     31  N   UNL     1      -6.877  -3.573 124.366  0.00  0.00    +0.000 NA
ATOM     32  C   UNL     1      -5.888  -2.965 123.747  0.00  0.00    +0.000 A 
ATOM     33  S   UNL     1      -6.331  -1.713 122.665  0.00  0.00    +0.000 S 
ENDBRANCH  27  28
ENDBRANCH   4  26
BRANCH   5  34
ATOM     34  C   UNL     1      -7.576   2.808 123.371  0.00  0.00    +0.000 C 
ATOM     35  OXT UNL     1      -6.724   2.623 122.517  0.00  0.00    +0.000 OA
BRANCH  34  36
ATOM     36  O   UNL     1      -8.397   3.870 123.242  0.00  0.00    +0.000 OA
ATOM     37  H   UNL     1      -9.293   3.678 122.916  0.00  0.00    +0.000 HD
ENDBRANCH  34  36
ENDBRANCH   5  34
TORSDOF 8
ENDMDL
MODEL 7
REMARK VINA RESULT:      -7.2      3.638      8.972
REMARK  Name = Cefditoren
REMARK  10 active torsions:
REMARK  status: ('A' for Active; 'I' for Inactive)
REMARK    1  A    between atoms: C_5  and  C_6
REMARK    2  A    between atoms: C_7  and  C_8
REMARK    3  A    between atoms: C_9  and  C_10
REMARK    4  A    between atoms: CA_14  and  C_32
REMARK    5  A    between atoms: CA_18  and  N_19
REMARK    6  A    between atoms: C_20  and  C_22
REMARK    7  A    between atoms: C_22  and  C_26
REMARK    8  A    between atoms: N_23  and  O_24
REMARK    9  A    between atoms: O_24  and  C_25
REMARK   10  A    between atoms: C_32  and  O_33
REMARK                            x       y       z     vdW  Elec       q    Type
REMARK                         _______ _______ _______ _____ _____    ______ ____
ROOT
ATOM      1  C   UNL     1      -8.156   2.531 130.241  0.00  0.00    +0.000 C 
ATOM      2  S   UNL     1      -6.468   2.149 130.546  0.00  0.00    +0.000 S 
ATOM      3  C   UNL     1      -6.541   3.073 132.103  0.00  0.00    +0.000 C 
ATOM      4  C   UNL     1      -6.897   4.552 132.008  0.00  0.00    +0.000 C 
ATOM      5  CA  UNL     1      -7.810   4.937 131.062  0.00  0.00    +0.000 C 
ATOM      6  N   UNL     1      -8.348   3.986 130.185  0.00  0.00    +0.000 N 
ATOM      7  C   UNL     1      -8.577   4.007 128.850  0.00  0.00    +0.000 C 
ATOM      8  O   UNL     1      -8.709   4.962 128.102  0.00  0.00    +0.000 OA
ATOM      9  CA  UNL     1      -8.636   2.448 128.774  0.00  0.00    +0.000 C 
ENDROOT
BRANCH   9  10
ATOM     10  N   UNL     1      -7.824   1.708 127.726  0.00  0.00    +0.000 N 
ATOM     11  C   UNL     1      -8.478   1.216 126.588  0.00  0.00    +0.000 C 
ATOM     12  O   UNL     1      -9.704   1.210 126.523  0.00  0.00    +0.000 OA
ATOM     13  H   UNL     1      -6.810   1.691 127.770  0.00  0.00    +0.000 HD
BRANCH  11  14
ATOM     14  C   UNL     1      -7.633   0.671 125.404  0.00  0.00    +0.000 C 
ATOM     15  N   UNL     1      -6.827   1.441 124.712  0.00  0.00    +0.000 NA
BRANCH  14  16
ATOM     16  C   UNL     1      -7.718  -0.739 124.969  0.00  0.00    +0.000 A 
ATOM     17  C   UNL     1      -6.690  -1.664 125.007  0.00  0.00    +0.000 A 
ATOM     18  S   UNL     1      -7.206  -3.181 124.395  0.00  0.00    +0.000 S 
ATOM     19  C   UNL     1      -8.773  -2.538 124.139  0.00  0.00    +0.000 A 
ATOM     20  N   UNL     1      -9.761  -3.287 123.637  0.00  0.00    +0.000 N 
ATOM     21  N   UNL     1      -8.911  -1.276 124.461  0.00  0.00    +0.000 NA
ATOM     22  H   UNL     1      -9.640  -4.262 123.394  0.00  0.00    +0.000 HD
ATOM     23  H   UNL     1     -10.680  -2.883 123.511  0.00  0.00    +0.000 HD
ENDBRANCH  14  16
BRANCH  15  24
ATOM     24  O   UNL     1      -6.818   2.773 125.165  0.00  0.00    +0.000 OA
ATOM     25  C   UNL     1      -5.500   3.313 125.062  0.00  0.00    +0.000 C 
ENDBRANCH  15  24
ENDBRANCH  11  14
ENDBRANCH   9  10
BRANCH   4  26
ATOM     26  C   UNL     1      -6.201   5.466 132.987  0.00  0.00    +0.000 C 
ATOM     27  C   UNL     1      -4.994   6.079 132.981  0.00  0.00    +0.000 C 
BRANCH  27  28
ATOM     28  C   UNL     1      -4.104   6.076 131.876  0.00  0.00    +0.000 A 
ATOM     29  C   UNL     1      -2.968   5.287 131.659  0.00  0.00    +0.000 A 
ATOM     30  C   UNL     1      -2.419   4.267 132.630  0.00  0.00    +0.000 C 
ATOM     31  N   UNL     1      -2.104   5.805 130.693  0.00  0.00    +0.000 NA
ATOM     32  C   UNL     1      -2.659   6.836 130.094  0.00  0.00    +0.000 A 
ATOM     33  S   UNL     1      -4.216   7.284 130.651  0.00  0.00    +0.000 S 
ENDBRANCH  27  28
ENDBRANCH   4  26
BRANCH   5  34
ATOM     34  C   UNL     1      -8.282   6.394 130.982  0.00  0.00    +0.000 C 
ATOM     35  OXT UNL     1      -7.733   7.282 130.349  0.00  0.00    +0.000 OA
BRANCH  34  36
ATOM     36  O   UNL     1      -9.312   6.720 131.787  0.00  0.00    +0.000 OA
ATOM     37  H   UNL     1      -9.495   6.102 132.517  0.00  0.00    +0.000 HD
ENDBRANCH  34  36
ENDBRANCH   5  34
TORSDOF 8
ENDMDL
MODEL 8
REMARK VINA RESULT:      -7.2      5.029      6.588
REMARK  Name = Cefditoren
REMARK  10 active torsions:
REMARK  status: ('A' for Active; 'I' for Inactive)
REMARK    1  A    between atoms: C_5  and  C_6
REMARK    2  A    between atoms: C_7  and  C_8
REMARK    3  A    between atoms: C_9  and  C_10
REMARK    4  A    between atoms: CA_14  and  C_32
REMARK    5  A    between atoms: CA_18  and  N_19
REMARK    6  A    between atoms: C_20  and  C_22
REMARK    7  A    between atoms: C_22  and  C_26
REMARK    8  A    between atoms: N_23  and  O_24
REMARK    9  A    between atoms: O_24  and  C_25
REMARK   10  A    between atoms: C_32  and  O_33
REMARK                            x       y       z     vdW  Elec       q    Type
REMARK                         _______ _______ _______ _____ _____    ______ ____
ROOT
ATOM      1  C   UNL     1      -7.334   1.465 130.368  0.00  0.00    +0.000 C 
ATOM      2  S   UNL     1      -5.788   2.160 129.903  0.00  0.00    +0.000 S 
ATOM      3  C   UNL     1      -4.962   0.607 130.336  0.00  0.00    +0.000 C 
ATOM      4  C   UNL     1      -5.090   0.140 131.781  0.00  0.00    +0.000 C 
ATOM      5  CA  UNL     1      -6.274   0.366 132.430  0.00  0.00    +0.000 C 
ATOM      6  N   UNL     1      -7.306   1.055 131.778  0.00  0.00    +0.000 N 
ATOM      7  C   UNL     1      -8.143   2.039 132.187  0.00  0.00    +0.000 C 
ATOM      8  O   UNL     1      -8.471   2.355 133.319  0.00  0.00    +0.000 OA
ATOM      9  CA  UNL     1      -8.467   2.456 130.718  0.00  0.00    +0.000 C 
ENDROOT
BRANCH   9  10
ATOM     10  N   UNL     1      -8.383   3.916 130.308  0.00  0.00    +0.000 N 
ATOM     11  C   UNL     1      -9.541   4.705 130.376  0.00  0.00    +0.000 C 
ATOM     12  O   UNL     1     -10.638   4.191 130.576  0.00  0.00    +0.000 OA
ATOM     13  H   UNL     1      -7.486   4.355 130.126  0.00  0.00    +0.000 HD
BRANCH  11  14
ATOM     14  C   UNL     1      -9.422   6.242 130.192  0.00  0.00    +0.000 C 
ATOM     15  N   UNL     1      -8.619   6.972 130.928  0.00  0.00    +0.000 NA
BRANCH  14  16
ATOM     16  C   UNL     1     -10.236   6.973 129.198  0.00  0.00    +0.000 A 
ATOM     17  C   UNL     1     -10.206   6.788 127.827  0.00  0.00    +0.000 A 
ATOM     18  S   UNL     1     -11.296   7.851 127.039  0.00  0.00    +0.000 S 
ATOM     19  C   UNL     1     -11.771   8.482 128.559  0.00  0.00    +0.000 A 
ATOM     20  N   UNL     1     -12.700   9.440 128.657  0.00  0.00    +0.000 N 
ATOM     21  N   UNL     1     -11.153   7.962 129.589  0.00  0.00    +0.000 NA
ATOM     22  H   UNL     1     -13.170   9.832 127.852  0.00  0.00    +0.000 HD
ATOM     23  H   UNL     1     -12.970   9.783 129.570  0.00  0.00    +0.000 HD
ENDBRANCH  14  16
BRANCH  15  24
ATOM     24  O   UNL     1      -7.897   6.214 131.868  0.00  0.00    +0.000 OA
ATOM     25  C   UNL     1      -6.498   6.471 131.729  0.00  0.00    +0.000 C 
ENDBRANCH  15  24
ENDBRANCH  11  14
ENDBRANCH   9  10
BRANCH   4  26
ATOM     26  C   UNL     1      -3.879  -0.545 132.367  0.00  0.00    +0.000 C 
ATOM     27  C   UNL     1      -3.487  -1.840 132.425  0.00  0.00    +0.000 C 
BRANCH  27  28
ATOM     28  C   UNL     1      -4.154  -2.905 131.766  0.00  0.00    +0.000 A 
ATOM     29  C   UNL     1      -3.975  -3.389 130.465  0.00  0.00    +0.000 A 
ATOM     30  C   UNL     1      -3.020  -2.810 129.446  0.00  0.00    +0.000 C 
ATOM     31  N   UNL     1      -5.045  -4.154 130.000  0.00  0.00    +0.000 NA
ATOM     32  C   UNL     1      -5.900  -4.377 130.976  0.00  0.00    +0.000 A 
ATOM     33  S   UNL     1      -5.517  -3.673 132.490  0.00  0.00    +0.000 S 
ENDBRANCH  27  28
ENDBRANCH   4  26
BRANCH   5  34
ATOM     34  C   UNL     1      -6.499  -0.166 133.851  0.00  0.00    +0.000 C 
ATOM     35  OXT UNL     1      -7.062  -1.213 134.133  0.00  0.00    +0.000 OA
BRANCH  34  36
ATOM     36  O   UNL     1      -6.155   0.670 134.850  0.00  0.00    +0.000 OA
ATOM     37  H   UNL     1      -5.846   1.552 134.580  0.00  0.00    +0.000 HD
ENDBRANCH  34  36
ENDBRANCH   5  34
TORSDOF 8
ENDMDL
MODEL 9
REMARK VINA RESULT:      -7.1      3.791      8.877
REMARK  Name = Cefditoren
REMARK  10 active torsions:
REMARK  status: ('A' for Active; 'I' for Inactive)
REMARK    1  A    between atoms: C_5  and  C_6
REMARK    2  A    between atoms: C_7  and  C_8
REMARK    3  A    between atoms: C_9  and  C_10
REMARK    4  A    between atoms: CA_14  and  C_32
REMARK    5  A    between atoms: CA_18  and  N_19
REMARK    6  A    between atoms: C_20  and  C_22
REMARK    7  A    between atoms: C_22  and  C_26
REMARK    8  A    between atoms: N_23  and  O_24
REMARK    9  A    between atoms: O_24  and  C_25
REMARK   10  A    between atoms: C_32  and  O_33
REMARK                            x       y       z     vdW  Elec       q    Type
REMARK                         _______ _______ _______ _____ _____    ______ ____
ROOT
ATOM      1  C   UNL     1      -8.926   2.054 130.775  0.00  0.00    +0.000 C 
ATOM      2  S   UNL     1      -7.348   1.678 131.451  0.00  0.00    +0.000 S 
ATOM      3  C   UNL     1      -7.929   2.193 133.088  0.00  0.00    +0.000 C 
ATOM      4  C   UNL     1      -8.403   3.635 133.227  0.00  0.00    +0.000 C 
ATOM      5  CA  UNL     1      -9.068   4.200 132.171  0.00  0.00    +0.000 C 
ATOM      6  N   UNL     1      -9.251   3.470 130.990  0.00  0.00    +0.000 N 
ATOM      7  C   UNL     1      -9.119   3.804 129.684  0.00  0.00    +0.000 C 
ATOM      8  O   UNL     1      -9.148   4.906 129.160  0.00  0.00    +0.000 OA
ATOM      9  CA  UNL     1      -8.990   2.309 129.252  0.00  0.00    +0.000 C 
ENDROOT
BRANCH   9  10
ATOM     10  N   UNL     1      -7.855   1.879 128.339  0.00  0.00    +0.000 N 
ATOM     11  C   UNL     1      -8.156   1.484 127.027  0.00  0.00    +0.000 C 
ATOM     12  O   UNL     1      -9.319   1.304 126.678  0.00  0.00    +0.000 OA
ATOM     13  H   UNL     1      -6.887   2.007 128.615  0.00  0.00    +0.000 HD
BRANCH  11  14
ATOM     14  C   UNL     1      -6.997   1.271 126.015  0.00  0.00    +0.000 C 
ATOM     15  N   UNL     1      -6.249   0.193 126.030  0.00  0.00    +0.000 NA
BRANCH  14  16
ATOM     16  C   UNL     1      -6.651   2.288 125.001  0.00  0.00    +0.000 A 
ATOM     17  C   UNL     1      -5.652   3.239 125.110  0.00  0.00    +0.000 A 
ATOM     18  S   UNL     1      -5.596   4.235 123.715  0.00  0.00    +0.000 S 
ATOM     19  C   UNL     1      -6.881   3.334 123.027  0.00  0.00    +0.000 A 
ATOM     20  N   UNL     1      -7.361   3.621 121.812  0.00  0.00    +0.000 N 
ATOM     21  N   UNL     1      -7.344   2.370 123.782  0.00  0.00    +0.000 NA
ATOM     22  H   UNL     1      -6.992   4.368 121.239  0.00  0.00    +0.000 HD
ATOM     23  H   UNL     1      -8.111   3.062 121.427  0.00  0.00    +0.000 HD
ENDBRANCH  14  16
BRANCH  15  24
ATOM     24  O   UNL     1      -6.619  -0.717 127.037  0.00  0.00    +0.000 OA
ATOM     25  C   UNL     1      -5.480  -1.060 127.826  0.00  0.00    +0.000 C 
ENDBRANCH  15  24
ENDBRANCH  11  14
ENDBRANCH   9  10
BRANCH   4  26
ATOM     26  C   UNL     1      -8.092   4.313 134.540  0.00  0.00    +0.000 C 
ATOM     27  C   UNL     1      -6.936   4.566 135.198  0.00  0.00    +0.000 C 
BRANCH  27  28
ATOM     28  C   UNL     1      -5.644   4.325 134.663  0.00  0.00    +0.000 A 
ATOM     29  C   UNL     1      -4.986   4.978 133.614  0.00  0.00    +0.000 A 
ATOM     30  C   UNL     1      -5.574   6.093 132.780  0.00  0.00    +0.000 C 
ATOM     31  N   UNL     1      -3.923   4.249 133.080  0.00  0.00    +0.000 NA
ATOM     32  C   UNL     1      -3.691   3.183 133.815  0.00  0.00    +0.000 A 
ATOM     33  S   UNL     1      -4.728   2.951 135.159  0.00  0.00    +0.000 S 
ENDBRANCH  27  28
ENDBRANCH   4  26
BRANCH   5  34
ATOM     34  C   UNL     1      -9.654   5.613 132.286  0.00  0.00    +0.000 C 
ATOM     35  OXT UNL     1      -9.051   6.650 132.059  0.00  0.00    +0.000 OA
BRANCH  34  36
ATOM     36  O   UNL     1     -10.895   5.691 132.806  0.00  0.00    +0.000 OA
ATOM     37  H   UNL     1     -11.160   4.958 133.388  0.00  0.00    +0.000 HD
ENDBRANCH  34  36
ENDBRANCH   5  34
TORSDOF 8
ENDMDL
