MODEL 1
REMARK VINA RESULT:      -7.7      0.000      0.000
REMARK  Name = Cefdinir
REMARK  7 active torsions:
REMARK  status: ('A' for Active; 'I' for Inactive)
REMARK    1  A    between atoms: CB_5  and  CG1_6
REMARK    2  A    between atoms: CA_8  and  C_25
REMARK    3  A    between atoms: CA_12  and  N_13
REMARK    4  A    between atoms: C_14  and  C_16
REMARK    5  A    between atoms: C_16  and  C_19
REMARK    6  A    between atoms: N_17  and  O_18
REMARK    7  A    between atoms: C_25  and  O_26
REMARK                            x       y       z     vdW  Elec       q    Type
REMARK                         _______ _______ _______ _____ _____    ______ ____
ROOT
ATOM      1  N   UNL     1      -9.121   3.966 131.514  0.00  0.00    +0.000 N 
ATOM      2  C   UNL     1      -9.098   2.775 132.232  0.00  0.00    +0.000 C 
ATOM      3  O   UNL     1      -9.944   1.906 132.052  0.00  0.00    +0.000 OA
ATOM      4  H   UNL     1      -8.397   4.643 131.748  0.00  0.00    +0.000 HD
ENDROOT
BRANCH   1  13
ATOM      5  C   UNL     1     -11.310   5.098 130.598  0.00  0.00    +0.000 C 
ATOM      6  S   UNL     1     -11.192   6.352 131.890  0.00  0.00    +0.000 S 
ATOM      7  CG2 UNL     1     -12.501   7.357 131.134  0.00  0.00    +0.000 C 
ATOM      8  CB  UNL     1     -12.252   7.717 129.671  0.00  0.00    +0.000 C 
ATOM      9  CA  UNL     1     -11.470   6.942 128.855  0.00  0.00    +0.000 C 
ATOM     10  N   UNL     1     -10.977   5.726 129.316  0.00  0.00    +0.000 N 
ATOM     11  C   UNL     1      -9.734   5.171 129.237  0.00  0.00    +0.000 C 
ATOM     12  O   UNL     1      -8.832   5.407 128.474  0.00  0.00    +0.000 OA
ATOM     13  CA  UNL     1     -10.071   4.173 130.389  0.00  0.00    +0.000 C 
BRANCH   8  14
ATOM     14  CG1 UNL     1     -12.916   8.974 129.263  0.00  0.00    +0.000 C 
ATOM     15  CD1 UNL     1     -13.135  10.074 129.997  0.00  0.00    +0.000 C 
ENDBRANCH   8  14
BRANCH   9  16
ATOM     16  C   UNL     1     -11.165   7.378 127.415  0.00  0.00    +0.000 C 
ATOM     17  OXT UNL     1     -10.572   8.398 127.097  0.00  0.00    +0.000 OA
BRANCH  16  18
ATOM     18  O   UNL     1     -11.675   6.609 126.431  0.00  0.00    +0.000 OA
ATOM     19  H   UNL     1     -11.901   5.693 126.669  0.00  0.00    +0.000 HD
ENDBRANCH  16  18
ENDBRANCH   9  16
ENDBRANCH   1  13
BRANCH   2  20
ATOM     20  C   UNL     1      -8.006   2.588 133.313  0.00  0.00    +0.000 C 
ATOM     21  N   UNL     1      -7.403   1.452 133.576  0.00  0.00    +0.000 NA
BRANCH  20  22
ATOM     22  C   UNL     1      -7.531   3.754 134.091  0.00  0.00    +0.000 A 
ATOM     23  C   UNL     1      -6.204   4.151 134.121  0.00  0.00    +0.000 A 
ATOM     24  S   UNL     1      -6.006   5.545 135.092  0.00  0.00    +0.000 S 
ATOM     25  C   UNL     1      -7.688   5.537 135.438  0.00  0.00    +0.000 A 
ATOM     26  N   UNL     1      -8.215   6.472 136.240  0.00  0.00    +0.000 N 
ATOM     27  N   UNL     1      -8.369   4.568 134.867  0.00  0.00    +0.000 NA
ATOM     28  H   UNL     1      -7.657   7.217 136.637  0.00  0.00    +0.000 HD
ATOM     29  H   UNL     1      -9.209   6.488 136.426  0.00  0.00    +0.000 HD
ENDBRANCH  20  22
BRANCH  21  30
ATOM     30  O   UNL     1      -7.850   0.358 132.827  0.00  0.00    +0.000 OA
ATOM     31  H   UNL     1      -8.762   0.611 132.579  0.00  0.00    +0.000 HD
ENDBRANCH  21  30
ENDBRANCH   2  20
TORSDOF 7
ENDMDL
MODEL 2
REMARK VINA RESULT:      -7.3      1.675      2.743
REMARK  Name = Cefdinir
REMARK  7 active torsions:
REMARK  status: ('A' for Active; 'I' for Inactive)
REMARK    1  A    between atoms: CB_5  and  CG1_6
REMARK    2  A    between atoms: CA_8  and  C_25
REMARK    3  A    between atoms: CA_12  and  N_13
REMARK    4  A    between atoms: C_14  and  C_16
REMARK    5  A    between atoms: C_16  and  C_19
REMARK    6  A    between atoms: N_17  and  O_18
REMARK    7  A    between atoms: C_25  and  O_26
REMARK                            x       y       z     vdW  Elec       q    Type
REMARK                         _______ _______ _______ _____ _____    ______ ____
ROOT
ATOM      1  N   UNL     1      -9.247   4.296 131.565  0.00  0.00    +0.000 N 
ATOM      2  C   UNL     1      -9.120   3.112 132.283  0.00  0.00    +0.000 C 
ATOM      3  O   UNL     1      -9.863   2.159 132.077  0.00  0.00    +0.000 OA
ATOM      4  H   UNL     1      -8.606   5.045 131.822  0.00  0.00    +0.000 HD
ENDROOT
BRANCH   1  13
ATOM      5  C   UNL     1     -11.466   5.277 130.551  0.00  0.00    +0.000 C 
ATOM      6  S   UNL     1     -11.439   6.593 131.786  0.00  0.00    +0.000 S 
ATOM      7  CG2 UNL     1     -12.776   7.497 130.956  0.00  0.00    +0.000 C 
ATOM      8  CB  UNL     1     -12.510   7.803 129.483  0.00  0.00    +0.000 C 
ATOM      9  CA  UNL     1     -11.672   7.031 128.722  0.00  0.00    +0.000 C 
ATOM     10  N   UNL     1     -11.132   5.863 129.249  0.00  0.00    +0.000 N 
ATOM     11  C   UNL     1      -9.862   5.366 129.222  0.00  0.00    +0.000 C 
ATOM     12  O   UNL     1      -8.955   5.612 128.469  0.00  0.00    +0.000 OA
ATOM     13  CA  UNL     1     -10.179   4.406 130.411  0.00  0.00    +0.000 C 
BRANCH   8  14
ATOM     14  CG1 UNL     1     -13.223   9.006 129.004  0.00  0.00    +0.000 C 
ATOM     15  CD1 UNL     1     -13.233  10.235 129.539  0.00  0.00    +0.000 C 
ENDBRANCH   8  14
BRANCH   9  16
ATOM     16  C   UNL     1     -11.354   7.416 127.270  0.00  0.00    +0.000 C 
ATOM     17  OXT UNL     1     -10.733   8.410 126.923  0.00  0.00    +0.000 OA
BRANCH  16  18
ATOM     18  O   UNL     1     -11.884   6.633 126.307  0.00  0.00    +0.000 OA
ATOM     19  H   UNL     1     -11.635   5.692 126.327  0.00  0.00    +0.000 HD
ENDBRANCH  16  18
ENDBRANCH   9  16
ENDBRANCH   1  13
BRANCH   2  20
ATOM     20  C   UNL     1      -8.048   3.038 133.397  0.00  0.00    +0.000 C 
ATOM     21  N   UNL     1      -8.042   3.782 134.478  0.00  0.00    +0.000 NA
BRANCH  20  22
ATOM     22  C   UNL     1      -6.966   2.032 133.314  0.00  0.00    +0.000 A 
ATOM     23  C   UNL     1      -5.686   2.335 132.879  0.00  0.00    +0.000 A 
ATOM     24  S   UNL     1      -4.680   0.953 132.931  0.00  0.00    +0.000 S 
ATOM     25  C   UNL     1      -6.001   0.020 133.508  0.00  0.00    +0.000 A 
ATOM     26  N   UNL     1      -5.843  -1.287 133.762  0.00  0.00    +0.000 N 
ATOM     27  N   UNL     1      -7.125   0.684 133.665  0.00  0.00    +0.000 NA
ATOM     28  H   UNL     1      -4.951  -1.752 133.652  0.00  0.00    +0.000 HD
ATOM     29  H   UNL     1      -6.610  -1.836 134.126  0.00  0.00    +0.000 HD
ENDBRANCH  20  22
BRANCH  21  30
ATOM     30  O   UNL     1      -9.077   4.721 134.555  0.00  0.00    +0.000 OA
ATOM     31  H   UNL     1      -9.029   5.181 133.692  0.00  0.00    +0.000 HD
ENDBRANCH  21  30
ENDBRANCH   2  20
TORSDOF 7
ENDMDL
MODEL 3
REMARK VINA RESULT:      -7.3      3.685      7.525
REMARK  Name = Cefdinir
REMARK  7 active torsions:
REMARK  status: ('A' for Active; 'I' for Inactive)
REMARK    1  A    between atoms: CB_5  and  CG1_6
REMARK    2  A    between atoms: CA_8  and  C_25
REMARK    3  A    between atoms: CA_12  and  N_13
REMARK    4  A    between atoms: C_14  and  C_16
REMARK    5  A    between atoms: C_16  and  C_19
REMARK    6  A    between atoms: N_17  and  O_18
REMARK    7  A    between atoms: C_25  and  O_26
REMARK                            x       y       z     vdW  Elec       q    Type
REMARK                         _______ _______ _______ _____ _____    ______ ____
ROOT
ATOM      1  N   UNL     1      -9.294   4.480 130.872  0.00  0.00    +0.000 N 
ATOM      2  C   UNL     1      -9.518   5.790 130.460  0.00  0.00    +0.000 C 
ATOM      3  O   UNL     1      -8.710   6.382 129.753  0.00  0.00    +0.000 OA
ATOM      4  H   UNL     1     -10.004   4.077 131.481  0.00  0.00    +0.000 HD
ENDROOT
BRANCH   1  13
ATOM      5  C   UNL     1      -7.845   2.289 130.965  0.00  0.00    +0.000 C 
ATOM      6  S   UNL     1      -9.211   1.429 131.772  0.00  0.00    +0.000 S 
ATOM      7  CG2 UNL     1      -8.399  -0.183 131.589  0.00  0.00    +0.000 C 
ATOM      8  CB  UNL     1      -7.997  -0.528 130.156  0.00  0.00    +0.000 C 
ATOM      9  CA  UNL     1      -7.743   0.442 129.221  0.00  0.00    +0.000 C 
ATOM     10  N   UNL     1      -7.728   1.781 129.595  0.00  0.00    +0.000 N 
ATOM     11  C   UNL     1      -8.285   2.883 129.017  0.00  0.00    +0.000 C 
ATOM     12  O   UNL     1      -8.640   3.061 127.879  0.00  0.00    +0.000 OA
ATOM     13  CA  UNL     1      -8.150   3.688 130.347  0.00  0.00    +0.000 C 
BRANCH   8  14
ATOM     14  CG1 UNL     1      -7.941  -1.983 129.904  0.00  0.00    +0.000 C 
ATOM     15  CD1 UNL     1      -7.517  -2.953 130.726  0.00  0.00    +0.000 C 
ENDBRANCH   8  14
BRANCH   9  16
ATOM     16  C   UNL     1      -7.430   0.065 127.766  0.00  0.00    +0.000 C 
ATOM     17  OXT UNL     1      -6.321  -0.213 127.332  0.00  0.00    +0.000 OA
BRANCH  16  18
ATOM     18  O   UNL     1      -8.453   0.137 126.890  0.00  0.00    +0.000 OA
ATOM     19  H   UNL     1      -9.333   0.318 127.265  0.00  0.00    +0.000 HD
ENDBRANCH  16  18
ENDBRANCH   9  16
ENDBRANCH   1  13
BRANCH   2  20
ATOM     20  C   UNL     1     -10.792   6.512 130.961  0.00  0.00    +0.000 C 
ATOM     21  N   UNL     1     -11.078   6.732 132.223  0.00  0.00    +0.000 NA
BRANCH  20  22
ATOM     22  C   UNL     1     -11.759   7.064 129.985  0.00  0.00    +0.000 A 
ATOM     23  C   UNL     1     -12.503   6.270 129.129  0.00  0.00    +0.000 A 
ATOM     24  S   UNL     1     -13.538   7.224 128.156  0.00  0.00    +0.000 S 
ATOM     25  C   UNL     1     -12.928   8.642 128.910  0.00  0.00    +0.000 A 
ATOM     26  N   UNL     1     -13.382   9.848 128.541  0.00  0.00    +0.000 N 
ATOM     27  N   UNL     1     -12.018   8.434 129.834  0.00  0.00    +0.000 NA
ATOM     28  H   UNL     1     -14.105   9.960 127.842  0.00  0.00    +0.000 HD
ATOM     29  H   UNL     1     -13.046  10.685 128.999  0.00  0.00    +0.000 HD
ENDBRANCH  20  22
BRANCH  21  30
ATOM     30  O   UNL     1     -10.151   6.218 133.137  0.00  0.00    +0.000 OA
ATOM     31  H   UNL     1      -9.745   7.020 133.523  0.00  0.00    +0.000 HD
ENDBRANCH  21  30
ENDBRANCH   2  20
TORSDOF 7
ENDMDL
MODEL 4
REMARK VINA RESULT:      -7.2      4.794      7.254
REMARK  Name = Cefdinir
REMARK  7 active torsions:
REMARK  status: ('A' for Active; 'I' for Inactive)
REMARK    1  A    between atoms: CB_5  and  CG1_6
REMARK    2  A    between atoms: CA_8  and  C_25
REMARK    3  A    between atoms: CA_12  and  N_13
REMARK    4  A    between atoms: C_14  and  C_16
REMARK    5  A    between atoms: C_16  and  C_19
REMARK    6  A    between atoms: N_17  and  O_18
REMARK    7  A    between atoms: C_25  and  O_26
REMARK                            x       y       z     vdW  Elec       q    Type
REMARK                         _______ _______ _______ _____ _____    ______ ____
ROOT
ATOM      1  N   UNL     1      -8.469   3.658 128.692  0.00  0.00    +0.000 N 
ATOM      2  C   UNL     1      -8.717   4.750 129.518  0.00  0.00    +0.000 C 
ATOM      3  O   UNL     1      -8.021   5.758 129.467  0.00  0.00    +0.000 OA
ATOM      4  H   UNL     1      -9.079   2.853 128.822  0.00  0.00    +0.000 HD
ENDROOT
BRANCH   1  13
ATOM      5  C   UNL     1      -6.918   2.397 126.985  0.00  0.00    +0.000 C 
ATOM      6  S   UNL     1      -7.974   0.939 127.113  0.00  0.00    +0.000 S 
ATOM      7  CG2 UNL     1      -7.143   0.126 125.721  0.00  0.00    +0.000 C 
ATOM      8  CB  UNL     1      -7.107   0.953 124.437  0.00  0.00    +0.000 C 
ATOM      9  CA  UNL     1      -7.163   2.322 124.455  0.00  0.00    +0.000 C 
ATOM     10  N   UNL     1      -7.130   3.003 125.667  0.00  0.00    +0.000 N 
ATOM     11  C   UNL     1      -7.883   4.038 126.138  0.00  0.00    +0.000 C 
ATOM     12  O   UNL     1      -8.531   4.856 125.536  0.00  0.00    +0.000 OA
ATOM     13  CA  UNL     1      -7.455   3.723 127.606  0.00  0.00    +0.000 C 
BRANCH   8  14
ATOM     14  CG1 UNL     1      -7.032   0.124 123.216  0.00  0.00    +0.000 C 
ATOM     15  CD1 UNL     1      -6.846  -1.200 123.120  0.00  0.00    +0.000 C 
ENDBRANCH   8  14
BRANCH   9  16
ATOM     16  C   UNL     1      -7.216   3.122 123.146  0.00  0.00    +0.000 C 
ATOM     17  OXT UNL     1      -6.244   3.464 122.487  0.00  0.00    +0.000 OA
BRANCH  16  18
ATOM     18  O   UNL     1      -8.432   3.550 122.748  0.00  0.00    +0.000 OA
ATOM     19  H   UNL     1      -8.700   3.315 121.842  0.00  0.00    +0.000 HD
ENDBRANCH  16  18
ENDBRANCH   9  16
ENDBRANCH   1  13
BRANCH   2  20
ATOM     20  C   UNL     1      -9.865   4.646 130.550  0.00  0.00    +0.000 C 
ATOM     21  N   UNL     1      -9.889   3.805 131.557  0.00  0.00    +0.000 NA
BRANCH  20  22
ATOM     22  C   UNL     1     -11.011   5.580 130.476  0.00  0.00    +0.000 A 
ATOM     23  C   UNL     1     -11.423   6.356 131.547  0.00  0.00    +0.000 A 
ATOM     24  S   UNL     1     -12.754   7.338 131.114  0.00  0.00    +0.000 S 
ATOM     25  C   UNL     1     -12.726   6.667 129.533  0.00  0.00    +0.000 A 
ATOM     26  N   UNL     1     -13.623   7.062 128.618  0.00  0.00    +0.000 N 
ATOM     27  N   UNL     1     -11.786   5.773 129.324  0.00  0.00    +0.000 NA
ATOM     28  H   UNL     1     -14.314   7.774 128.815  0.00  0.00    +0.000 HD
ATOM     29  H   UNL     1     -13.596   6.690 127.678  0.00  0.00    +0.000 HD
ENDBRANCH  20  22
BRANCH  21  30
ATOM     30  O   UNL     1      -8.795   2.935 131.627  0.00  0.00    +0.000 OA
ATOM     31  H   UNL     1      -9.068   2.282 132.303  0.00  0.00    +0.000 HD
ENDBRANCH  21  30
ENDBRANCH   2  20
TORSDOF 7
ENDMDL
MODEL 5
REMARK VINA RESULT:      -7.1      6.665      8.943
REMARK  Name = Cefdinir
REMARK  7 active torsions:
REMARK  status: ('A' for Active; 'I' for Inactive)
REMARK    1  A    between atoms: CB_5  and  CG1_6
REMARK    2  A    between atoms: CA_8  and  C_25
REMARK    3  A    between atoms: CA_12  and  N_13
REMARK    4  A    between atoms: C_14  and  C_16
REMARK    5  A    between atoms: C_16  and  C_19
REMARK    6  A    between atoms: N_17  and  O_18
REMARK    7  A    between atoms: C_25  and  O_26
REMARK                            x       y       z     vdW  Elec       q    Type
REMARK                         _______ _______ _______ _____ _____    ______ ____
ROOT
ATOM      1  N   UNL     1      -7.868   2.303 126.915  0.00  0.00    +0.000 N 
ATOM      2  C   UNL     1      -7.528   3.651 126.972  0.00  0.00    +0.000 C 
ATOM      3  O   UNL     1      -7.278   4.288 125.956  0.00  0.00    +0.000 OA
ATOM      4  H   UNL     1      -8.032   1.846 127.810  0.00  0.00    +0.000 HD
ENDROOT
BRANCH   1  13
ATOM      5  C   UNL     1      -6.986   0.694 125.033  0.00  0.00    +0.000 C 
ATOM      6  S   UNL     1      -5.809  -0.016 126.202  0.00  0.00    +0.000 S 
ATOM      7  CG2 UNL     1      -5.372  -1.356 125.059  0.00  0.00    +0.000 C 
ATOM      8  CB  UNL     1      -6.563  -2.171 124.559  0.00  0.00    +0.000 C 
ATOM      9  CA  UNL     1      -7.827  -1.645 124.497  0.00  0.00    +0.000 C 
ATOM     10  N   UNL     1      -8.034  -0.300 124.777  0.00  0.00    +0.000 N 
ATOM     11  C   UNL     1      -8.973   0.325 125.544  0.00  0.00    +0.000 C 
ATOM     12  O   UNL     1     -10.057  -0.060 125.902  0.00  0.00    +0.000 OA
ATOM     13  CA  UNL     1      -8.100   1.617 125.616  0.00  0.00    +0.000 C 
BRANCH   8  14
ATOM     14  CG1 UNL     1      -6.201  -3.555 124.186  0.00  0.00    +0.000 C 
ATOM     15  CD1 UNL     1      -4.997  -4.038 123.849  0.00  0.00    +0.000 C 
ENDBRANCH   8  14
BRANCH   9  16
ATOM     16  C   UNL     1      -9.019  -2.517 124.075  0.00  0.00    +0.000 C 
ATOM     17  OXT UNL     1      -9.318  -2.795 122.923  0.00  0.00    +0.000 OA
BRANCH  16  18
ATOM     18  O   UNL     1      -9.843  -2.929 125.060  0.00  0.00    +0.000 OA
ATOM     19  H   UNL     1      -9.676  -2.564 125.947  0.00  0.00    +0.000 HD
ENDBRANCH  16  18
ENDBRANCH   9  16
ENDBRANCH   1  13
BRANCH   2  20
ATOM     20  C   UNL     1      -7.415   4.323 128.362  0.00  0.00    +0.000 C 
ATOM     21  N   UNL     1      -6.378   5.013 128.775  0.00  0.00    +0.000 NA
BRANCH  20  22
ATOM     22  C   UNL     1      -8.555   4.264 129.305  0.00  0.00    +0.000 A 
ATOM     23  C   UNL     1      -9.375   5.350 129.566  0.00  0.00    +0.000 A 
ATOM     24  S   UNL     1     -10.604   4.932 130.679  0.00  0.00    +0.000 S 
ATOM     25  C   UNL     1      -9.971   3.338 130.771  0.00  0.00    +0.000 A 
ATOM     26  N   UNL     1     -10.549   2.429 131.569  0.00  0.00    +0.000 N 
ATOM     27  N   UNL     1      -8.916   3.114 130.020  0.00  0.00    +0.000 NA
ATOM     28  H   UNL     1     -11.377   2.638 132.110  0.00  0.00    +0.000 HD
ATOM     29  H   UNL     1     -10.196   1.482 131.608  0.00  0.00    +0.000 HD
ENDBRANCH  20  22
BRANCH  21  30
ATOM     30  O   UNL     1      -5.311   5.074 127.872  0.00  0.00    +0.000 OA
ATOM     31  H   UNL     1      -5.675   5.594 127.127  0.00  0.00    +0.000 HD
ENDBRANCH  21  30
ENDBRANCH   2  20
TORSDOF 7
ENDMDL
MODEL 6
REMARK VINA RESULT:      -6.9      4.099      8.270
REMARK  Name = Cefdinir
REMARK  7 active torsions:
REMARK  status: ('A' for Active; 'I' for Inactive)
REMARK    1  A    between atoms: CB_5  and  CG1_6
REMARK    2  A    between atoms: CA_8  and  C_25
REMARK    3  A    between atoms: CA_12  and  N_13
REMARK    4  A    between atoms: C_14  and  C_16
REMARK    5  A    between atoms: C_16  and  C_19
REMARK    6  A    between atoms: N_17  and  O_18
REMARK    7  A    between atoms: C_25  and  O_26
REMARK                            x       y       z     vdW  Elec       q    Type
REMARK                         _______ _______ _______ _____ _____    ______ ____
ROOT
ATOM      1  N   UNL     1      -7.552   5.881 130.981  0.00  0.00    +0.000 N 
ATOM      2  C   UNL     1      -8.845   5.444 130.713  0.00  0.00    +0.000 C 
ATOM      3  O   UNL     1      -9.059   4.318 130.276  0.00  0.00    +0.000 OA
ATOM      4  H   UNL     1      -7.466   6.839 131.315  0.00  0.00    +0.000 HD
ENDROOT
BRANCH   1  13
ATOM      5  C   UNL     1      -5.016   5.500 130.405  0.00  0.00    +0.000 C 
ATOM      6  S   UNL     1      -4.718   7.271 130.582  0.00  0.00    +0.000 S 
ATOM      7  CG2 UNL     1      -2.919   7.050 130.504  0.00  0.00    +0.000 C 
ATOM      8  CB  UNL     1      -2.361   6.059 131.524  0.00  0.00    +0.000 C 
ATOM      9  CA  UNL     1      -3.123   5.044 132.040  0.00  0.00    +0.000 C 
ATOM     10  N   UNL     1      -4.403   4.816 131.548  0.00  0.00    +0.000 N 
ATOM     11  C   UNL     1      -5.585   4.583 132.188  0.00  0.00    +0.000 C 
ATOM     12  O   UNL     1      -5.791   4.176 133.303  0.00  0.00    +0.000 OA
ATOM     13  CA  UNL     1      -6.390   4.956 130.904  0.00  0.00    +0.000 C 
BRANCH   8  14
ATOM     14  CG1 UNL     1      -0.956   6.335 131.892  0.00  0.00    +0.000 C 
ATOM     15  CD1 UNL     1      -0.483   7.274 132.722  0.00  0.00    +0.000 C 
ENDBRANCH   8  14
BRANCH   9  16
ATOM     16  C   UNL     1      -2.563   4.119 133.131  0.00  0.00    +0.000 C 
ATOM     17  OXT UNL     1      -1.989   3.059 132.932  0.00  0.00    +0.000 OA
BRANCH  16  18
ATOM     18  O   UNL     1      -2.808   4.476 134.409  0.00  0.00    +0.000 OA
ATOM     19  H   UNL     1      -2.030   4.601 134.982  0.00  0.00    +0.000 HD
ENDBRANCH  16  18
ENDBRANCH   9  16
ENDBRANCH   1  13
BRANCH   2  20
ATOM     20  C   UNL     1     -10.016   6.433 130.925  0.00  0.00    +0.000 C 
ATOM     21  N   UNL     1     -10.481   6.798 132.097  0.00  0.00    +0.000 NA
BRANCH  20  22
ATOM     22  C   UNL     1     -10.652   7.086 129.758  0.00  0.00    +0.000 A 
ATOM     23  C   UNL     1     -11.797   7.858 129.858  0.00  0.00    +0.000 A 
ATOM     24  S   UNL     1     -12.247   8.483 128.330  0.00  0.00    +0.000 S 
ATOM     25  C   UNL     1     -10.909   7.678 127.614  0.00  0.00    +0.000 A 
ATOM     26  N   UNL     1     -10.691   7.776 126.295  0.00  0.00    +0.000 N 
ATOM     27  N   UNL     1     -10.161   6.990 128.449  0.00  0.00    +0.000 NA
ATOM     28  H   UNL     1     -11.278   8.339 125.694  0.00  0.00    +0.000 HD
ATOM     29  H   UNL     1      -9.891   7.326 125.872  0.00  0.00    +0.000 HD
ENDBRANCH  20  22
BRANCH  21  30
ATOM     30  O   UNL     1      -9.866   6.186 133.194  0.00  0.00    +0.000 OA
ATOM     31  H   UNL     1     -10.103   5.242 133.089  0.00  0.00    +0.000 HD
ENDBRANCH  21  30
ENDBRANCH   2  20
TORSDOF 7
ENDMDL
MODEL 7
REMARK VINA RESULT:      -6.7      6.883      9.017
REMARK  Name = Cefdinir
REMARK  7 active torsions:
REMARK  status: ('A' for Active; 'I' for Inactive)
REMARK    1  A    between atoms: CB_5  and  CG1_6
REMARK    2  A    between atoms: CA_8  and  C_25
REMARK    3  A    between atoms: CA_12  and  N_13
REMARK    4  A    between atoms: C_14  and  C_16
REMARK    5  A    between atoms: C_16  and  C_19
REMARK    6  A    between atoms: N_17  and  O_18
REMARK    7  A    between atoms: C_25  and  O_26
REMARK                            x       y       z     vdW  Elec       q    Type
REMARK                         _______ _______ _______ _____ _____    ______ ____
ROOT
ATOM      1  N   UNL     1      -8.204   2.270 126.725  0.00  0.00    +0.000 N 
ATOM      2  C   UNL     1      -7.832   3.609 126.801  0.00  0.00    +0.000 C 
ATOM      3  O   UNL     1      -7.431   4.216 125.815  0.00  0.00    +0.000 OA
ATOM      4  H   UNL     1      -8.498   1.839 127.600  0.00  0.00    +0.000 HD
ENDROOT
BRANCH   1  13
ATOM      5  C   UNL     1      -7.087   0.674 124.961  0.00  0.00    +0.000 C 
ATOM      6  S   UNL     1      -6.004   0.021 126.248  0.00  0.00    +0.000 S 
ATOM      7  CG2 UNL     1      -5.411  -1.315 125.173  0.00  0.00    +0.000 C 
ATOM      8  CB  UNL     1      -6.518  -2.179 124.572  0.00  0.00    +0.000 C 
ATOM      9  CA  UNL     1      -7.788  -1.701 124.381  0.00  0.00    +0.000 C 
ATOM     10  N   UNL     1      -8.070  -0.360 124.620  0.00  0.00    +0.000 N 
ATOM     11  C   UNL     1      -9.100   0.238 125.283  0.00  0.00    +0.000 C 
ATOM     12  O   UNL     1     -10.199  -0.183 125.541  0.00  0.00    +0.000 OA
ATOM     13  CA  UNL     1      -8.284   1.562 125.420  0.00  0.00    +0.000 C 
BRANCH   8  14
ATOM     14  CG1 UNL     1      -6.073  -3.553 124.256  0.00  0.00    +0.000 C 
ATOM     15  CD1 UNL     1      -4.876  -3.957 123.810  0.00  0.00    +0.000 C 
ENDBRANCH   8  14
BRANCH   9  16
ATOM     16  C   UNL     1      -8.902  -2.620 123.859  0.00  0.00    +0.000 C 
ATOM     17  OXT UNL     1      -9.067  -2.936 122.690  0.00  0.00    +0.000 OA
BRANCH  16  18
ATOM     18  O   UNL     1      -9.815  -3.034 124.762  0.00  0.00    +0.000 OA
ATOM     19  H   UNL     1      -9.779  -3.974 125.016  0.00  0.00    +0.000 HD
ENDBRANCH  16  18
ENDBRANCH   9  16
ENDBRANCH   1  13
BRANCH   2  20
ATOM     20  C   UNL     1      -7.882   4.310 128.180  0.00  0.00    +0.000 C 
ATOM     21  N   UNL     1      -8.645   5.339 128.468  0.00  0.00    +0.000 NA
BRANCH  20  22
ATOM     22  C   UNL     1      -7.076   3.784 129.305  0.00  0.00    +0.000 A 
ATOM     23  C   UNL     1      -7.634   3.139 130.397  0.00  0.00    +0.000 A 
ATOM     24  S   UNL     1      -6.422   2.638 131.495  0.00  0.00    +0.000 S 
ATOM     25  C   UNL     1      -5.223   3.320 130.473  0.00  0.00    +0.000 A 
ATOM     26  N   UNL     1      -3.929   3.258 130.819  0.00  0.00    +0.000 N 
ATOM     27  N   UNL     1      -5.679   3.883 129.376  0.00  0.00    +0.000 NA
ATOM     28  H   UNL     1      -3.619   2.791 131.661  0.00  0.00    +0.000 HD
ATOM     29  H   UNL     1      -3.215   3.635 130.209  0.00  0.00    +0.000 HD
ENDBRANCH  20  22
BRANCH  21  30
ATOM     30  O   UNL     1      -9.413   5.821 127.402  0.00  0.00    +0.000 OA
ATOM     31  H   UNL     1      -9.794   5.008 127.012  0.00  0.00    +0.000 HD
ENDBRANCH  21  30
ENDBRANCH   2  20
TORSDOF 7
ENDMDL
MODEL 8
REMARK VINA RESULT:      -6.7      4.571      6.903
REMARK  Name = Cefdinir
REMARK  7 active torsions:
REMARK  status: ('A' for Active; 'I' for Inactive)
REMARK    1  A    between atoms: CB_5  and  CG1_6
REMARK    2  A    between atoms: CA_8  and  C_25
REMARK    3  A    between atoms: CA_12  and  N_13
REMARK    4  A    between atoms: C_14  and  C_16
REMARK    5  A    between atoms: C_16  and  C_19
REMARK    6  A    between atoms: N_17  and  O_18
REMARK    7  A    between atoms: C_25  and  O_26
REMARK                            x       y       z     vdW  Elec       q    Type
REMARK                         _______ _______ _______ _____ _____    ______ ____
ROOT
ATOM      1  N   UNL     1      -7.397   3.717 127.568  0.00  0.00    +0.000 N 
ATOM      2  C   UNL     1      -7.389   4.240 126.279  0.00  0.00    +0.000 C 
ATOM      3  O   UNL     1      -8.425   4.603 125.733  0.00  0.00    +0.000 OA
ATOM      4  H   UNL     1      -6.495   3.416 127.933  0.00  0.00    +0.000 HD
ENDROOT
BRANCH   1  13
ATOM      5  C   UNL     1      -8.627   2.984 129.773  0.00  0.00    +0.000 C 
ATOM      6  S   UNL     1      -7.028   2.749 130.577  0.00  0.00    +0.000 S 
ATOM      7  CG2 UNL     1      -7.798   2.540 132.207  0.00  0.00    +0.000 C 
ATOM      8  CB  UNL     1      -8.719   3.687 132.621  0.00  0.00    +0.000 C 
ATOM      9  CA  UNL     1      -9.348   4.481 131.698  0.00  0.00    +0.000 C 
ATOM     10  N   UNL     1      -9.256   4.179 130.343  0.00  0.00    +0.000 N 
ATOM     11  C   UNL     1      -9.004   4.969 129.261  0.00  0.00    +0.000 C 
ATOM     12  O   UNL     1      -9.128   6.160 129.130  0.00  0.00    +0.000 OA
ATOM     13  CA  UNL     1      -8.631   3.722 128.399  0.00  0.00    +0.000 C 
BRANCH   8  14
ATOM     14  CG1 UNL     1      -8.826   3.844 134.087  0.00  0.00    +0.000 C 
ATOM     15  CD1 UNL     1      -8.029   4.543 134.908  0.00  0.00    +0.000 C 
ENDBRANCH   8  14
BRANCH   9  16
ATOM     16  C   UNL     1     -10.195   5.681 132.144  0.00  0.00    +0.000 C 
ATOM     17  OXT UNL     1      -9.772   6.663 132.736  0.00  0.00    +0.000 OA
BRANCH  16  18
ATOM     18  O   UNL     1     -11.525   5.592 131.937  0.00  0.00    +0.000 OA
ATOM     19  H   UNL     1     -11.885   4.696 131.810  0.00  0.00    +0.000 HD
ENDBRANCH  16  18
ENDBRANCH   9  16
ENDBRANCH   1  13
BRANCH   2  20
ATOM     20  C   UNL     1      -6.043   4.305 125.519  0.00  0.00    +0.000 C 
ATOM     21  N   UNL     1      -5.923   4.295 124.212  0.00  0.00    +0.000 NA
BRANCH  20  22
ATOM     22  C   UNL     1      -4.777   4.451 126.271  0.00  0.00    +0.000 A 
ATOM     23  C   UNL     1      -3.739   3.537 126.187  0.00  0.00    +0.000 A 
ATOM     24  S   UNL     1      -2.419   4.020 127.161  0.00  0.00    +0.000 S 
ATOM     25  C   UNL     1      -3.302   5.406 127.659  0.00  0.00    +0.000 A 
ATOM     26  N   UNL     1      -2.759   6.276 128.523  0.00  0.00    +0.000 N 
ATOM     27  N   UNL     1      -4.502   5.520 127.136  0.00  0.00    +0.000 NA
ATOM     28  H   UNL     1      -1.820   6.162 128.881  0.00  0.00    +0.000 HD
ATOM     29  H   UNL     1      -3.263   7.107 128.801  0.00  0.00    +0.000 HD
ENDBRANCH  20  22
BRANCH  21  30
ATOM     30  O   UNL     1      -7.126   4.170 123.508  0.00  0.00    +0.000 OA
ATOM     31  H   UNL     1      -7.502   3.333 123.849  0.00  0.00    +0.000 HD
ENDBRANCH  21  30
ENDBRANCH   2  20
TORSDOF 7
ENDMDL
MODEL 9
REMARK VINA RESULT:      -6.6      4.459      7.243
REMARK  Name = Cefdinir
REMARK  7 active torsions:
REMARK  status: ('A' for Active; 'I' for Inactive)
REMARK    1  A    between atoms: CB_5  and  CG1_6
REMARK    2  A    between atoms: CA_8  and  C_25
REMARK    3  A    between atoms: CA_12  and  N_13
REMARK    4  A    between atoms: C_14  and  C_16
REMARK    5  A    between atoms: C_16  and  C_19
REMARK    6  A    between atoms: N_17  and  O_18
REMARK    7  A    between atoms: C_25  and  O_26
REMARK                            x       y       z     vdW  Elec       q    Type
REMARK                         _______ _______ _______ _____ _____    ______ ____
ROOT
ATOM      1  N   UNL     1      -7.936   4.326 130.706  0.00  0.00    +0.000 N 
ATOM      2  C   UNL     1      -7.965   5.570 131.328  0.00  0.00    +0.000 C 
ATOM      3  O   UNL     1      -6.933   6.130 131.681  0.00  0.00    +0.000 OA
ATOM      4  H   UNL     1      -8.841   3.922 130.472  0.00  0.00    +0.000 HD
ENDROOT
BRANCH   1  13
ATOM      5  C   UNL     1      -6.678   2.299 129.600  0.00  0.00    +0.000 C 
ATOM      6  S   UNL     1      -8.197   1.836 128.741  0.00  0.00    +0.000 S 
ATOM      7  CG2 UNL     1      -7.328   0.622 127.709  0.00  0.00    +0.000 C 
ATOM      8  CB  UNL     1      -6.138   1.188 126.938  0.00  0.00    +0.000 C 
ATOM      9  CA  UNL     1      -5.446   2.288 127.375  0.00  0.00    +0.000 C 
ATOM     10  N   UNL     1      -5.743   2.848 128.613  0.00  0.00    +0.000 N 
ATOM     11  C   UNL     1      -5.924   4.145 128.993  0.00  0.00    +0.000 C 
ATOM     12  O   UNL     1      -5.552   5.162 128.466  0.00  0.00    +0.000 OA
ATOM     13  CA  UNL     1      -6.652   3.694 130.298  0.00  0.00    +0.000 C 
BRANCH   8  14
ATOM     14  CG1 UNL     1      -5.847   0.445 125.693  0.00  0.00    +0.000 C 
ATOM     15  CD1 UNL     1      -6.703   0.064 124.734  0.00  0.00    +0.000 C 
ENDBRANCH   8  14
BRANCH   9  16
ATOM     16  C   UNL     1      -4.312   2.887 126.532  0.00  0.00    +0.000 C 
ATOM     17  OXT UNL     1      -4.453   3.720 125.648  0.00  0.00    +0.000 OA
BRANCH  16  18
ATOM     18  O   UNL     1      -3.078   2.381 126.734  0.00  0.00    +0.000 OA
ATOM     19  H   UNL     1      -2.908   1.494 126.371  0.00  0.00    +0.000 HD
ENDBRANCH  16  18
ENDBRANCH   9  16
ENDBRANCH   1  13
BRANCH   2  20
ATOM     20  C   UNL     1      -9.340   6.215 131.620  0.00  0.00    +0.000 C 
ATOM     21  N   UNL     1      -9.798   6.488 132.819  0.00  0.00    +0.000 NA
BRANCH  20  22
ATOM     22  C   UNL     1     -10.215   6.627 130.498  0.00  0.00    +0.000 A 
ATOM     23  C   UNL     1     -11.488   6.116 130.308  0.00  0.00    +0.000 A 
ATOM     24  S   UNL     1     -12.231   6.823 128.939  0.00  0.00    +0.000 S 
ATOM     25  C   UNL     1     -10.816   7.755 128.660  0.00  0.00    +0.000 A 
ATOM     26  N   UNL     1     -10.757   8.595 127.616  0.00  0.00    +0.000 N 
ATOM     27  N   UNL     1      -9.846   7.568 129.527  0.00  0.00    +0.000 NA
ATOM     28  H   UNL     1     -11.539   8.726 126.988  0.00  0.00    +0.000 HD
ATOM     29  H   UNL     1      -9.937   9.165 127.461  0.00  0.00    +0.000 HD
ENDBRANCH  20  22
BRANCH  21  30
ATOM     30  O   UNL     1      -8.959   6.107 133.873  0.00  0.00    +0.000 OA
ATOM     31  H   UNL     1      -8.328   6.853 133.940  0.00  0.00    +0.000 HD
ENDBRANCH  21  30
ENDBRANCH   2  20
TORSDOF 7
ENDMDL
