MODEL 1
REMARK VINA RESULT:      -7.4      0.000      0.000
REMARK  Name = Cefixime
REMARK  10 active torsions:
REMARK  status: ('A' for Active; 'I' for Inactive)
REMARK    1  A    between atoms: CB_5  and  CG1_6
REMARK    2  A    between atoms: CA_8  and  C_29
REMARK    3  A    between atoms: CA_12  and  N_13
REMARK    4  A    between atoms: C_14  and  C_16
REMARK    5  A    between atoms: C_16  and  C_23
REMARK    6  A    between atoms: N_17  and  O_18
REMARK    7  A    between atoms: O_18  and  C_19
REMARK    8  A    between atoms: C_19  and  C_20
REMARK    9  A    between atoms: C_20  and  O_21
REMARK   10  A    between atoms: C_29  and  O_30
REMARK                            x       y       z     vdW  Elec       q    Type
REMARK                         _______ _______ _______ _____ _____    ______ ____
ROOT
ATOM      1  N   UNL     1      -8.543   3.585 128.728  0.00  0.00    +0.000 N 
ATOM      2  C   UNL     1      -8.865   4.717 129.462  0.00  0.00    +0.000 C 
ATOM      3  O   UNL     1      -8.223   5.750 129.347  0.00  0.00    +0.000 OA
ATOM      4  H   UNL     1      -9.132   2.807 128.958  0.00  0.00    +0.000 HD
ENDROOT
BRANCH   1  13
ATOM      5  C   UNL     1      -7.069   2.227 127.025  0.00  0.00    +0.000 C 
ATOM      6  S   UNL     1      -8.234   0.852 127.130  0.00  0.00    +0.000 S 
ATOM      7  CG2 UNL     1      -7.426  -0.023 125.755  0.00  0.00    +0.000 C 
ATOM      8  CB  UNL     1      -7.306   0.799 124.474  0.00  0.00    +0.000 C 
ATOM      9  CA  UNL     1      -7.275   2.169 124.492  0.00  0.00    +0.000 C 
ATOM     10  N   UNL     1      -7.220   2.849 125.706  0.00  0.00    +0.000 N 
ATOM     11  C   UNL     1      -7.909   3.930 126.169  0.00  0.00    +0.000 C 
ATOM     12  O   UNL     1      -8.519   4.777 125.574  0.00  0.00    +0.000 OA
ATOM     13  CA  UNL     1      -7.523   3.586 127.646  0.00  0.00    +0.000 C 
BRANCH   8  14
ATOM     14  CG1 UNL     1      -7.254  -0.035 123.252  0.00  0.00    +0.000 C 
ATOM     15  CD1 UNL     1      -6.564  -1.165 123.046  0.00  0.00    +0.000 C 
ENDBRANCH   8  14
BRANCH   9  16
ATOM     16  C   UNL     1      -7.248   2.969 123.180  0.00  0.00    +0.000 C 
ATOM     17  OXT UNL     1      -6.250   3.198 122.513  0.00  0.00    +0.000 OA
BRANCH  16  18
ATOM     18  O   UNL     1      -8.410   3.536 122.796  0.00  0.00    +0.000 OA
ATOM     19  H   UNL     1      -9.224   3.043 122.996  0.00  0.00    +0.000 HD
ENDBRANCH  16  18
ENDBRANCH   9  16
ENDBRANCH   1  13
BRANCH   2  20
ATOM     20  C   UNL     1     -10.042   4.595 130.478  0.00  0.00    +0.000 C 
ATOM     21  N   UNL     1     -10.088   3.715 131.461  0.00  0.00    +0.000 NA
BRANCH  20  22
ATOM     22  C   UNL     1     -11.161   5.560 130.386  0.00  0.00    +0.000 A 
ATOM     23  C   UNL     1     -11.551   6.377 131.432  0.00  0.00    +0.000 A 
ATOM     24  S   UNL     1     -12.839   7.400 130.959  0.00  0.00    +0.000 S 
ATOM     25  C   UNL     1     -12.820   6.694 129.393  0.00  0.00    +0.000 A 
ATOM     26  N   UNL     1     -13.691   7.102 128.459  0.00  0.00    +0.000 N 
ATOM     27  N   UNL     1     -11.912   5.760 129.218  0.00  0.00    +0.000 NA
ATOM     28  H   UNL     1     -14.362   7.840 128.635  0.00  0.00    +0.000 HD
ATOM     29  H   UNL     1     -13.672   6.709 127.527  0.00  0.00    +0.000 HD
ENDBRANCH  20  22
BRANCH  21  30
ATOM     30  O   UNL     1      -8.988   2.832 131.493  0.00  0.00    +0.000 OA
BRANCH  30  31
ATOM     31  C   UNL     1      -8.739   2.321 132.800  0.00  0.00    +0.000 C 
BRANCH  31  32
ATOM     32  C   UNL     1      -8.662   3.445 133.840  0.00  0.00    +0.000 C 
ATOM     33  O   UNL     1      -7.604   3.833 134.316  0.00  0.00    +0.000 OA
BRANCH  32  34
ATOM     34  O   UNL     1      -9.825   4.006 134.235  0.00  0.00    +0.000 OA
ATOM     35  H   UNL     1     -10.514   3.421 134.574  0.00  0.00    +0.000 HD
ENDBRANCH  32  34
ENDBRANCH  31  32
ENDBRANCH  30  31
ENDBRANCH  21  30
ENDBRANCH   2  20
TORSDOF 10
ENDMDL
MODEL 2
REMARK VINA RESULT:      -7.2      3.224      5.143
REMARK  Name = Cefixime
REMARK  10 active torsions:
REMARK  status: ('A' for Active; 'I' for Inactive)
REMARK    1  A    between atoms: CB_5  and  CG1_6
REMARK    2  A    between atoms: CA_8  and  C_29
REMARK    3  A    between atoms: CA_12  and  N_13
REMARK    4  A    between atoms: C_14  and  C_16
REMARK    5  A    between atoms: C_16  and  C_23
REMARK    6  A    between atoms: N_17  and  O_18
REMARK    7  A    between atoms: O_18  and  C_19
REMARK    8  A    between atoms: C_19  and  C_20
REMARK    9  A    between atoms: C_20  and  O_21
REMARK   10  A    between atoms: C_29  and  O_30
REMARK                            x       y       z     vdW  Elec       q    Type
REMARK                         _______ _______ _______ _____ _____    ______ ____
ROOT
ATOM      1  N   UNL     1      -7.485   2.199 126.538  0.00  0.00    +0.000 N 
ATOM      2  C   UNL     1      -7.945   3.485 126.773  0.00  0.00    +0.000 C 
ATOM      3  O   UNL     1      -8.520   4.122 125.904  0.00  0.00    +0.000 OA
ATOM      4  H   UNL     1      -7.000   1.820 127.331  0.00  0.00    +0.000 HD
ENDROOT
BRANCH   1  13
ATOM      5  C   UNL     1      -6.744   0.431 124.737  0.00  0.00    +0.000 C 
ATOM      6  S   UNL     1      -5.580  -0.274 125.924  0.00  0.00    +0.000 S 
ATOM      7  CG2 UNL     1      -5.227  -1.689 124.836  0.00  0.00    +0.000 C 
ATOM      8  CB  UNL     1      -6.466  -2.470 124.403  0.00  0.00    +0.000 C 
ATOM      9  CA  UNL     1      -7.707  -1.889 124.349  0.00  0.00    +0.000 C 
ATOM     10  N   UNL     1      -7.846  -0.520 124.563  0.00  0.00    +0.000 N 
ATOM     11  C   UNL     1      -8.730   0.191 125.318  0.00  0.00    +0.000 C 
ATOM     12  O   UNL     1      -9.806  -0.118 125.754  0.00  0.00    +0.000 OA
ATOM     13  CA  UNL     1      -7.793   1.444 125.294  0.00  0.00    +0.000 C 
BRANCH   8  14
ATOM     14  CG1 UNL     1      -6.178  -3.886 124.086  0.00  0.00    +0.000 C 
ATOM     15  CD1 UNL     1      -4.988  -4.465 123.874  0.00  0.00    +0.000 C 
ENDBRANCH   8  14
BRANCH   9  16
ATOM     16  C   UNL     1      -8.948  -2.726 123.999  0.00  0.00    +0.000 C 
ATOM     17  OXT UNL     1      -9.246  -3.113 122.879  0.00  0.00    +0.000 OA
BRANCH  16  18
ATOM     18  O   UNL     1      -9.817  -2.963 125.003  0.00  0.00    +0.000 OA
ATOM     19  H   UNL     1     -10.348  -3.775 124.939  0.00  0.00    +0.000 HD
ENDBRANCH  16  18
ENDBRANCH   9  16
ENDBRANCH   1  13
BRANCH   2  20
ATOM     20  C   UNL     1      -7.647   4.102 128.175  0.00  0.00    +0.000 C 
ATOM     21  N   UNL     1      -6.574   4.818 128.460  0.00  0.00    +0.000 NA
BRANCH  20  22
ATOM     22  C   UNL     1      -8.649   3.935 129.251  0.00  0.00    +0.000 A 
ATOM     23  C   UNL     1      -8.693   2.832 130.086  0.00  0.00    +0.000 A 
ATOM     24  S   UNL     1      -9.941   2.995 131.245  0.00  0.00    +0.000 S 
ATOM     25  C   UNL     1     -10.367   4.516 130.569  0.00  0.00    +0.000 A 
ATOM     26  N   UNL     1     -11.386   5.220 131.080  0.00  0.00    +0.000 N 
ATOM     27  N   UNL     1      -9.629   4.894 129.549  0.00  0.00    +0.000 NA
ATOM     28  H   UNL     1     -11.916   4.896 131.880  0.00  0.00    +0.000 HD
ATOM     29  H   UNL     1     -11.630   6.127 130.703  0.00  0.00    +0.000 HD
ENDBRANCH  20  22
BRANCH  21  30
ATOM     30  O   UNL     1      -5.666   4.943 127.387  0.00  0.00    +0.000 OA
BRANCH  30  31
ATOM     31  C   UNL     1      -4.447   4.243 127.623  0.00  0.00    +0.000 C 
BRANCH  31  32
ATOM     32  C   UNL     1      -4.114   3.288 126.472  0.00  0.00    +0.000 C 
ATOM     33  O   UNL     1      -4.736   3.280 125.418  0.00  0.00    +0.000 OA
BRANCH  32  34
ATOM     34  O   UNL     1      -3.092   2.425 126.657  0.00  0.00    +0.000 OA
ATOM     35  H   UNL     1      -3.308   1.493 126.790  0.00  0.00    +0.000 HD
ENDBRANCH  32  34
ENDBRANCH  31  32
ENDBRANCH  30  31
ENDBRANCH  21  30
ENDBRANCH   2  20
TORSDOF 10
ENDMDL
MODEL 3
REMARK VINA RESULT:      -7.2      2.733      3.288
REMARK  Name = Cefixime
REMARK  10 active torsions:
REMARK  status: ('A' for Active; 'I' for Inactive)
REMARK    1  A    between atoms: CB_5  and  CG1_6
REMARK    2  A    between atoms: CA_8  and  C_29
REMARK    3  A    between atoms: CA_12  and  N_13
REMARK    4  A    between atoms: C_14  and  C_16
REMARK    5  A    between atoms: C_16  and  C_23
REMARK    6  A    between atoms: N_17  and  O_18
REMARK    7  A    between atoms: O_18  and  C_19
REMARK    8  A    between atoms: C_19  and  C_20
REMARK    9  A    between atoms: C_20  and  O_21
REMARK   10  A    between atoms: C_29  and  O_30
REMARK                            x       y       z     vdW  Elec       q    Type
REMARK                         _______ _______ _______ _____ _____    ______ ____
ROOT
ATOM      1  N   UNL     1      -7.919   3.091 129.430  0.00  0.00    +0.000 N 
ATOM      2  C   UNL     1      -8.160   4.431 129.170  0.00  0.00    +0.000 C 
ATOM      3  O   UNL     1      -7.736   4.966 128.156  0.00  0.00    +0.000 OA
ATOM      4  H   UNL     1      -8.295   2.805 130.315  0.00  0.00    +0.000 HD
ENDROOT
BRANCH   1  13
ATOM      5  C   UNL     1      -6.963   0.708 128.862  0.00  0.00    +0.000 C 
ATOM      6  S   UNL     1      -7.952   0.004 130.200  0.00  0.00    +0.000 S 
ATOM      7  CG2 UNL     1      -7.556  -1.695 129.687  0.00  0.00    +0.000 C 
ATOM      8  CB  UNL     1      -7.889  -2.003 128.228  0.00  0.00    +0.000 C 
ATOM      9  CA  UNL     1      -7.939  -1.020 127.273  0.00  0.00    +0.000 C 
ATOM     10  N   UNL     1      -7.553   0.280 127.590  0.00  0.00    +0.000 N 
ATOM     11  C   UNL     1      -8.130   1.485 127.322  0.00  0.00    +0.000 C 
ATOM     12  O   UNL     1      -8.945   1.790 126.494  0.00  0.00    +0.000 OA
ATOM     13  CA  UNL     1      -7.286   2.176 128.443  0.00  0.00    +0.000 C 
BRANCH   8  14
ATOM     14  CG1 UNL     1      -8.166  -3.436 127.986  0.00  0.00    +0.000 C 
ATOM     15  CD1 UNL     1      -9.284  -4.125 128.258  0.00  0.00    +0.000 C 
ENDBRANCH   8  14
BRANCH   9  16
ATOM     16  C   UNL     1      -8.369  -1.349 125.835  0.00  0.00    +0.000 C 
ATOM     17  OXT UNL     1      -7.620  -1.710 124.939  0.00  0.00    +0.000 OA
BRANCH  16  18
ATOM     18  O   UNL     1      -9.662  -1.123 125.526  0.00  0.00    +0.000 OA
ATOM     19  H   UNL     1     -10.188  -1.897 125.259  0.00  0.00    +0.000 HD
ENDBRANCH  16  18
ENDBRANCH   9  16
ENDBRANCH   1  13
BRANCH   2  20
ATOM     20  C   UNL     1      -8.944   5.237 130.251  0.00  0.00    +0.000 C 
ATOM     21  N   UNL     1      -8.600   5.303 131.525  0.00  0.00    +0.000 NA
BRANCH  20  22
ATOM     22  C   UNL     1     -10.119   6.032 129.830  0.00  0.00    +0.000 A 
ATOM     23  C   UNL     1     -11.425   5.670 130.109  0.00  0.00    +0.000 A 
ATOM     24  S   UNL     1     -12.523   6.844 129.521  0.00  0.00    +0.000 S 
ATOM     25  C   UNL     1     -11.206   7.766 128.914  0.00  0.00    +0.000 A 
ATOM     26  N   UNL     1     -11.431   8.919 128.269  0.00  0.00    +0.000 N 
ATOM     27  N   UNL     1     -10.019   7.248 129.136  0.00  0.00    +0.000 NA
ATOM     28  H   UNL     1     -12.365   9.289 128.137  0.00  0.00    +0.000 HD
ATOM     29  H   UNL     1     -10.661   9.481 127.928  0.00  0.00    +0.000 HD
ENDBRANCH  20  22
BRANCH  21  30
ATOM     30  O   UNL     1      -7.469   4.526 131.855  0.00  0.00    +0.000 OA
BRANCH  30  31
ATOM     31  C   UNL     1      -7.538   4.001 133.177  0.00  0.00    +0.000 C 
BRANCH  31  32
ATOM     32  C   UNL     1      -8.843   3.232 133.412  0.00  0.00    +0.000 C 
ATOM     33  O   UNL     1      -8.975   2.050 133.121  0.00  0.00    +0.000 OA
BRANCH  32  34
ATOM     34  O   UNL     1      -9.876   3.912 133.954  0.00  0.00    +0.000 OA
ATOM     35  H   UNL     1     -10.238   4.654 133.455  0.00  0.00    +0.000 HD
ENDBRANCH  32  34
ENDBRANCH  31  32
ENDBRANCH  30  31
ENDBRANCH  21  30
ENDBRANCH   2  20
TORSDOF 10
ENDMDL
MODEL 4
REMARK VINA RESULT:      -7.0      3.117      4.453
REMARK  Name = Cefixime
REMARK  10 active torsions:
REMARK  status: ('A' for Active; 'I' for Inactive)
REMARK    1  A    between atoms: CB_5  and  CG1_6
REMARK    2  A    between atoms: CA_8  and  C_29
REMARK    3  A    between atoms: CA_12  and  N_13
REMARK    4  A    between atoms: C_14  and  C_16
REMARK    5  A    between atoms: C_16  and  C_23
REMARK    6  A    between atoms: N_17  and  O_18
REMARK    7  A    between atoms: O_18  and  C_19
REMARK    8  A    between atoms: C_19  and  C_20
REMARK    9  A    between atoms: C_20  and  O_21
REMARK   10  A    between atoms: C_29  and  O_30
REMARK                            x       y       z     vdW  Elec       q    Type
REMARK                         _______ _______ _______ _____ _____    ______ ____
ROOT
ATOM      1  N   UNL     1      -7.983   2.362 127.046  0.00  0.00    +0.000 N 
ATOM      2  C   UNL     1      -7.664   3.701 127.212  0.00  0.00    +0.000 C 
ATOM      3  O   UNL     1      -7.342   4.398 126.262  0.00  0.00    +0.000 OA
ATOM      4  H   UNL     1      -8.188   1.912 127.919  0.00  0.00    +0.000 HD
ENDROOT
BRANCH   1  13
ATOM      5  C   UNL     1      -6.970   0.806 125.183  0.00  0.00    +0.000 C 
ATOM      6  S   UNL     1      -5.909   0.031 126.423  0.00  0.00    +0.000 S 
ATOM      7  CG2 UNL     1      -5.376  -1.257 125.254  0.00  0.00    +0.000 C 
ATOM      8  CB  UNL     1      -6.523  -2.037 124.615  0.00  0.00    +0.000 C 
ATOM      9  CA  UNL     1      -7.776  -1.498 124.475  0.00  0.00    +0.000 C 
ATOM     10  N   UNL     1      -8.001  -0.162 124.799  0.00  0.00    +0.000 N 
ATOM     11  C   UNL     1      -8.994   0.439 125.513  0.00  0.00    +0.000 C 
ATOM     12  O   UNL     1     -10.095   0.050 125.795  0.00  0.00    +0.000 OA
ATOM     13  CA  UNL     1      -8.119   1.722 125.711  0.00  0.00    +0.000 C 
BRANCH   8  14
ATOM     14  CG1 UNL     1      -6.136  -3.404 124.201  0.00  0.00    +0.000 C 
ATOM     15  CD1 UNL     1      -4.922  -3.856 123.856  0.00  0.00    +0.000 C 
ENDBRANCH   8  14
BRANCH   9  16
ATOM     16  C   UNL     1      -8.932  -2.341 123.913  0.00  0.00    +0.000 C 
ATOM     17  OXT UNL     1      -9.161  -2.521 122.726  0.00  0.00    +0.000 OA
BRANCH  16  18
ATOM     18  O   UNL     1      -9.808  -2.837 124.810  0.00  0.00    +0.000 OA
ATOM     19  H   UNL     1      -9.809  -2.426 125.692  0.00  0.00    +0.000 HD
ENDBRANCH  16  18
ENDBRANCH   9  16
ENDBRANCH   1  13
BRANCH   2  20
ATOM     20  C   UNL     1      -7.679   4.261 128.668  0.00  0.00    +0.000 C 
ATOM     21  N   UNL     1      -6.654   4.205 129.498  0.00  0.00    +0.000 NA
BRANCH  20  22
ATOM     22  C   UNL     1      -8.894   4.958 129.147  0.00  0.00    +0.000 A 
ATOM     23  C   UNL     1      -9.569   4.605 130.302  0.00  0.00    +0.000 A 
ATOM     24  S   UNL     1     -10.893   5.654 130.580  0.00  0.00    +0.000 S 
ATOM     25  C   UNL     1     -10.509   6.513 129.142  0.00  0.00    +0.000 A 
ATOM     26  N   UNL     1     -11.260   7.555 128.758  0.00  0.00    +0.000 N 
ATOM     27  N   UNL     1      -9.459   6.063 128.492  0.00  0.00    +0.000 NA
ATOM     28  H   UNL     1     -12.050   7.878 129.303  0.00  0.00    +0.000 HD
ATOM     29  H   UNL     1     -11.027   8.082 127.926  0.00  0.00    +0.000 HD
ENDBRANCH  20  22
BRANCH  21  30
ATOM     30  O   UNL     1      -5.528   3.533 128.974  0.00  0.00    +0.000 OA
BRANCH  30  31
ATOM     31  C   UNL     1      -4.319   4.258 129.180  0.00  0.00    +0.000 C 
BRANCH  31  32
ATOM     32  C   UNL     1      -3.869   4.978 127.904  0.00  0.00    +0.000 C 
ATOM     33  O   UNL     1      -2.726   4.906 127.473  0.00  0.00    +0.000 OA
BRANCH  32  34
ATOM     34  O   UNL     1      -4.789   5.723 127.253  0.00  0.00    +0.000 OA
ATOM     35  H   UNL     1      -4.668   5.858 126.305  0.00  0.00    +0.000 HD
ENDBRANCH  32  34
ENDBRANCH  31  32
ENDBRANCH  30  31
ENDBRANCH  21  30
ENDBRANCH   2  20
TORSDOF 10
ENDMDL
MODEL 5
REMARK VINA RESULT:      -6.9      3.440      5.329
REMARK  Name = Cefixime
REMARK  10 active torsions:
REMARK  status: ('A' for Active; 'I' for Inactive)
REMARK    1  A    between atoms: CB_5  and  CG1_6
REMARK    2  A    between atoms: CA_8  and  C_29
REMARK    3  A    between atoms: CA_12  and  N_13
REMARK    4  A    between atoms: C_14  and  C_16
REMARK    5  A    between atoms: C_16  and  C_23
REMARK    6  A    between atoms: N_17  and  O_18
REMARK    7  A    between atoms: O_18  and  C_19
REMARK    8  A    between atoms: C_19  and  C_20
REMARK    9  A    between atoms: C_20  and  O_21
REMARK   10  A    between atoms: C_29  and  O_30
REMARK                            x       y       z     vdW  Elec       q    Type
REMARK                         _______ _______ _______ _____ _____    ______ ____
ROOT
ATOM      1  N   UNL     1      -8.293   2.517 126.897  0.00  0.00    +0.000 N 
ATOM      2  C   UNL     1      -7.705   3.717 127.270  0.00  0.00    +0.000 C 
ATOM      3  O   UNL     1      -6.888   4.272 126.552  0.00  0.00    +0.000 OA
ATOM      4  H   UNL     1      -8.911   2.164 127.604  0.00  0.00    +0.000 HD
ENDROOT
BRANCH   1  13
ATOM      5  C   UNL     1      -6.873   0.989 125.296  0.00  0.00    +0.000 C 
ATOM      6  S   UNL     1      -6.151   0.171 126.735  0.00  0.00    +0.000 S 
ATOM      7  CG2 UNL     1      -5.361  -1.099 125.699  0.00  0.00    +0.000 C 
ATOM      8  CB  UNL     1      -6.326  -1.847 124.781  0.00  0.00    +0.000 C 
ATOM      9  CA  UNL     1      -7.504  -1.287 124.357  0.00  0.00    +0.000 C 
ATOM     10  N   UNL     1      -7.789   0.044 124.650  0.00  0.00    +0.000 N 
ATOM     11  C   UNL     1      -8.919   0.645 125.117  0.00  0.00    +0.000 C 
ATOM     12  O   UNL     1     -10.059   0.265 125.115  0.00  0.00    +0.000 OA
ATOM     13  CA  UNL     1      -8.107   1.909 125.553  0.00  0.00    +0.000 C 
BRANCH   8  14
ATOM     14  CG1 UNL     1      -5.863  -3.210 124.439  0.00  0.00    +0.000 C 
ATOM     15  CD1 UNL     1      -4.772  -3.569 123.748  0.00  0.00    +0.000 C 
ENDBRANCH   8  14
BRANCH   9  16
ATOM     16  C   UNL     1      -8.496  -2.101 123.510  0.00  0.00    +0.000 C 
ATOM     17  OXT UNL     1      -8.432  -2.253 122.300  0.00  0.00    +0.000 OA
BRANCH  16  18
ATOM     18  O   UNL     1      -9.570  -2.600 124.155  0.00  0.00    +0.000 OA
ATOM     19  H   UNL     1     -10.401  -2.102 124.071  0.00  0.00    +0.000 HD
ENDBRANCH  16  18
ENDBRANCH   9  16
ENDBRANCH   1  13
BRANCH   2  20
ATOM     20  C   UNL     1      -8.091   4.294 128.667  0.00  0.00    +0.000 C 
ATOM     21  N   UNL     1      -8.941   5.286 128.854  0.00  0.00    +0.000 NA
BRANCH  20  22
ATOM     22  C   UNL     1      -7.521   3.660 129.878  0.00  0.00    +0.000 A 
ATOM     23  C   UNL     1      -6.182   3.342 130.013  0.00  0.00    +0.000 A 
ATOM     24  S   UNL     1      -5.866   2.674 131.557  0.00  0.00    +0.000 S 
ATOM     25  C   UNL     1      -7.529   2.829 131.960  0.00  0.00    +0.000 A 
ATOM     26  N   UNL     1      -7.972   2.428 133.160  0.00  0.00    +0.000 N 
ATOM     27  N   UNL     1      -8.281   3.351 131.016  0.00  0.00    +0.000 NA
ATOM     28  H   UNL     1      -7.351   2.048 133.864  0.00  0.00    +0.000 HD
ATOM     29  H   UNL     1      -8.946   2.537 133.415  0.00  0.00    +0.000 HD
ENDBRANCH  20  22
BRANCH  21  30
ATOM     30  O   UNL     1      -9.450   5.838 127.659  0.00  0.00    +0.000 OA
BRANCH  30  31
ATOM     31  C   UNL     1     -10.377   6.893 127.898  0.00  0.00    +0.000 C 
BRANCH  31  32
ATOM     32  C   UNL     1     -11.111   7.301 126.616  0.00  0.00    +0.000 C 
ATOM     33  O   UNL     1     -10.795   8.282 125.957  0.00  0.00    +0.000 OA
BRANCH  32  34
ATOM     34  O   UNL     1     -12.151   6.533 126.224  0.00  0.00    +0.000 OA
ATOM     35  H   UNL     1     -12.607   6.775 125.408  0.00  0.00    +0.000 HD
ENDBRANCH  32  34
ENDBRANCH  31  32
ENDBRANCH  30  31
ENDBRANCH  21  30
ENDBRANCH   2  20
TORSDOF 10
ENDMDL
MODEL 6
REMARK VINA RESULT:      -6.8      3.326      4.904
REMARK  Name = Cefixime
REMARK  10 active torsions:
REMARK  status: ('A' for Active; 'I' for Inactive)
REMARK    1  A    between atoms: CB_5  and  CG1_6
REMARK    2  A    between atoms: CA_8  and  C_29
REMARK    3  A    between atoms: CA_12  and  N_13
REMARK    4  A    between atoms: C_14  and  C_16
REMARK    5  A    between atoms: C_16  and  C_23
REMARK    6  A    between atoms: N_17  and  O_18
REMARK    7  A    between atoms: O_18  and  C_19
REMARK    8  A    between atoms: C_19  and  C_20
REMARK    9  A    between atoms: C_20  and  O_21
REMARK   10  A    between atoms: C_29  and  O_30
REMARK                            x       y       z     vdW  Elec       q    Type
REMARK                         _______ _______ _______ _____ _____    ______ ____
ROOT
ATOM      1  N   UNL     1      -6.360   2.802 126.791  0.00  0.00    +0.000 N 
ATOM      2  C   UNL     1      -6.730   3.903 127.549  0.00  0.00    +0.000 C 
ATOM      3  O   UNL     1      -7.301   4.857 127.043  0.00  0.00    +0.000 OA
ATOM      4  H   UNL     1      -5.866   2.119 127.335  0.00  0.00    +0.000 HD
ENDROOT
BRANCH   1  13
ATOM      5  C   UNL     1      -6.561   1.235 124.689  0.00  0.00    +0.000 C 
ATOM      6  S   UNL     1      -6.509  -0.208 125.774  0.00  0.00    +0.000 S 
ATOM      7  CG2 UNL     1      -6.929  -1.332 124.406  0.00  0.00    +0.000 C 
ATOM      8  CB  UNL     1      -8.211  -0.963 123.662  0.00  0.00    +0.000 C 
ATOM      9  CA  UNL     1      -8.683   0.324 123.627  0.00  0.00    +0.000 C 
ATOM     10  N   UNL     1      -7.924   1.361 124.166  0.00  0.00    +0.000 N 
ATOM     11  C   UNL     1      -8.263   2.400 124.979  0.00  0.00    +0.000 C 
ATOM     12  O   UNL     1      -9.335   2.892 125.208  0.00  0.00    +0.000 OA
ATOM     13  CA  UNL     1      -6.765   2.624 125.372  0.00  0.00    +0.000 C 
BRANCH   8  14
ATOM     14  CG1 UNL     1      -8.870  -2.126 123.028  0.00  0.00    +0.000 C 
ATOM     15  CD1 UNL     1      -9.405  -3.202 123.620  0.00  0.00    +0.000 C 
ENDBRANCH   8  14
BRANCH   9  16
ATOM     16  C   UNL     1     -10.024   0.647 122.949  0.00  0.00    +0.000 C 
ATOM     17  OXT UNL     1     -10.197   0.761 121.745  0.00  0.00    +0.000 OA
BRANCH  16  18
ATOM     18  O   UNL     1     -11.062   0.916 123.767  0.00  0.00    +0.000 OA
ATOM     19  H   UNL     1     -11.115   0.401 124.590  0.00  0.00    +0.000 HD
ENDBRANCH  16  18
ENDBRANCH   9  16
ENDBRANCH   1  13
BRANCH   2  20
ATOM     20  C   UNL     1      -6.337   3.893 129.059  0.00  0.00    +0.000 C 
ATOM     21  N   UNL     1      -5.124   4.150 129.513  0.00  0.00    +0.000 NA
BRANCH  20  22
ATOM     22  C   UNL     1      -7.392   3.639 130.065  0.00  0.00    +0.000 A 
ATOM     23  C   UNL     1      -7.298   2.659 131.038  0.00  0.00    +0.000 A 
ATOM     24  S   UNL     1      -8.669   2.681 132.061  0.00  0.00    +0.000 S 
ATOM     25  C   UNL     1      -9.324   3.982 131.149  0.00  0.00    +0.000 A 
ATOM     26  N   UNL     1     -10.515   4.502 131.476  0.00  0.00    +0.000 N 
ATOM     27  N   UNL     1      -8.575   4.389 130.148  0.00  0.00    +0.000 NA
ATOM     28  H   UNL     1     -11.050   4.167 132.268  0.00  0.00    +0.000 HD
ATOM     29  H   UNL     1     -10.898   5.284 130.959  0.00  0.00    +0.000 HD
ENDBRANCH  20  22
BRANCH  21  30
ATOM     30  O   UNL     1      -4.170   4.389 128.501  0.00  0.00    +0.000 OA
BRANCH  30  31
ATOM     31  C   UNL     1      -3.158   3.387 128.460  0.00  0.00    +0.000 C 
BRANCH  31  32
ATOM     32  C   UNL     1      -2.656   3.150 127.032  0.00  0.00    +0.000 C 
ATOM     33  O   UNL     1      -3.307   3.460 126.043  0.00  0.00    +0.000 OA
BRANCH  32  34
ATOM     34  O   UNL     1      -1.447   2.567 126.886  0.00  0.00    +0.000 OA
ATOM     35  H   UNL     1      -1.008   2.237 127.681  0.00  0.00    +0.000 HD
ENDBRANCH  32  34
ENDBRANCH  31  32
ENDBRANCH  30  31
ENDBRANCH  21  30
ENDBRANCH   2  20
TORSDOF 10
ENDMDL
MODEL 7
REMARK VINA RESULT:      -6.8      2.464      4.181
REMARK  Name = Cefixime
REMARK  10 active torsions:
REMARK  status: ('A' for Active; 'I' for Inactive)
REMARK    1  A    between atoms: CB_5  and  CG1_6
REMARK    2  A    between atoms: CA_8  and  C_29
REMARK    3  A    between atoms: CA_12  and  N_13
REMARK    4  A    between atoms: C_14  and  C_16
REMARK    5  A    between atoms: C_16  and  C_23
REMARK    6  A    between atoms: N_17  and  O_18
REMARK    7  A    between atoms: O_18  and  C_19
REMARK    8  A    between atoms: C_19  and  C_20
REMARK    9  A    between atoms: C_20  and  O_21
REMARK   10  A    between atoms: C_29  and  O_30
REMARK                            x       y       z     vdW  Elec       q    Type
REMARK                         _______ _______ _______ _____ _____    ______ ____
ROOT
ATOM      1  N   UNL     1      -8.054   3.989 128.552  0.00  0.00    +0.000 N 
ATOM      2  C   UNL     1      -7.738   4.860 129.584  0.00  0.00    +0.000 C 
ATOM      3  O   UNL     1      -6.644   5.400 129.644  0.00  0.00    +0.000 OA
ATOM      4  H   UNL     1      -8.970   3.594 128.659  0.00  0.00    +0.000 HD
ENDROOT
BRANCH   1  13
ATOM      5  C   UNL     1      -6.950   2.324 126.841  0.00  0.00    +0.000 C 
ATOM      6  S   UNL     1      -8.246   1.117 127.197  0.00  0.00    +0.000 S 
ATOM      7  CG2 UNL     1      -7.706   0.040 125.834  0.00  0.00    +0.000 C 
ATOM      8  CB  UNL     1      -7.641   0.734 124.475  0.00  0.00    +0.000 C 
ATOM      9  CA  UNL     1      -7.452   2.087 124.360  0.00  0.00    +0.000 C 
ATOM     10  N   UNL     1      -7.179   2.851 125.492  0.00  0.00    +0.000 N 
ATOM     11  C   UNL     1      -7.683   4.043 125.920  0.00  0.00    +0.000 C 
ATOM     12  O   UNL     1      -8.256   4.908 125.315  0.00  0.00    +0.000 OA
ATOM     13  CA  UNL     1      -7.172   3.774 127.375  0.00  0.00    +0.000 C 
BRANCH   8  14
ATOM     14  CG1 UNL     1      -7.825  -0.196 123.339  0.00  0.00    +0.000 C 
ATOM     15  CD1 UNL     1      -8.832  -1.054 123.121  0.00  0.00    +0.000 C 
ENDBRANCH   8  14
BRANCH   9  16
ATOM     16  C   UNL     1      -7.484   2.768 122.983  0.00  0.00    +0.000 C 
ATOM     17  OXT UNL     1      -6.547   2.823 122.200  0.00  0.00    +0.000 OA
BRANCH  16  18
ATOM     18  O   UNL     1      -8.613   3.435 122.667  0.00  0.00    +0.000 OA
ATOM     19  H   UNL     1      -9.205   3.665 123.404  0.00  0.00    +0.000 HD
ENDBRANCH  16  18
ENDBRANCH   9  16
ENDBRANCH   1  13
BRANCH   2  20
ATOM     20  C   UNL     1      -8.817   5.075 130.689  0.00  0.00    +0.000 C 
ATOM     21  N   UNL     1     -10.072   5.409 130.450  0.00  0.00    +0.000 NA
BRANCH  20  22
ATOM     22  C   UNL     1      -8.442   4.836 132.101  0.00  0.00    +0.000 A 
ATOM     23  C   UNL     1      -7.857   3.664 132.547  0.00  0.00    +0.000 A 
ATOM     24  S   UNL     1      -7.511   3.753 134.220  0.00  0.00    +0.000 S 
ATOM     25  C   UNL     1      -8.171   5.338 134.269  0.00  0.00    +0.000 A 
ATOM     26  N   UNL     1      -8.207   6.019 135.424  0.00  0.00    +0.000 N 
ATOM     27  N   UNL     1      -8.617   5.788 133.117  0.00  0.00    +0.000 NA
ATOM     28  H   UNL     1      -7.834   5.637 136.285  0.00  0.00    +0.000 HD
ATOM     29  H   UNL     1      -8.572   6.962 135.458  0.00  0.00    +0.000 HD
ENDBRANCH  20  22
BRANCH  21  30
ATOM     30  O   UNL     1     -10.360   5.615 129.084  0.00  0.00    +0.000 OA
BRANCH  30  31
ATOM     31  C   UNL     1     -10.963   6.883 128.841  0.00  0.00    +0.000 C 
BRANCH  31  32
ATOM     32  C   UNL     1     -10.696   7.369 127.412  0.00  0.00    +0.000 C 
ATOM     33  O   UNL     1     -10.873   8.530 127.065  0.00  0.00    +0.000 OA
BRANCH  32  34
ATOM     34  O   UNL     1     -10.256   6.459 126.517  0.00  0.00    +0.000 OA
ATOM     35  H   UNL     1      -9.804   6.785 125.729  0.00  0.00    +0.000 HD
ENDBRANCH  32  34
ENDBRANCH  31  32
ENDBRANCH  30  31
ENDBRANCH  21  30
ENDBRANCH   2  20
TORSDOF 10
ENDMDL
MODEL 8
REMARK VINA RESULT:      -6.8      3.271      4.921
REMARK  Name = Cefixime
REMARK  10 active torsions:
REMARK  status: ('A' for Active; 'I' for Inactive)
REMARK    1  A    between atoms: CB_5  and  CG1_6
REMARK    2  A    between atoms: CA_8  and  C_29
REMARK    3  A    between atoms: CA_12  and  N_13
REMARK    4  A    between atoms: C_14  and  C_16
REMARK    5  A    between atoms: C_16  and  C_23
REMARK    6  A    between atoms: N_17  and  O_18
REMARK    7  A    between atoms: O_18  and  C_19
REMARK    8  A    between atoms: C_19  and  C_20
REMARK    9  A    between atoms: C_20  and  O_21
REMARK   10  A    between atoms: C_29  and  O_30
REMARK                            x       y       z     vdW  Elec       q    Type
REMARK                         _______ _______ _______ _____ _____    ______ ____
ROOT
ATOM      1  N   UNL     1      -8.668   1.722 128.199  0.00  0.00    +0.000 N 
ATOM      2  C   UNL     1      -8.637   2.974 128.794  0.00  0.00    +0.000 C 
ATOM      3  O   UNL     1      -8.242   3.956 128.184  0.00  0.00    +0.000 OA
ATOM      4  H   UNL     1      -8.976   1.009 128.834  0.00  0.00    +0.000 HD
ENDROOT
BRANCH   1  13
ATOM      5  C   UNL     1      -7.115   0.706 126.335  0.00  0.00    +0.000 C 
ATOM      6  S   UNL     1      -6.452  -0.464 127.540  0.00  0.00    +0.000 S 
ATOM      7  CG2 UNL     1      -5.569  -1.393 126.249  0.00  0.00    +0.000 C 
ATOM      8  CB  UNL     1      -6.458  -1.875 125.104  0.00  0.00    +0.000 C 
ATOM      9  CA  UNL     1      -7.626  -1.235 124.775  0.00  0.00    +0.000 C 
ATOM     10  N   UNL     1      -7.965  -0.038 125.400  0.00  0.00    +0.000 N 
ATOM     11  C   UNL     1      -9.137   0.398 125.942  0.00  0.00    +0.000 C 
ATOM     12  O   UNL     1     -10.264   0.020 125.766  0.00  0.00    +0.000 OA
ATOM     13  CA  UNL     1      -8.389   1.506 126.755  0.00  0.00    +0.000 C 
BRANCH   8  14
ATOM     14  CG1 UNL     1      -5.938  -3.087 124.435  0.00  0.00    +0.000 C 
ATOM     15  CD1 UNL     1      -4.951  -3.179 123.532  0.00  0.00    +0.000 C 
ENDBRANCH   8  14
BRANCH   9  16
ATOM     16  C   UNL     1      -8.545  -1.799 123.679  0.00  0.00    +0.000 C 
ATOM     17  OXT UNL     1      -8.419  -1.599 122.481  0.00  0.00    +0.000 OA
BRANCH  16  18
ATOM     18  O   UNL     1      -9.626  -2.489 124.097  0.00  0.00    +0.000 OA
ATOM     19  H   UNL     1      -9.539  -2.972 124.936  0.00  0.00    +0.000 HD
ENDBRANCH  16  18
ENDBRANCH   9  16
ENDBRANCH   1  13
BRANCH   2  20
ATOM     20  C   UNL     1      -9.073   3.062 130.289  0.00  0.00    +0.000 C 
ATOM     21  N   UNL     1     -10.137   3.716 130.717  0.00  0.00    +0.000 NA
BRANCH  20  22
ATOM     22  C   UNL     1      -8.289   2.320 131.302  0.00  0.00    +0.000 A 
ATOM     23  C   UNL     1      -7.657   2.927 132.372  0.00  0.00    +0.000 A 
ATOM     24  S   UNL     1      -6.891   1.766 133.368  0.00  0.00    +0.000 S 
ATOM     25  C   UNL     1      -7.426   0.516 132.317  0.00  0.00    +0.000 A 
ATOM     26  N   UNL     1      -7.109  -0.761 132.571  0.00  0.00    +0.000 N 
ATOM     27  N   UNL     1      -8.138   0.925 131.290  0.00  0.00    +0.000 NA
ATOM     28  H   UNL     1      -6.572  -1.030 133.387  0.00  0.00    +0.000 HD
ATOM     29  H   UNL     1      -7.439  -1.506 131.971  0.00  0.00    +0.000 HD
ENDBRANCH  20  22
BRANCH  21  30
ATOM     30  O   UNL     1     -10.841   4.395 129.699  0.00  0.00    +0.000 OA
BRANCH  30  31
ATOM     31  C   UNL     1     -11.014   5.779 129.988  0.00  0.00    +0.000 C 
BRANCH  31  32
ATOM     32  C   UNL     1     -10.011   6.646 129.219  0.00  0.00    +0.000 C 
ATOM     33  O   UNL     1      -9.381   7.553 129.746  0.00  0.00    +0.000 OA
BRANCH  32  34
ATOM     34  O   UNL     1      -9.841   6.383 127.906  0.00  0.00    +0.000 OA
ATOM     35  H   UNL     1      -9.154   6.871 127.435  0.00  0.00    +0.000 HD
ENDBRANCH  32  34
ENDBRANCH  31  32
ENDBRANCH  30  31
ENDBRANCH  21  30
ENDBRANCH   2  20
TORSDOF 10
ENDMDL
MODEL 9
REMARK VINA RESULT:      -6.8      2.849      3.257
REMARK  Name = Cefixime
REMARK  10 active torsions:
REMARK  status: ('A' for Active; 'I' for Inactive)
REMARK    1  A    between atoms: CB_5  and  CG1_6
REMARK    2  A    between atoms: CA_8  and  C_29
REMARK    3  A    between atoms: CA_12  and  N_13
REMARK    4  A    between atoms: C_14  and  C_16
REMARK    5  A    between atoms: C_16  and  C_23
REMARK    6  A    between atoms: N_17  and  O_18
REMARK    7  A    between atoms: O_18  and  C_19
REMARK    8  A    between atoms: C_19  and  C_20
REMARK    9  A    between atoms: C_20  and  O_21
REMARK   10  A    between atoms: C_29  and  O_30
REMARK                            x       y       z     vdW  Elec       q    Type
REMARK                         _______ _______ _______ _____ _____    ______ ____
ROOT
ATOM      1  N   UNL     1      -7.075   4.562 131.047  0.00  0.00    +0.000 N 
ATOM      2  C   UNL     1      -7.387   5.912 131.105  0.00  0.00    +0.000 C 
ATOM      3  O   UNL     1      -6.592   6.762 130.732  0.00  0.00    +0.000 OA
ATOM      4  H   UNL     1      -7.808   3.989 131.424  0.00  0.00    +0.000 HD
ENDROOT
BRANCH   1  13
ATOM      5  C   UNL     1      -5.682   2.503 130.187  0.00  0.00    +0.000 C 
ATOM      6  S   UNL     1      -7.198   1.523 130.113  0.00  0.00    +0.000 S 
ATOM      7  CG2 UNL     1      -6.352   0.161 129.253  0.00  0.00    +0.000 C 
ATOM      8  CB  UNL     1      -5.632   0.580 127.973  0.00  0.00    +0.000 C 
ATOM      9  CA  UNL     1      -5.184   1.861 127.779  0.00  0.00    +0.000 C 
ATOM     10  N   UNL     1      -5.260   2.791 128.813  0.00  0.00    +0.000 N 
ATOM     11  C   UNL     1      -5.681   4.087 128.834  0.00  0.00    +0.000 C 
ATOM     12  O   UNL     1      -5.807   4.878 127.939  0.00  0.00    +0.000 OA
ATOM     13  CA  UNL     1      -5.847   4.043 130.390  0.00  0.00    +0.000 C 
BRANCH   8  14
ATOM     14  CG1 UNL     1      -5.503  -0.521 126.993  0.00  0.00    +0.000 C 
ATOM     15  CD1 UNL     1      -5.512  -1.842 127.220  0.00  0.00    +0.000 C 
ENDBRANCH   8  14
BRANCH   9  16
ATOM     16  C   UNL     1      -4.547   2.273 126.442  0.00  0.00    +0.000 C 
ATOM     17  OXT UNL     1      -5.162   2.610 125.441  0.00  0.00    +0.000 OA
BRANCH  16  18
ATOM     18  O   UNL     1      -3.207   2.158 126.353  0.00  0.00    +0.000 OA
ATOM     19  H   UNL     1      -2.858   1.720 125.558  0.00  0.00    +0.000 HD
ENDBRANCH  16  18
ENDBRANCH   9  16
ENDBRANCH   1  13
BRANCH   2  20
ATOM     20  C   UNL     1      -8.769   6.298 131.716  0.00  0.00    +0.000 C 
ATOM     21  N   UNL     1      -9.056   6.239 133.004  0.00  0.00    +0.000 NA
BRANCH  20  22
ATOM     22  C   UNL     1      -9.821   6.822 130.817  0.00  0.00    +0.000 A 
ATOM     23  C   UNL     1     -11.174   6.631 131.034  0.00  0.00    +0.000 A 
ATOM     24  S   UNL     1     -12.102   7.417 129.829  0.00  0.00    +0.000 S 
ATOM     25  C   UNL     1     -10.657   7.958 129.074  0.00  0.00    +0.000 A 
ATOM     26  N   UNL     1     -10.715   8.694 127.955  0.00  0.00    +0.000 N 
ATOM     27  N   UNL     1      -9.547   7.590 129.675  0.00  0.00    +0.000 NA
ATOM     28  H   UNL     1     -11.596   8.969 127.538  0.00  0.00    +0.000 HD
ATOM     29  H   UNL     1      -9.870   9.037 127.517  0.00  0.00    +0.000 HD
ENDBRANCH  20  22
BRANCH  21  30
ATOM     30  O   UNL     1      -8.006   5.737 133.803  0.00  0.00    +0.000 OA
BRANCH  30  31
ATOM     31  C   UNL     1      -8.420   4.646 134.621  0.00  0.00    +0.000 C 
BRANCH  31  32
ATOM     32  C   UNL     1      -8.696   3.389 133.788  0.00  0.00    +0.000 C 
ATOM     33  O   UNL     1      -7.819   2.590 133.487  0.00  0.00    +0.000 OA
BRANCH  32  34
ATOM     34  O   UNL     1      -9.966   3.183 133.376  0.00  0.00    +0.000 OA
ATOM     35  H   UNL     1     -10.320   2.288 133.440  0.00  0.00    +0.000 HD
ENDBRANCH  32  34
ENDBRANCH  31  32
ENDBRANCH  30  31
ENDBRANCH  21  30
ENDBRANCH   2  20
TORSDOF 10
ENDMDL
