MODEL 1
REMARK VINA RESULT:      -8.1      0.000      0.000
REMARK  Name = Cefmenoxime
REMARK  11 active torsions:
REMARK  status: ('A' for Active; 'I' for Inactive)
REMARK    1  A    between atoms: C_5  and  C_6
REMARK    2  A    between atoms: C_6  and  S_7
REMARK    3  A    between atoms: S_7  and  C_8
REMARK    4  A    between atoms: N_12  and  C_13
REMARK    5  A    between atoms: CA_14  and  C_32
REMARK    6  A    between atoms: CA_18  and  N_19
REMARK    7  A    between atoms: C_20  and  C_22
REMARK    8  A    between atoms: C_22  and  C_26
REMARK    9  A    between atoms: N_23  and  O_24
REMARK   10  A    between atoms: O_24  and  C_25
REMARK   11  A    between atoms: C_32  and  O_33
REMARK                            x       y       z     vdW  Elec       q    Type
REMARK                         _______ _______ _______ _____ _____    ______ ____
ROOT
ATOM      1  C   UNL     1      -6.837   2.798 127.192  0.00  0.00    +0.000 C 
ATOM      2  S   UNL     1      -7.782   1.278 127.413  0.00  0.00    +0.000 S 
ATOM      3  C   UNL     1      -6.908   0.449 126.062  0.00  0.00    +0.000 C 
ATOM      4  C   UNL     1      -6.951   1.193 124.736  0.00  0.00    +0.000 C 
ATOM      5  CA  UNL     1      -7.098   2.553 124.683  0.00  0.00    +0.000 C 
ATOM      6  N   UNL     1      -7.102   3.310 125.844  0.00  0.00    +0.000 N 
ATOM      7  C   UNL     1      -7.927   4.313 126.261  0.00  0.00    +0.000 C 
ATOM      8  O   UNL     1      -8.639   5.039 125.617  0.00  0.00    +0.000 OA
ATOM      9  CA  UNL     1      -7.469   4.112 127.742  0.00  0.00    +0.000 C 
ENDROOT
BRANCH   9  10
ATOM     10  N   UNL     1      -8.472   4.025 128.835  0.00  0.00    +0.000 N 
ATOM     11  C   UNL     1      -8.574   5.012 129.813  0.00  0.00    +0.000 C 
ATOM     12  O   UNL     1      -7.754   5.922 129.877  0.00  0.00    +0.000 OA
ATOM     13  H   UNL     1      -9.166   3.284 128.871  0.00  0.00    +0.000 HD
BRANCH  11  14
ATOM     14  C   UNL     1      -9.720   4.911 130.857  0.00  0.00    +0.000 C 
ATOM     15  N   UNL     1      -9.679   4.163 131.938  0.00  0.00    +0.000 NA
BRANCH  14  16
ATOM     16  C   UNL     1     -10.932   5.747 130.686  0.00  0.00    +0.000 A 
ATOM     17  C   UNL     1     -11.473   6.508 131.709  0.00  0.00    +0.000 A 
ATOM     18  S   UNL     1     -12.848   7.370 131.167  0.00  0.00    +0.000 S 
ATOM     19  C   UNL     1     -12.661   6.680 129.606  0.00  0.00    +0.000 A 
ATOM     20  N   UNL     1     -13.525   6.985 128.627  0.00  0.00    +0.000 N 
ATOM     21  N   UNL     1     -11.638   5.863 129.478  0.00  0.00    +0.000 NA
ATOM     22  H   UNL     1     -14.288   7.636 128.769  0.00  0.00    +0.000 HD
ATOM     23  H   UNL     1     -13.411   6.602 127.699  0.00  0.00    +0.000 HD
ENDBRANCH  14  16
BRANCH  15  24
ATOM     24  O   UNL     1      -8.501   3.413 132.040  0.00  0.00    +0.000 OA
ATOM     25  C   UNL     1      -8.219   3.047 133.384  0.00  0.00    +0.000 C 
ENDBRANCH  15  24
ENDBRANCH  11  14
ENDBRANCH   9  10
BRANCH   5  26
ATOM     26  C   UNL     1      -7.200   3.237 123.323  0.00  0.00    +0.000 C 
ATOM     27  OXT UNL     1      -6.226   3.574 122.663  0.00  0.00    +0.000 OA
BRANCH  26  28
ATOM     28  O   UNL     1      -8.434   3.571 122.899  0.00  0.00    +0.000 OA
ATOM     29  H   UNL     1      -8.984   2.851 122.535  0.00  0.00    +0.000 HD
ENDBRANCH  26  28
ENDBRANCH   5  26
BRANCH   4  30
ATOM     30  C   UNL     1      -6.832   0.312 123.466  0.00  0.00    +0.000 C 
BRANCH  30  31
ATOM     31  S   UNL     1      -6.364  -1.422 123.788  0.00  0.00    +0.000 S 
BRANCH  31  32
ATOM     32  C   UNL     1      -7.840  -2.305 123.773  0.00  0.00    +0.000 A 
ATOM     33  N   UNL     1      -8.691  -2.371 122.775  0.00  0.00    +0.000 NA
ATOM     34  N   UNL     1      -9.824  -2.964 123.284  0.00  0.00    +0.000 NA
ATOM     35  N   UNL     1      -9.681  -3.236 124.575  0.00  0.00    +0.000 NA
ATOM     36  N   UNL     1      -8.440  -2.821 124.883  0.00  0.00    +0.000 N 
ATOM     37  C   UNL     1      -7.948  -2.915 126.227  0.00  0.00    +0.000 C 
ENDBRANCH  31  32
ENDBRANCH  30  31
ENDBRANCH   4  30
TORSDOF 9
ENDMDL
MODEL 2
REMARK VINA RESULT:      -7.7      4.768      7.805
REMARK  Name = Cefmenoxime
REMARK  11 active torsions:
REMARK  status: ('A' for Active; 'I' for Inactive)
REMARK    1  A    between atoms: C_5  and  C_6
REMARK    2  A    between atoms: C_6  and  S_7
REMARK    3  A    between atoms: S_7  and  C_8
REMARK    4  A    between atoms: N_12  and  C_13
REMARK    5  A    between atoms: CA_14  and  C_32
REMARK    6  A    between atoms: CA_18  and  N_19
REMARK    7  A    between atoms: C_20  and  C_22
REMARK    8  A    between atoms: C_22  and  C_26
REMARK    9  A    between atoms: N_23  and  O_24
REMARK   10  A    between atoms: O_24  and  C_25
REMARK   11  A    between atoms: C_32  and  O_33
REMARK                            x       y       z     vdW  Elec       q    Type
REMARK                         _______ _______ _______ _____ _____    ______ ____
ROOT
ATOM      1  C   UNL     1      -5.925   2.354 128.115  0.00  0.00    +0.000 C 
ATOM      2  S   UNL     1      -4.890   1.515 126.900  0.00  0.00    +0.000 S 
ATOM      3  C   UNL     1      -4.644   3.035 125.948  0.00  0.00    +0.000 C 
ATOM      4  C   UNL     1      -5.932   3.720 125.516  0.00  0.00    +0.000 C 
ATOM      5  CA  UNL     1      -7.094   3.572 126.225  0.00  0.00    +0.000 C 
ATOM      6  N   UNL     1      -7.107   2.879 127.425  0.00  0.00    +0.000 N 
ATOM      7  C   UNL     1      -7.954   1.922 127.901  0.00  0.00    +0.000 C 
ATOM      8  O   UNL     1      -9.087   1.670 127.581  0.00  0.00    +0.000 OA
ATOM      9  CA  UNL     1      -6.892   1.468 128.955  0.00  0.00    +0.000 C 
ENDROOT
BRANCH   9  10
ATOM     10  N   UNL     1      -6.576   0.026 129.132  0.00  0.00    +0.000 N 
ATOM     11  C   UNL     1      -7.192  -0.741 130.118  0.00  0.00    +0.000 C 
ATOM     12  O   UNL     1      -7.921  -0.221 130.956  0.00  0.00    +0.000 OA
ATOM     13  H   UNL     1      -5.956  -0.470 128.498  0.00  0.00    +0.000 HD
BRANCH  11  14
ATOM     14  C   UNL     1      -6.896  -2.265 130.170  0.00  0.00    +0.000 C 
ATOM     15  N   UNL     1      -7.186  -3.113 129.208  0.00  0.00    +0.000 NA
BRANCH  14  16
ATOM     16  C   UNL     1      -6.182  -2.825 131.341  0.00  0.00    +0.000 A 
ATOM     17  C   UNL     1      -6.836  -3.335 132.450  0.00  0.00    +0.000 A 
ATOM     18  S   UNL     1      -5.719  -3.924 133.603  0.00  0.00    +0.000 S 
ATOM     19  C   UNL     1      -4.422  -3.462 132.576  0.00  0.00    +0.000 A 
ATOM     20  N   UNL     1      -3.154  -3.670 132.958  0.00  0.00    +0.000 N 
ATOM     21  N   UNL     1      -4.784  -2.910 131.439  0.00  0.00    +0.000 NA
ATOM     22  H   UNL     1      -2.925  -4.118 133.837  0.00  0.00    +0.000 HD
ATOM     23  H   UNL     1      -2.384  -3.422 132.351  0.00  0.00    +0.000 HD
ENDBRANCH  14  16
BRANCH  15  24
ATOM     24  O   UNL     1      -7.846  -2.512 128.129  0.00  0.00    +0.000 OA
ATOM     25  C   UNL     1      -8.747  -3.407 127.492  0.00  0.00    +0.000 C 
ENDBRANCH  15  24
ENDBRANCH  11  14
ENDBRANCH   9  10
BRANCH   5  26
ATOM     26  C   UNL     1      -8.369   4.231 125.706  0.00  0.00    +0.000 C 
ATOM     27  OXT UNL     1      -8.712   5.366 126.008  0.00  0.00    +0.000 OA
BRANCH  26  28
ATOM     28  O   UNL     1      -9.195   3.464 124.968  0.00  0.00    +0.000 OA
ATOM     29  H   UNL     1     -10.117   3.385 125.278  0.00  0.00    +0.000 HD
ENDBRANCH  26  28
ENDBRANCH   5  26
BRANCH   4  30
ATOM     30  C   UNL     1      -5.839   4.575 124.226  0.00  0.00    +0.000 C 
BRANCH  30  31
ATOM     31  S   UNL     1      -6.128   3.648 122.681  0.00  0.00    +0.000 S 
BRANCH  31  32
ATOM     32  C   UNL     1      -5.446   4.614 121.432  0.00  0.00    +0.000 A 
ATOM     33  N   UNL     1      -4.481   5.494 121.575  0.00  0.00    +0.000 NA
ATOM     34  N   UNL     1      -4.434   6.198 120.393  0.00  0.00    +0.000 NA
ATOM     35  N   UNL     1      -5.367   5.776 119.549  0.00  0.00    +0.000 NA
ATOM     36  N   UNL     1      -6.004   4.787 120.200  0.00  0.00    +0.000 N 
ATOM     37  C   UNL     1      -7.121   4.116 119.603  0.00  0.00    +0.000 C 
ENDBRANCH  31  32
ENDBRANCH  30  31
ENDBRANCH   4  30
TORSDOF 9
ENDMDL
MODEL 3
REMARK VINA RESULT:      -7.5      4.816      9.805
REMARK  Name = Cefmenoxime
REMARK  11 active torsions:
REMARK  status: ('A' for Active; 'I' for Inactive)
REMARK    1  A    between atoms: C_5  and  C_6
REMARK    2  A    between atoms: C_6  and  S_7
REMARK    3  A    between atoms: S_7  and  C_8
REMARK    4  A    between atoms: N_12  and  C_13
REMARK    5  A    between atoms: CA_14  and  C_32
REMARK    6  A    between atoms: CA_18  and  N_19
REMARK    7  A    between atoms: C_20  and  C_22
REMARK    8  A    between atoms: C_22  and  C_26
REMARK    9  A    between atoms: N_23  and  O_24
REMARK   10  A    between atoms: O_24  and  C_25
REMARK   11  A    between atoms: C_32  and  O_33
REMARK                            x       y       z     vdW  Elec       q    Type
REMARK                         _______ _______ _______ _____ _____    ______ ____
ROOT
ATOM      1  C   UNL     1      -6.918   2.523 130.675  0.00  0.00    +0.000 C 
ATOM      2  S   UNL     1      -8.281   1.898 129.674  0.00  0.00    +0.000 S 
ATOM      3  C   UNL     1      -9.039   3.537 129.545  0.00  0.00    +0.000 C 
ATOM      4  C   UNL     1      -9.314   4.207 130.883  0.00  0.00    +0.000 C 
ATOM      5  CA  UNL     1      -8.574   3.913 131.997  0.00  0.00    +0.000 C 
ATOM      6  N   UNL     1      -7.475   3.073 131.915  0.00  0.00    +0.000 N 
ATOM      7  C   UNL     1      -7.085   2.023 132.692  0.00  0.00    +0.000 C 
ATOM      8  O   UNL     1      -7.380   1.759 133.830  0.00  0.00    +0.000 OA
ATOM      9  CA  UNL     1      -6.153   1.491 131.556  0.00  0.00    +0.000 C 
ENDROOT
BRANCH   9  10
ATOM     10  N   UNL     1      -6.180   0.056 131.170  0.00  0.00    +0.000 N 
ATOM     11  C   UNL     1      -5.059  -0.759 131.309  0.00  0.00    +0.000 C 
ATOM     12  O   UNL     1      -3.975  -0.288 131.635  0.00  0.00    +0.000 OA
ATOM     13  H   UNL     1      -7.033  -0.402 130.859  0.00  0.00    +0.000 HD
BRANCH  11  14
ATOM     14  C   UNL     1      -5.195  -2.274 130.992  0.00  0.00    +0.000 C 
ATOM     15  N   UNL     1      -5.641  -2.759 129.854  0.00  0.00    +0.000 NA
BRANCH  14  16
ATOM     16  C   UNL     1      -4.743  -3.268 131.993  0.00  0.00    +0.000 A 
ATOM     17  C   UNL     1      -5.609  -3.915 132.859  0.00  0.00    +0.000 A 
ATOM     18  S   UNL     1      -4.765  -5.014 133.861  0.00  0.00    +0.000 S 
ATOM     19  C   UNL     1      -3.290  -4.566 133.104  0.00  0.00    +0.000 A 
ATOM     20  N   UNL     1      -2.136  -5.128 133.492  0.00  0.00    +0.000 N 
ATOM     21  N   UNL     1      -3.405  -3.662 132.155  0.00  0.00    +0.000 NA
ATOM     22  H   UNL     1      -2.101  -5.836 134.215  0.00  0.00    +0.000 HD
ATOM     23  H   UNL     1      -1.266  -4.887 133.037  0.00  0.00    +0.000 HD
ENDBRANCH  14  16
BRANCH  15  24
ATOM     24  O   UNL     1      -6.037  -1.764 128.952  0.00  0.00    +0.000 OA
ATOM     25  C   UNL     1      -5.427  -1.927 127.680  0.00  0.00    +0.000 C 
ENDBRANCH  15  24
ENDBRANCH  11  14
ENDBRANCH   9  10
BRANCH   5  26
ATOM     26  C   UNL     1      -8.940   4.569 133.325  0.00  0.00    +0.000 C 
ATOM     27  OXT UNL     1      -8.465   5.631 133.706  0.00  0.00    +0.000 OA
BRANCH  26  28
ATOM     28  O   UNL     1      -9.744   3.870 134.149  0.00  0.00    +0.000 OA
ATOM     29  H   UNL     1      -9.416   3.713 135.055  0.00  0.00    +0.000 HD
ENDBRANCH  26  28
ENDBRANCH   5  26
BRANCH   4  30
ATOM     30  C   UNL     1     -10.485   5.222 130.898  0.00  0.00    +0.000 C 
BRANCH  30  31
ATOM     31  S   UNL     1     -10.107   6.827 130.117  0.00  0.00    +0.000 S 
BRANCH  31  32
ATOM     32  C   UNL     1     -10.686   6.700 128.502  0.00  0.00    +0.000 A 
ATOM     33  N   UNL     1      -9.946   6.648 127.418  0.00  0.00    +0.000 NA
ATOM     34  N   UNL     1     -10.814   6.805 126.361  0.00  0.00    +0.000 NA
ATOM     35  N   UNL     1     -12.059   6.975 126.788  0.00  0.00    +0.000 NA
ATOM     36  N   UNL     1     -11.979   6.913 128.129  0.00  0.00    +0.000 N 
ATOM     37  C   UNL     1     -13.144   7.104 128.942  0.00  0.00    +0.000 C 
ENDBRANCH  31  32
ENDBRANCH  30  31
ENDBRANCH   4  30
TORSDOF 9
ENDMDL
MODEL 4
REMARK VINA RESULT:      -7.5      3.032      3.650
REMARK  Name = Cefmenoxime
REMARK  11 active torsions:
REMARK  status: ('A' for Active; 'I' for Inactive)
REMARK    1  A    between atoms: C_5  and  C_6
REMARK    2  A    between atoms: C_6  and  S_7
REMARK    3  A    between atoms: S_7  and  C_8
REMARK    4  A    between atoms: N_12  and  C_13
REMARK    5  A    between atoms: CA_14  and  C_32
REMARK    6  A    between atoms: CA_18  and  N_19
REMARK    7  A    between atoms: C_20  and  C_22
REMARK    8  A    between atoms: C_22  and  C_26
REMARK    9  A    between atoms: N_23  and  O_24
REMARK   10  A    between atoms: O_24  and  C_25
REMARK   11  A    between atoms: C_32  and  O_33
REMARK                            x       y       z     vdW  Elec       q    Type
REMARK                         _______ _______ _______ _____ _____    ______ ____
ROOT
ATOM      1  C   UNL     1      -8.550   1.878 128.460  0.00  0.00    +0.000 C 
ATOM      2  S   UNL     1      -7.828   3.042 127.286  0.00  0.00    +0.000 S 
ATOM      3  C   UNL     1      -7.226   1.710 126.219  0.00  0.00    +0.000 C 
ATOM      4  C   UNL     1      -6.348   0.689 126.925  0.00  0.00    +0.000 C 
ATOM      5  CA  UNL     1      -6.466   0.449 128.268  0.00  0.00    +0.000 C 
ATOM      6  N   UNL     1      -7.471   1.052 129.008  0.00  0.00    +0.000 N 
ATOM      7  C   UNL     1      -7.441   1.688 130.215  0.00  0.00    +0.000 C 
ATOM      8  O   UNL     1      -6.639   1.601 131.109  0.00  0.00    +0.000 OA
ATOM      9  CA  UNL     1      -8.801   2.394 129.908  0.00  0.00    +0.000 C 
ENDROOT
BRANCH   9  10
ATOM     10  N   UNL     1      -8.959   3.855 130.134  0.00  0.00    +0.000 N 
ATOM     11  C   UNL     1     -10.209   4.429 130.349  0.00  0.00    +0.000 C 
ATOM     12  O   UNL     1     -11.235   3.768 130.231  0.00  0.00    +0.000 OA
ATOM     13  H   UNL     1      -8.159   4.477 130.212  0.00  0.00    +0.000 HD
BRANCH  11  14
ATOM     14  C   UNL     1     -10.284   5.944 130.690  0.00  0.00    +0.000 C 
ATOM     15  N   UNL     1      -9.904   6.469 131.834  0.00  0.00    +0.000 NA
BRANCH  14  16
ATOM     16  C   UNL     1     -10.753   6.897 129.657  0.00  0.00    +0.000 A 
ATOM     17  C   UNL     1     -10.307   6.870 128.347  0.00  0.00    +0.000 A 
ATOM     18  S   UNL     1     -11.068   8.086 127.415  0.00  0.00    +0.000 S 
ATOM     19  C   UNL     1     -11.944   8.594 128.802  0.00  0.00    +0.000 A 
ATOM     20  N   UNL     1     -12.797   9.625 128.719  0.00  0.00    +0.000 N 
ATOM     21  N   UNL     1     -11.701   7.906 129.896  0.00  0.00    +0.000 NA
ATOM     22  H   UNL     1     -12.965  10.113 127.848  0.00  0.00    +0.000 HD
ATOM     23  H   UNL     1     -13.333   9.918 129.524  0.00  0.00    +0.000 HD
ENDBRANCH  14  16
BRANCH  15  24
ATOM     24  O   UNL     1      -9.461   5.512 132.755  0.00  0.00    +0.000 OA
ATOM     25  C   UNL     1      -8.122   5.752 133.168  0.00  0.00    +0.000 C 
ENDBRANCH  15  24
ENDBRANCH  11  14
ENDBRANCH   9  10
BRANCH   5  26
ATOM     26  C   UNL     1      -5.513  -0.540 128.933  0.00  0.00    +0.000 C 
ATOM     27  OXT UNL     1      -5.786  -1.718 129.120  0.00  0.00    +0.000 OA
BRANCH  26  28
ATOM     28  O   UNL     1      -4.364  -0.041 129.427  0.00  0.00    +0.000 OA
ATOM     29  H   UNL     1      -3.655  -0.682 129.625  0.00  0.00    +0.000 HD
ENDBRANCH  26  28
ENDBRANCH   5  26
BRANCH   4  30
ATOM     30  C   UNL     1      -5.312  -0.041 126.031  0.00  0.00    +0.000 C 
BRANCH  30  31
ATOM     31  S   UNL     1      -5.779  -1.743 125.567  0.00  0.00    +0.000 S 
BRANCH  31  32
ATOM     32  C   UNL     1      -7.438  -1.658 125.121  0.00  0.00    +0.000 A 
ATOM     33  N   UNL     1      -7.929  -1.007 124.092  0.00  0.00    +0.000 NA
ATOM     34  N   UNL     1      -9.295  -1.002 124.264  0.00  0.00    +0.000 NA
ATOM     35  N   UNL     1      -9.635  -1.617 125.390  0.00  0.00    +0.000 NA
ATOM     36  N   UNL     1      -8.473  -2.025 125.929  0.00  0.00    +0.000 N 
ATOM     37  C   UNL     1      -8.448  -2.697 127.195  0.00  0.00    +0.000 C 
ENDBRANCH  31  32
ENDBRANCH  30  31
ENDBRANCH   4  30
TORSDOF 9
ENDMDL
MODEL 5
REMARK VINA RESULT:      -7.4      1.827      3.035
REMARK  Name = Cefmenoxime
REMARK  11 active torsions:
REMARK  status: ('A' for Active; 'I' for Inactive)
REMARK    1  A    between atoms: C_5  and  C_6
REMARK    2  A    between atoms: C_6  and  S_7
REMARK    3  A    between atoms: S_7  and  C_8
REMARK    4  A    between atoms: N_12  and  C_13
REMARK    5  A    between atoms: CA_14  and  C_32
REMARK    6  A    between atoms: CA_18  and  N_19
REMARK    7  A    between atoms: C_20  and  C_22
REMARK    8  A    between atoms: C_22  and  C_26
REMARK    9  A    between atoms: N_23  and  O_24
REMARK   10  A    between atoms: O_24  and  C_25
REMARK   11  A    between atoms: C_32  and  O_33
REMARK                            x       y       z     vdW  Elec       q    Type
REMARK                         _______ _______ _______ _____ _____    ______ ____
ROOT
ATOM      1  C   UNL     1      -6.547   2.944 127.014  0.00  0.00    +0.000 C 
ATOM      2  S   UNL     1      -7.335   1.373 127.417  0.00  0.00    +0.000 S 
ATOM      3  C   UNL     1      -6.588   0.545 125.991  0.00  0.00    +0.000 C 
ATOM      4  C   UNL     1      -6.864   1.222 124.657  0.00  0.00    +0.000 C 
ATOM      5  CA  UNL     1      -7.121   2.565 124.575  0.00  0.00    +0.000 C 
ATOM      6  N   UNL     1      -7.027   3.372 125.697  0.00  0.00    +0.000 N 
ATOM      7  C   UNL     1      -7.863   4.333 126.187  0.00  0.00    +0.000 C 
ATOM      8  O   UNL     1      -8.709   4.976 125.620  0.00  0.00    +0.000 OA
ATOM      9  CA  UNL     1      -7.197   4.234 127.597  0.00  0.00    +0.000 C 
ENDROOT
BRANCH   9  10
ATOM     10  N   UNL     1      -8.036   4.127 128.820  0.00  0.00    +0.000 N 
ATOM     11  C   UNL     1      -7.907   5.027 129.875  0.00  0.00    +0.000 C 
ATOM     12  O   UNL     1      -7.008   5.861 129.884  0.00  0.00    +0.000 OA
ATOM     13  H   UNL     1      -8.781   3.441 128.903  0.00  0.00    +0.000 HD
BRANCH  11  14
ATOM     14  C   UNL     1      -8.895   4.921 131.069  0.00  0.00    +0.000 C 
ATOM     15  N   UNL     1     -10.204   4.947 130.958  0.00  0.00    +0.000 NA
BRANCH  14  16
ATOM     16  C   UNL     1      -8.359   4.714 132.435  0.00  0.00    +0.000 A 
ATOM     17  C   UNL     1      -7.531   3.655 132.769  0.00  0.00    +0.000 A 
ATOM     18  S   UNL     1      -7.075   3.729 134.416  0.00  0.00    +0.000 S 
ATOM     19  C   UNL     1      -8.010   5.157 134.606  0.00  0.00    +0.000 A 
ATOM     20  N   UNL     1      -8.077   5.764 135.799  0.00  0.00    +0.000 N 
ATOM     21  N   UNL     1      -8.623   5.569 133.517  0.00  0.00    +0.000 NA
ATOM     22  H   UNL     1      -7.571   5.418 136.606  0.00  0.00    +0.000 HD
ATOM     23  H   UNL     1      -8.607   6.617 135.917  0.00  0.00    +0.000 HD
ENDBRANCH  14  16
BRANCH  15  24
ATOM     24  O   UNL     1     -10.637   5.132 129.639  0.00  0.00    +0.000 OA
ATOM     25  C   UNL     1     -11.564   6.204 129.530  0.00  0.00    +0.000 C 
ENDBRANCH  15  24
ENDBRANCH  11  14
ENDBRANCH   9  10
BRANCH   5  26
ATOM     26  C   UNL     1      -7.456   3.175 123.217  0.00  0.00    +0.000 C 
ATOM     27  OXT UNL     1      -6.608   3.571 122.428  0.00  0.00    +0.000 OA
BRANCH  26  28
ATOM     28  O   UNL     1      -8.760   3.376 122.944  0.00  0.00    +0.000 OA
ATOM     29  H   UNL     1      -8.993   3.538 122.010  0.00  0.00    +0.000 HD
ENDBRANCH  26  28
ENDBRANCH   5  26
BRANCH   4  30
ATOM     30  C   UNL     1      -6.849   0.294 123.416  0.00  0.00    +0.000 C 
BRANCH  30  31
ATOM     31  S   UNL     1      -6.364  -1.430 123.765  0.00  0.00    +0.000 S 
BRANCH  31  32
ATOM     32  C   UNL     1      -7.836  -2.318 123.824  0.00  0.00    +0.000 A 
ATOM     33  N   UNL     1      -8.693  -2.458 122.839  0.00  0.00    +0.000 NA
ATOM     34  N   UNL     1      -9.820  -3.019 123.397  0.00  0.00    +0.000 NA
ATOM     35  N   UNL     1      -9.667  -3.197 124.703  0.00  0.00    +0.000 NA
ATOM     36  N   UNL     1      -8.426  -2.755 124.972  0.00  0.00    +0.000 N 
ATOM     37  C   UNL     1      -7.924  -2.751 126.315  0.00  0.00    +0.000 C 
ENDBRANCH  31  32
ENDBRANCH  30  31
ENDBRANCH   4  30
TORSDOF 9
ENDMDL
MODEL 6
REMARK VINA RESULT:      -7.4      2.977      3.631
REMARK  Name = Cefmenoxime
REMARK  11 active torsions:
REMARK  status: ('A' for Active; 'I' for Inactive)
REMARK    1  A    between atoms: C_5  and  C_6
REMARK    2  A    between atoms: C_6  and  S_7
REMARK    3  A    between atoms: S_7  and  C_8
REMARK    4  A    between atoms: N_12  and  C_13
REMARK    5  A    between atoms: CA_14  and  C_32
REMARK    6  A    between atoms: CA_18  and  N_19
REMARK    7  A    between atoms: C_20  and  C_22
REMARK    8  A    between atoms: C_22  and  C_26
REMARK    9  A    between atoms: N_23  and  O_24
REMARK   10  A    between atoms: O_24  and  C_25
REMARK   11  A    between atoms: C_32  and  O_33
REMARK                            x       y       z     vdW  Elec       q    Type
REMARK                         _______ _______ _______ _____ _____    ______ ____
ROOT
ATOM      1  C   UNL     1      -4.446   3.027 126.264  0.00  0.00    +0.000 C 
ATOM      2  S   UNL     1      -5.358   1.861 127.295  0.00  0.00    +0.000 S 
ATOM      3  C   UNL     1      -5.675   0.756 125.898  0.00  0.00    +0.000 C 
ATOM      4  C   UNL     1      -6.352   1.423 124.711  0.00  0.00    +0.000 C 
ATOM      5  CA  UNL     1      -6.213   2.763 124.467  0.00  0.00    +0.000 C 
ATOM      6  N   UNL     1      -5.357   3.536 125.234  0.00  0.00    +0.000 N 
ATOM      7  C   UNL     1      -5.529   4.754 125.824  0.00  0.00    +0.000 C 
ATOM      8  O   UNL     1      -6.314   5.629 125.564  0.00  0.00    +0.000 OA
ATOM      9  CA  UNL     1      -4.325   4.490 126.785  0.00  0.00    +0.000 C 
ENDROOT
BRANCH   9  10
ATOM     10  N   UNL     1      -4.454   4.748 128.243  0.00  0.00    +0.000 N 
ATOM     11  C   UNL     1      -4.313   6.028 128.774  0.00  0.00    +0.000 C 
ATOM     12  O   UNL     1      -3.951   6.964 128.071  0.00  0.00    +0.000 OA
ATOM     13  H   UNL     1      -4.721   4.016 128.897  0.00  0.00    +0.000 HD
BRANCH  11  14
ATOM     14  C   UNL     1      -4.575   6.237 130.292  0.00  0.00    +0.000 C 
ATOM     15  N   UNL     1      -3.672   6.652 131.152  0.00  0.00    +0.000 NA
BRANCH  14  16
ATOM     16  C   UNL     1      -5.939   6.024 130.828  0.00  0.00    +0.000 A 
ATOM     17  C   UNL     1      -6.258   6.185 132.166  0.00  0.00    +0.000 A 
ATOM     18  S   UNL     1      -7.921   5.888 132.439  0.00  0.00    +0.000 S 
ATOM     19  C   UNL     1      -8.131   5.550 130.768  0.00  0.00    +0.000 A 
ATOM     20  N   UNL     1      -9.338   5.206 130.298  0.00  0.00    +0.000 N 
ATOM     21  N   UNL     1      -7.041   5.655 130.039  0.00  0.00    +0.000 NA
ATOM     22  H   UNL     1     -10.153   5.157 130.897  0.00  0.00    +0.000 HD
ATOM     23  H   UNL     1      -9.477   5.027 129.313  0.00  0.00    +0.000 HD
ENDBRANCH  14  16
BRANCH  15  24
ATOM     24  O   UNL     1      -2.412   6.846 130.574  0.00  0.00    +0.000 OA
ATOM     25  C   UNL     1      -1.360   6.481 131.457  0.00  0.00    +0.000 C 
ENDBRANCH  15  24
ENDBRANCH  11  14
ENDBRANCH   9  10
BRANCH   5  26
ATOM     26  C   UNL     1      -6.970   3.388 123.299  0.00  0.00    +0.000 C 
ATOM     27  OXT UNL     1      -6.498   3.507 122.175  0.00  0.00    +0.000 OA
BRANCH  26  28
ATOM     28  O   UNL     1      -8.175   3.926 123.570  0.00  0.00    +0.000 OA
ATOM     29  H   UNL     1      -8.277   4.361 124.438  0.00  0.00    +0.000 HD
ENDBRANCH  26  28
ENDBRANCH   5  26
BRANCH   4  30
ATOM     30  C   UNL     1      -7.212   0.493 123.817  0.00  0.00    +0.000 C 
BRANCH  30  31
ATOM     31  S   UNL     1      -6.582  -1.213 123.672  0.00  0.00    +0.000 S 
BRANCH  31  32
ATOM     32  C   UNL     1      -7.948  -2.230 123.917  0.00  0.00    +0.000 A 
ATOM     33  N   UNL     1      -8.710  -2.739 122.977  0.00  0.00    +0.000 NA
ATOM     34  N   UNL     1      -9.807  -3.263 123.624  0.00  0.00    +0.000 NA
ATOM     35  N   UNL     1      -9.731  -3.059 124.933  0.00  0.00    +0.000 NA
ATOM     36  N   UNL     1      -8.569  -2.408 125.117  0.00  0.00    +0.000 N 
ATOM     37  C   UNL     1      -8.170  -1.976 126.425  0.00  0.00    +0.000 C 
ENDBRANCH  31  32
ENDBRANCH  30  31
ENDBRANCH   4  30
TORSDOF 9
ENDMDL
MODEL 7
REMARK VINA RESULT:      -7.3      3.261      9.029
REMARK  Name = Cefmenoxime
REMARK  11 active torsions:
REMARK  status: ('A' for Active; 'I' for Inactive)
REMARK    1  A    between atoms: C_5  and  C_6
REMARK    2  A    between atoms: C_6  and  S_7
REMARK    3  A    between atoms: S_7  and  C_8
REMARK    4  A    between atoms: N_12  and  C_13
REMARK    5  A    between atoms: CA_14  and  C_32
REMARK    6  A    between atoms: CA_18  and  N_19
REMARK    7  A    between atoms: C_20  and  C_22
REMARK    8  A    between atoms: C_22  and  C_26
REMARK    9  A    between atoms: N_23  and  O_24
REMARK   10  A    between atoms: O_24  and  C_25
REMARK   11  A    between atoms: C_32  and  O_33
REMARK                            x       y       z     vdW  Elec       q    Type
REMARK                         _______ _______ _______ _____ _____    ______ ____
ROOT
ATOM      1  C   UNL     1      -7.570   2.156 129.824  0.00  0.00    +0.000 C 
ATOM      2  S   UNL     1      -5.791   1.870 129.748  0.00  0.00    +0.000 S 
ATOM      3  C   UNL     1      -5.540   2.511 131.423  0.00  0.00    +0.000 C 
ATOM      4  C   UNL     1      -6.083   3.914 131.645  0.00  0.00    +0.000 C 
ATOM      5  CA  UNL     1      -7.126   4.404 130.907  0.00  0.00    +0.000 C 
ATOM      6  N   UNL     1      -7.796   3.593 130.004  0.00  0.00    +0.000 N 
ATOM      7  C   UNL     1      -8.183   3.811 128.714  0.00  0.00    +0.000 C 
ATOM      8  O   UNL     1      -8.363   4.850 128.132  0.00  0.00    +0.000 OA
ATOM      9  CA  UNL     1      -8.328   2.274 128.468  0.00  0.00    +0.000 C 
ENDROOT
BRANCH   9  10
ATOM     10  N   UNL     1      -7.738   1.647 127.257  0.00  0.00    +0.000 N 
ATOM     11  C   UNL     1      -8.537   1.140 126.235  0.00  0.00    +0.000 C 
ATOM     12  O   UNL     1      -9.755   1.080 126.358  0.00  0.00    +0.000 OA
ATOM     13  H   UNL     1      -6.735   1.628 127.096  0.00  0.00    +0.000 HD
BRANCH  11  14
ATOM     14  C   UNL     1      -7.848   0.602 124.949  0.00  0.00    +0.000 C 
ATOM     15  N   UNL     1      -7.090   1.322 124.153  0.00  0.00    +0.000 NA
BRANCH  14  16
ATOM     16  C   UNL     1      -7.983  -0.832 124.602  0.00  0.00    +0.000 A 
ATOM     17  C   UNL     1      -6.953  -1.745 124.752  0.00  0.00    +0.000 A 
ATOM     18  S   UNL     1      -7.453  -3.314 124.285  0.00  0.00    +0.000 S 
ATOM     19  C   UNL     1      -9.008  -2.698 123.896  0.00  0.00    +0.000 A 
ATOM     20  N   UNL     1      -9.956  -3.517 123.417  0.00  0.00    +0.000 N 
ATOM     21  N   UNL     1      -9.163  -1.408 124.103  0.00  0.00    +0.000 NA
ATOM     22  H   UNL     1      -9.794  -4.509 123.292  0.00  0.00    +0.000 HD
ATOM     23  H   UNL     1     -10.881  -3.169 123.206  0.00  0.00    +0.000 HD
ENDBRANCH  14  16
BRANCH  15  24
ATOM     24  O   UNL     1      -6.997   2.662 124.550  0.00  0.00    +0.000 OA
ATOM     25  C   UNL     1      -6.273   3.445 123.612  0.00  0.00    +0.000 C 
ENDBRANCH  15  24
ENDBRANCH  11  14
ENDBRANCH   9  10
BRANCH   5  26
ATOM     26  C   UNL     1      -7.584   5.842 131.130  0.00  0.00    +0.000 C 
ATOM     27  OXT UNL     1      -8.422   6.161 131.964  0.00  0.00    +0.000 OA
BRANCH  26  28
ATOM     28  O   UNL     1      -7.107   6.773 130.282  0.00  0.00    +0.000 OA
ATOM     29  H   UNL     1      -6.343   7.298 130.589  0.00  0.00    +0.000 HD
ENDBRANCH  26  28
ENDBRANCH   5  26
BRANCH   4  30
ATOM     30  C   UNL     1      -5.371   4.744 132.744  0.00  0.00    +0.000 C 
BRANCH  30  31
ATOM     31  S   UNL     1      -3.675   5.266 132.319  0.00  0.00    +0.000 S 
BRANCH  31  32
ATOM     32  C   UNL     1      -3.847   6.354 130.997  0.00  0.00    +0.000 A 
ATOM     33  N   UNL     1      -4.314   7.580 131.063  0.00  0.00    +0.000 NA
ATOM     34  N   UNL     1      -4.509   7.979 129.759  0.00  0.00    +0.000 NA
ATOM     35  N   UNL     1      -4.191   7.009 128.911  0.00  0.00    +0.000 NA
ATOM     36  N   UNL     1      -3.780   5.990 129.686  0.00  0.00    +0.000 N 
ATOM     37  C   UNL     1      -3.396   4.736 129.106  0.00  0.00    +0.000 C 
ENDBRANCH  31  32
ENDBRANCH  30  31
ENDBRANCH   4  30
TORSDOF 9
ENDMDL
MODEL 8
REMARK VINA RESULT:      -7.3      4.329      6.709
REMARK  Name = Cefmenoxime
REMARK  11 active torsions:
REMARK  status: ('A' for Active; 'I' for Inactive)
REMARK    1  A    between atoms: C_5  and  C_6
REMARK    2  A    between atoms: C_6  and  S_7
REMARK    3  A    between atoms: S_7  and  C_8
REMARK    4  A    between atoms: N_12  and  C_13
REMARK    5  A    between atoms: CA_14  and  C_32
REMARK    6  A    between atoms: CA_18  and  N_19
REMARK    7  A    between atoms: C_20  and  C_22
REMARK    8  A    between atoms: C_22  and  C_26
REMARK    9  A    between atoms: N_23  and  O_24
REMARK   10  A    between atoms: O_24  and  C_25
REMARK   11  A    between atoms: C_32  and  O_33
REMARK                            x       y       z     vdW  Elec       q    Type
REMARK                         _______ _______ _______ _____ _____    ______ ____
ROOT
ATOM      1  C   UNL     1      -5.954   2.126 127.262  0.00  0.00    +0.000 C 
ATOM      2  S   UNL     1      -7.172   0.955 126.632  0.00  0.00    +0.000 S 
ATOM      3  C   UNL     1      -6.859   1.437 124.915  0.00  0.00    +0.000 C 
ATOM      4  C   UNL     1      -7.013   2.926 124.643  0.00  0.00    +0.000 C 
ATOM      5  CA  UNL     1      -6.826   3.857 125.629  0.00  0.00    +0.000 C 
ATOM      6  N   UNL     1      -6.379   3.477 126.885  0.00  0.00    +0.000 N 
ATOM      7  C   UNL     1      -6.813   3.814 128.133  0.00  0.00    +0.000 C 
ATOM      8  O   UNL     1      -7.449   4.772 128.493  0.00  0.00    +0.000 OA
ATOM      9  CA  UNL     1      -6.098   2.568 128.749  0.00  0.00    +0.000 C 
ENDROOT
BRANCH   9  10
ATOM     10  N   UNL     1      -6.818   1.679 129.697  0.00  0.00    +0.000 N 
ATOM     11  C   UNL     1      -6.204   1.188 130.847  0.00  0.00    +0.000 C 
ATOM     12  O   UNL     1      -5.009   1.371 131.050  0.00  0.00    +0.000 OA
ATOM     13  H   UNL     1      -7.802   1.454 129.581  0.00  0.00    +0.000 HD
BRANCH  11  14
ATOM     14  C   UNL     1      -7.054   0.357 131.848  0.00  0.00    +0.000 C 
ATOM     15  N   UNL     1      -8.015   0.851 132.598  0.00  0.00    +0.000 NA
BRANCH  14  16
ATOM     16  C   UNL     1      -6.837  -1.105 131.944  0.00  0.00    +0.000 A 
ATOM     17  C   UNL     1      -7.226  -1.856 133.041  0.00  0.00    +0.000 A 
ATOM     18  S   UNL     1      -6.851  -3.509 132.815  0.00  0.00    +0.000 S 
ATOM     19  C   UNL     1      -6.180  -3.143 131.277  0.00  0.00    +0.000 A 
ATOM     20  N   UNL     1      -5.653  -4.118 130.523  0.00  0.00    +0.000 N 
ATOM     21  N   UNL     1      -6.232  -1.874 130.936  0.00  0.00    +0.000 NA
ATOM     22  H   UNL     1      -5.654  -5.086 130.821  0.00  0.00    +0.000 HD
ATOM     23  H   UNL     1      -5.276  -3.916 129.607  0.00  0.00    +0.000 HD
ENDBRANCH  14  16
BRANCH  15  24
ATOM     24  O   UNL     1      -8.173   2.234 132.446  0.00  0.00    +0.000 OA
ATOM     25  C   UNL     1      -9.524   2.589 132.186  0.00  0.00    +0.000 C 
ENDBRANCH  15  24
ENDBRANCH  11  14
ENDBRANCH   9  10
BRANCH   5  26
ATOM     26  C   UNL     1      -7.059   5.331 125.312  0.00  0.00    +0.000 C 
ATOM     27  OXT UNL     1      -6.167   6.096 124.968  0.00  0.00    +0.000 OA
BRANCH  26  28
ATOM     28  O   UNL     1      -8.296   5.815 125.534  0.00  0.00    +0.000 OA
ATOM     29  H   UNL     1      -8.824   5.372 126.226  0.00  0.00    +0.000 HD
ENDBRANCH  26  28
ENDBRANCH   5  26
BRANCH   4  30
ATOM     30  C   UNL     1      -7.407   3.307 123.193  0.00  0.00    +0.000 C 
BRANCH  30  31
ATOM     31  S   UNL     1      -6.270   2.682 121.910  0.00  0.00    +0.000 S 
BRANCH  31  32
ATOM     32  C   UNL     1      -5.426   4.064 121.330  0.00  0.00    +0.000 A 
ATOM     33  N   UNL     1      -4.553   4.775 122.006  0.00  0.00    +0.000 NA
ATOM     34  N   UNL     1      -4.330   5.909 121.257  0.00  0.00    +0.000 NA
ATOM     35  N   UNL     1      -5.070   5.906 120.156  0.00  0.00    +0.000 NA
ATOM     36  N   UNL     1      -5.759   4.752 120.202  0.00  0.00    +0.000 N 
ATOM     37  C   UNL     1      -6.711   4.425 119.181  0.00  0.00    +0.000 C 
ENDBRANCH  31  32
ENDBRANCH  30  31
ENDBRANCH   4  30
TORSDOF 9
ENDMDL
MODEL 9
REMARK VINA RESULT:      -7.3      3.965      5.181
REMARK  Name = Cefmenoxime
REMARK  11 active torsions:
REMARK  status: ('A' for Active; 'I' for Inactive)
REMARK    1  A    between atoms: C_5  and  C_6
REMARK    2  A    between atoms: C_6  and  S_7
REMARK    3  A    between atoms: S_7  and  C_8
REMARK    4  A    between atoms: N_12  and  C_13
REMARK    5  A    between atoms: CA_14  and  C_32
REMARK    6  A    between atoms: CA_18  and  N_19
REMARK    7  A    between atoms: C_20  and  C_22
REMARK    8  A    between atoms: C_22  and  C_26
REMARK    9  A    between atoms: N_23  and  O_24
REMARK   10  A    between atoms: O_24  and  C_25
REMARK   11  A    between atoms: C_32  and  O_33
REMARK                            x       y       z     vdW  Elec       q    Type
REMARK                         _______ _______ _______ _____ _____    ______ ____
ROOT
ATOM      1  C   UNL     1      -4.576   2.934 126.219  0.00  0.00    +0.000 C 
ATOM      2  S   UNL     1      -5.482   1.818 127.308  0.00  0.00    +0.000 S 
ATOM      3  C   UNL     1      -5.822   0.658 125.961  0.00  0.00    +0.000 C 
ATOM      4  C   UNL     1      -6.510   1.280 124.756  0.00  0.00    +0.000 C 
ATOM      5  CA  UNL     1      -6.365   2.608 124.455  0.00  0.00    +0.000 C 
ATOM      6  N   UNL     1      -5.495   3.406 125.180  0.00  0.00    +0.000 N 
ATOM      7  C   UNL     1      -5.653   4.649 125.721  0.00  0.00    +0.000 C 
ATOM      8  O   UNL     1      -6.436   5.517 125.434  0.00  0.00    +0.000 OA
ATOM      9  CA  UNL     1      -4.439   4.417 126.678  0.00  0.00    +0.000 C 
ENDROOT
BRANCH   9  10
ATOM     10  N   UNL     1      -4.549   4.735 128.126  0.00  0.00    +0.000 N 
ATOM     11  C   UNL     1      -4.302   6.016 128.613  0.00  0.00    +0.000 C 
ATOM     12  O   UNL     1      -3.859   6.893 127.880  0.00  0.00    +0.000 OA
ATOM     13  H   UNL     1      -4.879   4.052 128.803  0.00  0.00    +0.000 HD
BRANCH  11  14
ATOM     14  C   UNL     1      -4.548   6.300 130.121  0.00  0.00    +0.000 C 
ATOM     15  N   UNL     1      -5.684   6.081 130.744  0.00  0.00    +0.000 NA
BRANCH  14  16
ATOM     16  C   UNL     1      -3.428   6.794 130.957  0.00  0.00    +0.000 A 
ATOM     17  C   UNL     1      -3.528   7.913 131.766  0.00  0.00    +0.000 A 
ATOM     18  S   UNL     1      -2.067   8.187 132.614  0.00  0.00    +0.000 S 
ATOM     19  C   UNL     1      -1.373   6.812 131.854  0.00  0.00    +0.000 A 
ATOM     20  N   UNL     1      -0.107   6.463 132.121  0.00  0.00    +0.000 N 
ATOM     21  N   UNL     1      -2.170   6.174 131.024  0.00  0.00    +0.000 NA
ATOM     22  H   UNL     1       0.463   6.976 132.783  0.00  0.00    +0.000 HD
ATOM     23  H   UNL     1       0.304   5.643 131.696  0.00  0.00    +0.000 HD
ENDBRANCH  14  16
BRANCH  15  24
ATOM     24  O   UNL     1      -6.691   5.603 129.896  0.00  0.00    +0.000 OA
ATOM     25  C   UNL     1      -7.553   4.689 130.558  0.00  0.00    +0.000 C 
ENDBRANCH  15  24
ENDBRANCH  11  14
ENDBRANCH   9  10
BRANCH   5  26
ATOM     26  C   UNL     1      -7.132   3.189 123.271  0.00  0.00    +0.000 C 
ATOM     27  OXT UNL     1      -6.680   3.241 122.135  0.00  0.00    +0.000 OA
BRANCH  26  28
ATOM     28  O   UNL     1      -8.320   3.765 123.537  0.00  0.00    +0.000 OA
ATOM     29  H   UNL     1      -9.046   3.172 123.811  0.00  0.00    +0.000 HD
ENDBRANCH  26  28
ENDBRANCH   5  26
BRANCH   4  30
ATOM     30  C   UNL     1      -7.386   0.320 123.911  0.00  0.00    +0.000 C 
BRANCH  30  31
ATOM     31  S   UNL     1      -9.033  -0.023 124.618  0.00  0.00    +0.000 S 
BRANCH  31  32
ATOM     32  C   UNL     1      -8.886  -1.544 125.407  0.00  0.00    +0.000 A 
ATOM     33  N   UNL     1      -8.492  -1.737 126.645  0.00  0.00    +0.000 NA
ATOM     34  N   UNL     1      -8.284  -3.093 126.768  0.00  0.00    +0.000 NA
ATOM     35  N   UNL     1      -8.523  -3.717 125.621  0.00  0.00    +0.000 NA
ATOM     36  N   UNL     1      -8.896  -2.747 124.768  0.00  0.00    +0.000 N 
ATOM     37  C   UNL     1      -9.192  -3.050 123.398  0.00  0.00    +0.000 C 
ENDBRANCH  31  32
ENDBRANCH  30  31
ENDBRANCH   4  30
TORSDOF 9
ENDMDL
