MODEL 1
REMARK VINA RESULT:      -6.3      0.000      0.000
REMARK  Name = Cefmetazole
REMARK  13 active torsions:
REMARK  status: ('A' for Active; 'I' for Inactive)
REMARK    1  A    between atoms: C_5  and  C_6
REMARK    2  A    between atoms: C_6  and  S_7
REMARK    3  A    between atoms: S_7  and  C_8
REMARK    4  A    between atoms: N_12  and  C_13
REMARK    5  A    between atoms: C_14  and  C_29
REMARK    6  A    between atoms: C_18  and  N_19
REMARK    7  A    between atoms: C_18  and  O_27
REMARK    8  A    between atoms: C_20  and  C_22
REMARK    9  A    between atoms: C_22  and  S_23
REMARK   10  A    between atoms: S_23  and  C_24
REMARK   11  A    between atoms: C_24  and  C_25
REMARK   12  A    between atoms: O_27  and  C_28
REMARK   13  A    between atoms: C_29  and  O_30
REMARK                            x       y       z     vdW  Elec       q    Type
REMARK                         _______ _______ _______ _____ _____    ______ ____
ROOT
ATOM      1  C   UNL     1      -7.425   3.098 129.448  0.00  0.00    +0.000 C 
ATOM      2  S   UNL     1      -8.466   1.756 129.995  0.00  0.00    +0.000 S 
ATOM      3  C   UNL     1      -7.569   0.491 129.115  0.00  0.00    +0.000 C 
ATOM      4  C   UNL     1      -7.166   0.772 127.679  0.00  0.00    +0.000 C 
ATOM      5  C   UNL     1      -7.060   2.039 127.177  0.00  0.00    +0.000 C 
ATOM      6  N   UNL     1      -7.276   3.128 127.997  0.00  0.00    +0.000 N 
ATOM      7  C   UNL     1      -7.920   4.313 127.797  0.00  0.00    +0.000 C 
ATOM      8  O   UNL     1      -8.180   4.863 126.757  0.00  0.00    +0.000 OA
ATOM      9  C   UNL     1      -8.033   4.570 129.384  0.00  0.00    +0.000 C 
ENDROOT
BRANCH   9  10
ATOM     10  N   UNL     1      -9.389   4.873 129.944  0.00  0.00    +0.000 N 
ATOM     11  C   UNL     1     -10.165   5.959 129.651  0.00  0.00    +0.000 C 
ATOM     12  O   UNL     1      -9.728   6.877 128.969  0.00  0.00    +0.000 OA
ATOM     13  H   UNL     1      -9.639   4.379 130.790  0.00  0.00    +0.000 HD
BRANCH  11  14
ATOM     14  C   UNL     1     -11.586   5.914 130.260  0.00  0.00    +0.000 C 
BRANCH  14  15
ATOM     15  S   UNL     1     -12.351   7.528 129.891  0.00  0.00    +0.000 S 
BRANCH  15  16
ATOM     16  C   UNL     1     -13.537   7.190 128.554  0.00  0.00    +0.000 C 
BRANCH  16  17
ATOM     17  C   UNL     1     -12.709   7.060 127.286  0.00  0.00    +0.000 C 
ATOM     18  N   UNL     1     -12.022   6.951 126.235  0.00  0.00    +0.000 NA
ENDBRANCH  16  17
ENDBRANCH  15  16
ENDBRANCH  14  15
ENDBRANCH  11  14
ENDBRANCH   9  10
BRANCH   9  19
ATOM     19  O   UNL     1      -7.108   5.599 129.860  0.00  0.00    +0.000 OA
ATOM     20  C   UNL     1      -7.138   5.819 131.270  0.00  0.00    +0.000 C 
ENDBRANCH   9  19
BRANCH   5  21
ATOM     21  C   UNL     1      -6.652   2.231 125.715  0.00  0.00    +0.000 C 
ATOM     22  O   UNL     1      -5.487   2.321 125.345  0.00  0.00    +0.000 OA
BRANCH  21  23
ATOM     23  O   UNL     1      -7.641   2.451 124.826  0.00  0.00    +0.000 OA
ATOM     24  H   UNL     1      -7.738   3.369 124.500  0.00  0.00    +0.000 HD
ENDBRANCH  21  23
ENDBRANCH   5  21
BRANCH   4  25
ATOM     25  C   UNL     1      -6.895  -0.491 126.824  0.00  0.00    +0.000 C 
BRANCH  25  26
ATOM     26  S   UNL     1      -8.403  -1.372 126.293  0.00  0.00    +0.000 S 
BRANCH  26  27
ATOM     27  C   UNL     1      -9.137  -0.358 125.121  0.00  0.00    +0.000 A 
ATOM     28  N   UNL     1     -10.017   0.586 125.359  0.00  0.00    +0.000 NA
ATOM     29  N   UNL     1     -10.513   0.955 124.130  0.00  0.00    +0.000 NA
ATOM     30  N   UNL     1      -9.968   0.233 123.159  0.00  0.00    +0.000 NA
ATOM     31  N   UNL     1      -9.106  -0.592 123.780  0.00  0.00    +0.000 N 
ATOM     32  C   UNL     1      -8.360  -1.568 123.039  0.00  0.00    +0.000 C 
ENDBRANCH  26  27
ENDBRANCH  25  26
ENDBRANCH   4  25
TORSDOF 11
ENDMDL
MODEL 2
REMARK VINA RESULT:      -6.3      4.219      6.648
REMARK  Name = Cefmetazole
REMARK  13 active torsions:
REMARK  status: ('A' for Active; 'I' for Inactive)
REMARK    1  A    between atoms: C_5  and  C_6
REMARK    2  A    between atoms: C_6  and  S_7
REMARK    3  A    between atoms: S_7  and  C_8
REMARK    4  A    between atoms: N_12  and  C_13
REMARK    5  A    between atoms: C_14  and  C_29
REMARK    6  A    between atoms: C_18  and  N_19
REMARK    7  A    between atoms: C_18  and  O_27
REMARK    8  A    between atoms: C_20  and  C_22
REMARK    9  A    between atoms: C_22  and  S_23
REMARK   10  A    between atoms: S_23  and  C_24
REMARK   11  A    between atoms: C_24  and  C_25
REMARK   12  A    between atoms: O_27  and  C_28
REMARK   13  A    between atoms: C_29  and  O_30
REMARK                            x       y       z     vdW  Elec       q    Type
REMARK                         _______ _______ _______ _____ _____    ______ ____
ROOT
ATOM      1  C   UNL     1      -6.030   2.501 128.287  0.00  0.00    +0.000 C 
ATOM      2  S   UNL     1      -4.728   1.803 127.287  0.00  0.00    +0.000 S 
ATOM      3  C   UNL     1      -4.607   3.200 126.186  0.00  0.00    +0.000 C 
ATOM      4  C   UNL     1      -5.895   3.810 125.665  0.00  0.00    +0.000 C 
ATOM      5  C   UNL     1      -7.096   3.649 126.298  0.00  0.00    +0.000 C 
ATOM      6  N   UNL     1      -7.164   2.951 127.486  0.00  0.00    +0.000 N 
ATOM      7  C   UNL     1      -8.065   2.049 127.969  0.00  0.00    +0.000 C 
ATOM      8  O   UNL     1      -9.210   1.876 127.636  0.00  0.00    +0.000 OA
ATOM      9  C   UNL     1      -7.013   1.520 129.069  0.00  0.00    +0.000 C 
ENDROOT
BRANCH   9  10
ATOM     10  N   UNL     1      -6.751   0.046 129.127  0.00  0.00    +0.000 N 
ATOM     11  C   UNL     1      -5.800  -0.582 129.881  0.00  0.00    +0.000 C 
ATOM     12  O   UNL     1      -4.963   0.063 130.499  0.00  0.00    +0.000 OA
ATOM     13  H   UNL     1      -7.129  -0.500 128.364  0.00  0.00    +0.000 HD
BRANCH  11  14
ATOM     14  C   UNL     1      -5.880  -2.126 129.856  0.00  0.00    +0.000 C 
BRANCH  14  15
ATOM     15  S   UNL     1      -7.587  -2.558 130.327  0.00  0.00    +0.000 S 
BRANCH  15  16
ATOM     16  C   UNL     1      -8.250  -3.474 128.903  0.00  0.00    +0.000 C 
BRANCH  16  17
ATOM     17  C   UNL     1      -8.100  -2.550 127.706  0.00  0.00    +0.000 C 
ATOM     18  N   UNL     1      -7.975  -1.783 126.713  0.00  0.00    +0.000 NA
ENDBRANCH  16  17
ENDBRANCH  15  16
ENDBRANCH  14  15
ENDBRANCH  11  14
ENDBRANCH   9  10
BRANCH   9  19
ATOM     19  O   UNL     1      -7.328   1.976 130.423  0.00  0.00    +0.000 OA
ATOM     20  C   UNL     1      -8.383   1.258 131.061  0.00  0.00    +0.000 C 
ENDBRANCH   9  19
BRANCH   5  21
ATOM     21  C   UNL     1      -8.348   4.295 125.699  0.00  0.00    +0.000 C 
ATOM     22  O   UNL     1      -8.710   5.436 125.960  0.00  0.00    +0.000 OA
BRANCH  21  23
ATOM     23  O   UNL     1      -9.153   3.504 124.962  0.00  0.00    +0.000 OA
ATOM     24  H   UNL     1      -9.528   2.721 125.415  0.00  0.00    +0.000 HD
ENDBRANCH  21  23
ENDBRANCH   5  21
BRANCH   4  25
ATOM     25  C   UNL     1      -5.744   4.619 124.352  0.00  0.00    +0.000 C 
BRANCH  25  26
ATOM     26  S   UNL     1      -6.043   3.646 122.836  0.00  0.00    +0.000 S 
BRANCH  26  27
ATOM     27  C   UNL     1      -5.399   4.588 121.555  0.00  0.00    +0.000 A 
ATOM     28  N   UNL     1      -4.460   5.498 121.663  0.00  0.00    +0.000 NA
ATOM     29  N   UNL     1      -4.444   6.165 120.460  0.00  0.00    +0.000 NA
ATOM     30  N   UNL     1      -5.373   5.690 119.639  0.00  0.00    +0.000 NA
ATOM     31  N   UNL     1      -5.974   4.703 120.326  0.00  0.00    +0.000 N 
ATOM     32  C   UNL     1      -7.081   3.984 119.764  0.00  0.00    +0.000 C 
ENDBRANCH  26  27
ENDBRANCH  25  26
ENDBRANCH   4  25
TORSDOF 11
ENDMDL
MODEL 3
REMARK VINA RESULT:      -6.2      2.010      2.543
REMARK  Name = Cefmetazole
REMARK  13 active torsions:
REMARK  status: ('A' for Active; 'I' for Inactive)
REMARK    1  A    between atoms: C_5  and  C_6
REMARK    2  A    between atoms: C_6  and  S_7
REMARK    3  A    between atoms: S_7  and  C_8
REMARK    4  A    between atoms: N_12  and  C_13
REMARK    5  A    between atoms: C_14  and  C_29
REMARK    6  A    between atoms: C_18  and  N_19
REMARK    7  A    between atoms: C_18  and  O_27
REMARK    8  A    between atoms: C_20  and  C_22
REMARK    9  A    between atoms: C_22  and  S_23
REMARK   10  A    between atoms: S_23  and  C_24
REMARK   11  A    between atoms: C_24  and  C_25
REMARK   12  A    between atoms: O_27  and  C_28
REMARK   13  A    between atoms: C_29  and  O_30
REMARK                            x       y       z     vdW  Elec       q    Type
REMARK                         _______ _______ _______ _____ _____    ______ ____
ROOT
ATOM      1  C   UNL     1      -6.056   2.688 127.144  0.00  0.00    +0.000 C 
ATOM      2  S   UNL     1      -6.507   1.106 127.836  0.00  0.00    +0.000 S 
ATOM      3  C   UNL     1      -6.066   0.167 126.385  0.00  0.00    +0.000 C 
ATOM      4  C   UNL     1      -6.500   0.700 125.032  0.00  0.00    +0.000 C 
ATOM      5  C   UNL     1      -6.810   2.015 124.823  0.00  0.00    +0.000 C 
ATOM      6  N   UNL     1      -6.686   2.928 125.850  0.00  0.00    +0.000 N 
ATOM      7  C   UNL     1      -7.465   3.974 126.246  0.00  0.00    +0.000 C 
ATOM      8  O   UNL     1      -8.286   4.585 125.610  0.00  0.00    +0.000 OA
ATOM      9  C   UNL     1      -6.765   4.003 127.698  0.00  0.00    +0.000 C 
ENDROOT
BRANCH   9  10
ATOM     10  N   UNL     1      -7.657   3.954 128.901  0.00  0.00    +0.000 N 
ATOM     11  C   UNL     1      -8.726   4.767 129.153  0.00  0.00    +0.000 C 
ATOM     12  O   UNL     1      -8.967   5.729 128.434  0.00  0.00    +0.000 OA
ATOM     13  H   UNL     1      -7.291   3.460 129.703  0.00  0.00    +0.000 HD
BRANCH  11  14
ATOM     14  C   UNL     1      -9.553   4.370 130.397  0.00  0.00    +0.000 C 
BRANCH  14  15
ATOM     15  S   UNL     1      -9.648   5.859 131.445  0.00  0.00    +0.000 S 
BRANCH  15  16
ATOM     16  C   UNL     1     -11.421   6.245 131.553  0.00  0.00    +0.000 C 
BRANCH  16  17
ATOM     17  C   UNL     1     -11.951   6.172 130.130  0.00  0.00    +0.000 C 
ATOM     18  N   UNL     1     -12.391   6.111 128.950  0.00  0.00    +0.000 NA
ENDBRANCH  16  17
ENDBRANCH  15  16
ENDBRANCH  14  15
ENDBRANCH  11  14
ENDBRANCH   9  10
BRANCH   9  19
ATOM     19  O   UNL     1      -5.847   5.130 127.862  0.00  0.00    +0.000 OA
ATOM     20  C   UNL     1      -5.172   5.168 129.119  0.00  0.00    +0.000 C 
ENDBRANCH   9  19
BRANCH   5  21
ATOM     21  C   UNL     1      -7.244   2.466 123.426  0.00  0.00    +0.000 C 
ATOM     22  O   UNL     1      -6.456   2.778 122.541  0.00  0.00    +0.000 OA
BRANCH  21  23
ATOM     23  O   UNL     1      -8.563   2.658 123.227  0.00  0.00    +0.000 OA
ATOM     24  H   UNL     1      -8.899   3.566 123.376  0.00  0.00    +0.000 HD
ENDBRANCH  21  23
ENDBRANCH   5  21
BRANCH   4  25
ATOM     25  C   UNL     1      -6.577  -0.365 123.911  0.00  0.00    +0.000 C 
BRANCH  25  26
ATOM     26  S   UNL     1      -7.981  -1.521 124.072  0.00  0.00    +0.000 S 
BRANCH  26  27
ATOM     27  C   UNL     1      -9.378  -0.598 123.697  0.00  0.00    +0.000 A 
ATOM     28  N   UNL     1      -9.846  -0.361 122.493  0.00  0.00    +0.000 NA
ATOM     29  N   UNL     1     -10.805   0.613 122.650  0.00  0.00    +0.000 NA
ATOM     30  N   UNL     1     -10.905   0.986 123.920  0.00  0.00    +0.000 NA
ATOM     31  N   UNL     1     -10.009   0.228 124.577  0.00  0.00    +0.000 N 
ATOM     32  C   UNL     1      -9.799   0.392 125.986  0.00  0.00    +0.000 C 
ENDBRANCH  26  27
ENDBRANCH  25  26
ENDBRANCH   4  25
TORSDOF 11
ENDMDL
MODEL 4
REMARK VINA RESULT:      -6.1      4.397      6.123
REMARK  Name = Cefmetazole
REMARK  13 active torsions:
REMARK  status: ('A' for Active; 'I' for Inactive)
REMARK    1  A    between atoms: C_5  and  C_6
REMARK    2  A    between atoms: C_6  and  S_7
REMARK    3  A    between atoms: S_7  and  C_8
REMARK    4  A    between atoms: N_12  and  C_13
REMARK    5  A    between atoms: C_14  and  C_29
REMARK    6  A    between atoms: C_18  and  N_19
REMARK    7  A    between atoms: C_18  and  O_27
REMARK    8  A    between atoms: C_20  and  C_22
REMARK    9  A    between atoms: C_22  and  S_23
REMARK   10  A    between atoms: S_23  and  C_24
REMARK   11  A    between atoms: C_24  and  C_25
REMARK   12  A    between atoms: O_27  and  C_28
REMARK   13  A    between atoms: C_29  and  O_30
REMARK                            x       y       z     vdW  Elec       q    Type
REMARK                         _______ _______ _______ _____ _____    ______ ____
ROOT
ATOM      1  C   UNL     1      -7.818   3.790 126.835  0.00  0.00    +0.000 C 
ATOM      2  S   UNL     1      -6.250   4.349 126.194  0.00  0.00    +0.000 S 
ATOM      3  C   UNL     1      -6.820   4.525 124.514  0.00  0.00    +0.000 C 
ATOM      4  C   UNL     1      -7.671   3.413 123.930  0.00  0.00    +0.000 C 
ATOM      5  C   UNL     1      -8.368   2.532 124.708  0.00  0.00    +0.000 C 
ATOM      6  N   UNL     1      -8.356   2.661 126.082  0.00  0.00    +0.000 N 
ATOM      7  C   UNL     1      -8.273   1.747 127.089  0.00  0.00    +0.000 C 
ATOM      8  O   UNL     1      -8.527   0.569 127.059  0.00  0.00    +0.000 OA
ATOM      9  C   UNL     1      -7.838   2.883 128.145  0.00  0.00    +0.000 C 
ENDROOT
BRANCH   9  10
ATOM     10  N   UNL     1      -6.591   2.648 128.944  0.00  0.00    +0.000 N 
ATOM     11  C   UNL     1      -5.987   3.536 129.787  0.00  0.00    +0.000 C 
ATOM     12  O   UNL     1      -6.371   4.697 129.857  0.00  0.00    +0.000 OA
ATOM     13  H   UNL     1      -6.013   1.875 128.642  0.00  0.00    +0.000 HD
BRANCH  11  14
ATOM     14  C   UNL     1      -4.807   2.950 130.596  0.00  0.00    +0.000 C 
BRANCH  14  15
ATOM     15  S   UNL     1      -3.497   4.219 130.583  0.00  0.00    +0.000 S 
BRANCH  15  16
ATOM     16  C   UNL     1      -3.006   4.368 128.839  0.00  0.00    +0.000 C 
BRANCH  16  17
ATOM     17  C   UNL     1      -3.477   5.742 128.389  0.00  0.00    +0.000 C 
ATOM     18  N   UNL     1      -3.867   6.881 128.017  0.00  0.00    +0.000 NA
ENDBRANCH  16  17
ENDBRANCH  15  16
ENDBRANCH  14  15
ENDBRANCH  11  14
ENDBRANCH   9  10
BRANCH   9  19
ATOM     19  O   UNL     1      -8.910   3.234 129.077  0.00  0.00    +0.000 OA
ATOM     20  C   UNL     1      -9.021   2.371 130.207  0.00  0.00    +0.000 C 
ENDBRANCH   9  19
BRANCH   5  21
ATOM     21  C   UNL     1      -9.198   1.436 124.035  0.00  0.00    +0.000 C 
ATOM     22  O   UNL     1      -8.709   0.438 123.519  0.00  0.00    +0.000 OA
BRANCH  21  23
ATOM     23  O   UNL     1     -10.517   1.671 123.887  0.00  0.00    +0.000 OA
ATOM     24  H   UNL     1     -10.992   1.106 123.244  0.00  0.00    +0.000 HD
ENDBRANCH  21  23
ENDBRANCH   5  21
BRANCH   4  25
ATOM     25  C   UNL     1      -7.679   3.348 122.382  0.00  0.00    +0.000 C 
BRANCH  25  26
ATOM     26  S   UNL     1      -6.098   2.802 121.649  0.00  0.00    +0.000 S 
BRANCH  26  27
ATOM     27  C   UNL     1      -5.352   4.229 121.056  0.00  0.00    +0.000 A 
ATOM     28  N   UNL     1      -4.492   4.977 121.706  0.00  0.00    +0.000 NA
ATOM     29  N   UNL     1      -4.362   6.129 120.965  0.00  0.00    +0.000 NA
ATOM     30  N   UNL     1      -5.146   6.098 119.894  0.00  0.00    +0.000 NA
ATOM     31  N   UNL     1      -5.769   4.908 119.952  0.00  0.00    +0.000 N 
ATOM     32  C   UNL     1      -6.747   4.542 118.969  0.00  0.00    +0.000 C 
ENDBRANCH  26  27
ENDBRANCH  25  26
ENDBRANCH   4  25
TORSDOF 11
ENDMDL
MODEL 5
REMARK VINA RESULT:      -6.1      3.885      4.942
REMARK  Name = Cefmetazole
REMARK  13 active torsions:
REMARK  status: ('A' for Active; 'I' for Inactive)
REMARK    1  A    between atoms: C_5  and  C_6
REMARK    2  A    between atoms: C_6  and  S_7
REMARK    3  A    between atoms: S_7  and  C_8
REMARK    4  A    between atoms: N_12  and  C_13
REMARK    5  A    between atoms: C_14  and  C_29
REMARK    6  A    between atoms: C_18  and  N_19
REMARK    7  A    between atoms: C_18  and  O_27
REMARK    8  A    between atoms: C_20  and  C_22
REMARK    9  A    between atoms: C_22  and  S_23
REMARK   10  A    between atoms: S_23  and  C_24
REMARK   11  A    between atoms: C_24  and  C_25
REMARK   12  A    between atoms: O_27  and  C_28
REMARK   13  A    between atoms: C_29  and  O_30
REMARK                            x       y       z     vdW  Elec       q    Type
REMARK                         _______ _______ _______ _____ _____    ______ ____
ROOT
ATOM      1  C   UNL     1      -5.028   2.020 126.325  0.00  0.00    +0.000 C 
ATOM      2  S   UNL     1      -5.611   0.791 127.480  0.00  0.00    +0.000 S 
ATOM      3  C   UNL     1      -6.883   0.155 126.404  0.00  0.00    +0.000 C 
ATOM      4  C   UNL     1      -7.749   1.153 125.657  0.00  0.00    +0.000 C 
ATOM      5  C   UNL     1      -7.355   2.440 125.422  0.00  0.00    +0.000 C 
ATOM      6  N   UNL     1      -6.106   2.867 125.823  0.00  0.00    +0.000 N 
ATOM      7  C   UNL     1      -5.671   4.028 126.390  0.00  0.00    +0.000 C 
ATOM      8  O   UNL     1      -6.196   5.113 126.382  0.00  0.00    +0.000 OA
ATOM      9  C   UNL     1      -4.308   3.326 126.887  0.00  0.00    +0.000 C 
ENDROOT
BRANCH   9  10
ATOM     10  N   UNL     1      -3.951   3.452 128.337  0.00  0.00    +0.000 N 
ATOM     11  C   UNL     1      -3.759   4.614 129.029  0.00  0.00    +0.000 C 
ATOM     12  O   UNL     1      -3.737   5.693 128.450  0.00  0.00    +0.000 OA
ATOM     13  H   UNL     1      -3.573   2.621 128.772  0.00  0.00    +0.000 HD
BRANCH  11  14
ATOM     14  C   UNL     1      -3.562   4.428 130.551  0.00  0.00    +0.000 C 
BRANCH  14  15
ATOM     15  S   UNL     1      -5.182   3.923 131.218  0.00  0.00    +0.000 S 
BRANCH  15  16
ATOM     16  C   UNL     1      -5.703   5.302 132.282  0.00  0.00    +0.000 C 
BRANCH  16  17
ATOM     17  C   UNL     1      -6.053   6.444 131.342  0.00  0.00    +0.000 C 
ATOM     18  N   UNL     1      -6.344   7.391 130.562  0.00  0.00    +0.000 NA
ENDBRANCH  16  17
ENDBRANCH  15  16
ENDBRANCH  14  15
ENDBRANCH  11  14
ENDBRANCH   9  10
BRANCH   9  19
ATOM     19  O   UNL     1      -3.142   3.729 126.100  0.00  0.00    +0.000 OA
ATOM     20  C   UNL     1      -1.909   3.150 126.525  0.00  0.00    +0.000 C 
ENDBRANCH   9  19
BRANCH   5  21
ATOM     21  C   UNL     1      -8.295   3.382 124.665  0.00  0.00    +0.000 C 
ATOM     22  O   UNL     1      -8.344   3.449 123.443  0.00  0.00    +0.000 OA
BRANCH  21  23
ATOM     23  O   UNL     1      -8.991   4.273 125.399  0.00  0.00    +0.000 OA
ATOM     24  H   UNL     1      -9.898   4.478 125.091  0.00  0.00    +0.000 HD
ENDBRANCH  21  23
ENDBRANCH   5  21
BRANCH   4  25
ATOM     25  C   UNL     1      -9.120   0.601 125.194  0.00  0.00    +0.000 C 
BRANCH  25  26
ATOM     26  S   UNL     1      -9.089  -0.199 123.553  0.00  0.00    +0.000 S 
BRANCH  26  27
ATOM     27  C   UNL     1      -8.707  -1.844 123.854  0.00  0.00    +0.000 A 
ATOM     28  N   UNL     1      -9.440  -2.696 124.533  0.00  0.00    +0.000 NA
ATOM     29  N   UNL     1      -8.642  -3.797 124.737  0.00  0.00    +0.000 NA
ATOM     30  N   UNL     1      -7.434  -3.616 124.216  0.00  0.00    +0.000 NA
ATOM     31  N   UNL     1      -7.474  -2.390 123.664  0.00  0.00    +0.000 N 
ATOM     32  C   UNL     1      -6.311  -1.826 123.043  0.00  0.00    +0.000 C 
ENDBRANCH  26  27
ENDBRANCH  25  26
ENDBRANCH   4  25
TORSDOF 11
ENDMDL
MODEL 6
REMARK VINA RESULT:      -6.0      4.475      7.130
REMARK  Name = Cefmetazole
REMARK  13 active torsions:
REMARK  status: ('A' for Active; 'I' for Inactive)
REMARK    1  A    between atoms: C_5  and  C_6
REMARK    2  A    between atoms: C_6  and  S_7
REMARK    3  A    between atoms: S_7  and  C_8
REMARK    4  A    between atoms: N_12  and  C_13
REMARK    5  A    between atoms: C_14  and  C_29
REMARK    6  A    between atoms: C_18  and  N_19
REMARK    7  A    between atoms: C_18  and  O_27
REMARK    8  A    between atoms: C_20  and  C_22
REMARK    9  A    between atoms: C_22  and  S_23
REMARK   10  A    between atoms: S_23  and  C_24
REMARK   11  A    between atoms: C_24  and  C_25
REMARK   12  A    between atoms: O_27  and  C_28
REMARK   13  A    between atoms: C_29  and  O_30
REMARK                            x       y       z     vdW  Elec       q    Type
REMARK                         _______ _______ _______ _____ _____    ______ ____
ROOT
ATOM      1  C   UNL     1      -5.927   2.750 128.370  0.00  0.00    +0.000 C 
ATOM      2  S   UNL     1      -4.553   2.118 127.422  0.00  0.00    +0.000 S 
ATOM      3  C   UNL     1      -4.537   3.463 126.252  0.00  0.00    +0.000 C 
ATOM      4  C   UNL     1      -5.865   3.931 125.685  0.00  0.00    +0.000 C 
ATOM      5  C   UNL     1      -7.057   3.698 126.312  0.00  0.00    +0.000 C 
ATOM      6  N   UNL     1      -7.083   3.057 127.533  0.00  0.00    +0.000 N 
ATOM      7  C   UNL     1      -7.910   2.106 128.053  0.00  0.00    +0.000 C 
ATOM      8  O   UNL     1      -9.031   1.817 127.715  0.00  0.00    +0.000 OA
ATOM      9  C   UNL     1      -6.833   1.728 129.191  0.00  0.00    +0.000 C 
ENDROOT
BRANCH   9  10
ATOM     10  N   UNL     1      -6.446   0.287 129.328  0.00  0.00    +0.000 N 
ATOM     11  C   UNL     1      -7.219  -0.717 129.840  0.00  0.00    +0.000 C 
ATOM     12  O   UNL     1      -8.296  -0.472 130.370  0.00  0.00    +0.000 OA
ATOM     13  H   UNL     1      -5.456   0.089 129.280  0.00  0.00    +0.000 HD
BRANCH  11  14
ATOM     14  C   UNL     1      -6.608  -2.130 129.701  0.00  0.00    +0.000 C 
BRANCH  14  15
ATOM     15  S   UNL     1      -5.309  -2.003 128.428  0.00  0.00    +0.000 S 
BRANCH  15  16
ATOM     16  C   UNL     1      -3.989  -3.121 128.989  0.00  0.00    +0.000 C 
BRANCH  16  17
ATOM     17  C   UNL     1      -3.450  -2.516 130.276  0.00  0.00    +0.000 C 
ATOM     18  N   UNL     1      -3.003  -2.014 131.342  0.00  0.00    +0.000 NA
ENDBRANCH  16  17
ENDBRANCH  15  16
ENDBRANCH  14  15
ENDBRANCH  11  14
ENDBRANCH   9  10
BRANCH   9  19
ATOM     19  O   UNL     1      -7.209   2.223 130.515  0.00  0.00    +0.000 OA
ATOM     20  C   UNL     1      -6.126   2.335 131.437  0.00  0.00    +0.000 C 
ENDBRANCH   9  19
BRANCH   5  21
ATOM     21  C   UNL     1      -8.350   4.201 125.666  0.00  0.00    +0.000 C 
ATOM     22  O   UNL     1      -9.031   3.527 124.902  0.00  0.00    +0.000 OA
BRANCH  21  23
ATOM     23  O   UNL     1      -8.660   5.501 125.847  0.00  0.00    +0.000 OA
ATOM     24  H   UNL     1      -8.060   6.016 126.424  0.00  0.00    +0.000 HD
ENDBRANCH  21  23
ENDBRANCH   5  21
BRANCH   4  25
ATOM     25  C   UNL     1      -5.763   4.682 124.334  0.00  0.00    +0.000 C 
BRANCH  25  26
ATOM     26  S   UNL     1      -5.999   3.619 122.868  0.00  0.00    +0.000 S 
BRANCH  26  27
ATOM     27  C   UNL     1      -5.405   4.532 121.542  0.00  0.00    +0.000 A 
ATOM     28  N   UNL     1      -4.432   5.412 121.585  0.00  0.00    +0.000 NA
ATOM     29  N   UNL     1      -4.468   6.070 120.378  0.00  0.00    +0.000 NA
ATOM     30  N   UNL     1      -5.461   5.621 119.619  0.00  0.00    +0.000 NA
ATOM     31  N   UNL     1      -6.049   4.657 120.350  0.00  0.00    +0.000 N 
ATOM     32  C   UNL     1      -7.210   3.971 119.862  0.00  0.00    +0.000 C 
ENDBRANCH  26  27
ENDBRANCH  25  26
ENDBRANCH   4  25
TORSDOF 11
ENDMDL
MODEL 7
REMARK VINA RESULT:      -5.9      4.471      7.111
REMARK  Name = Cefmetazole
REMARK  13 active torsions:
REMARK  status: ('A' for Active; 'I' for Inactive)
REMARK    1  A    between atoms: C_5  and  C_6
REMARK    2  A    between atoms: C_6  and  S_7
REMARK    3  A    between atoms: S_7  and  C_8
REMARK    4  A    between atoms: N_12  and  C_13
REMARK    5  A    between atoms: C_14  and  C_29
REMARK    6  A    between atoms: C_18  and  N_19
REMARK    7  A    between atoms: C_18  and  O_27
REMARK    8  A    between atoms: C_20  and  C_22
REMARK    9  A    between atoms: C_22  and  S_23
REMARK   10  A    between atoms: S_23  and  C_24
REMARK   11  A    between atoms: C_24  and  C_25
REMARK   12  A    between atoms: O_27  and  C_28
REMARK   13  A    between atoms: C_29  and  O_30
REMARK                            x       y       z     vdW  Elec       q    Type
REMARK                         _______ _______ _______ _____ _____    ______ ____
ROOT
ATOM      1  C   UNL     1      -7.170   4.103 132.819  0.00  0.00    +0.000 C 
ATOM      2  S   UNL     1      -7.689   5.713 133.387  0.00  0.00    +0.000 S 
ATOM      3  C   UNL     1      -9.366   5.554 132.803  0.00  0.00    +0.000 C 
ATOM      4  C   UNL     1      -9.586   4.991 131.412  0.00  0.00    +0.000 C 
ATOM      5  C   UNL     1      -8.654   4.222 130.772  0.00  0.00    +0.000 C 
ATOM      6  N   UNL     1      -7.478   3.886 131.409  0.00  0.00    +0.000 N 
ATOM      7  C   UNL     1      -6.187   3.816 130.976  0.00  0.00    +0.000 C 
ATOM      8  O   UNL     1      -5.776   3.702 129.848  0.00  0.00    +0.000 OA
ATOM      9  C   UNL     1      -5.630   3.861 132.488  0.00  0.00    +0.000 C 
ENDROOT
BRANCH   9  10
ATOM     10  N   UNL     1      -4.595   4.893 132.816  0.00  0.00    +0.000 N 
ATOM     11  C   UNL     1      -4.127   5.208 134.060  0.00  0.00    +0.000 C 
ATOM     12  O   UNL     1      -4.642   4.730 135.064  0.00  0.00    +0.000 OA
ATOM     13  H   UNL     1      -4.417   5.584 132.099  0.00  0.00    +0.000 HD
BRANCH  11  14
ATOM     14  C   UNL     1      -2.941   6.200 134.067  0.00  0.00    +0.000 C 
BRANCH  14  15
ATOM     15  S   UNL     1      -2.303   6.246 132.359  0.00  0.00    +0.000 S 
BRANCH  15  16
ATOM     16  C   UNL     1      -2.885   7.830 131.683  0.00  0.00    +0.000 C 
BRANCH  16  17
ATOM     17  C   UNL     1      -4.190   7.523 130.965  0.00  0.00    +0.000 C 
ATOM     18  N   UNL     1      -5.272   7.267 130.371  0.00  0.00    +0.000 NA
ENDBRANCH  16  17
ENDBRANCH  15  16
ENDBRANCH  14  15
ENDBRANCH  11  14
ENDBRANCH   9  10
BRANCH   9  19
ATOM     19  O   UNL     1      -5.136   2.563 132.949  0.00  0.00    +0.000 OA
ATOM     20  C   UNL     1      -3.832   2.224 132.482  0.00  0.00    +0.000 C 
ENDBRANCH   9  19
BRANCH   5  21
ATOM     21  C   UNL     1      -8.957   3.699 129.365  0.00  0.00    +0.000 C 
ATOM     22  O   UNL     1      -9.483   2.615 129.146  0.00  0.00    +0.000 OA
BRANCH  21  23
ATOM     23  O   UNL     1      -8.483   4.420 128.329  0.00  0.00    +0.000 OA
ATOM     24  H   UNL     1      -8.907   4.265 127.460  0.00  0.00    +0.000 HD
ENDBRANCH  21  23
ENDBRANCH   5  21
BRANCH   4  25
ATOM     25  C   UNL     1     -10.944   5.367 130.768  0.00  0.00    +0.000 C 
BRANCH  25  26
ATOM     26  S   UNL     1     -10.996   7.050 130.062  0.00  0.00    +0.000 S 
BRANCH  26  27
ATOM     27  C   UNL     1     -11.062   6.831 128.362  0.00  0.00    +0.000 A 
ATOM     28  N   UNL     1     -10.030   6.729 127.557  0.00  0.00    +0.000 NA
ATOM     29  N   UNL     1     -10.539   6.824 126.282  0.00  0.00    +0.000 NA
ATOM     30  N   UNL     1     -11.853   7.008 126.305  0.00  0.00    +0.000 NA
ATOM     31  N   UNL     1     -12.181   7.015 127.609  0.00  0.00    +0.000 N 
ATOM     32  C   UNL     1     -13.535   7.244 128.026  0.00  0.00    +0.000 C 
ENDBRANCH  26  27
ENDBRANCH  25  26
ENDBRANCH   4  25
TORSDOF 11
ENDMDL
MODEL 8
REMARK VINA RESULT:      -5.9      5.183      7.614
REMARK  Name = Cefmetazole
REMARK  13 active torsions:
REMARK  status: ('A' for Active; 'I' for Inactive)
REMARK    1  A    between atoms: C_5  and  C_6
REMARK    2  A    between atoms: C_6  and  S_7
REMARK    3  A    between atoms: S_7  and  C_8
REMARK    4  A    between atoms: N_12  and  C_13
REMARK    5  A    between atoms: C_14  and  C_29
REMARK    6  A    between atoms: C_18  and  N_19
REMARK    7  A    between atoms: C_18  and  O_27
REMARK    8  A    between atoms: C_20  and  C_22
REMARK    9  A    between atoms: C_22  and  S_23
REMARK   10  A    between atoms: S_23  and  C_24
REMARK   11  A    between atoms: C_24  and  C_25
REMARK   12  A    between atoms: O_27  and  C_28
REMARK   13  A    between atoms: C_29  and  O_30
REMARK                            x       y       z     vdW  Elec       q    Type
REMARK                         _______ _______ _______ _____ _____    ______ ____
ROOT
ATOM      1  C   UNL     1      -6.480   5.736 132.435  0.00  0.00    +0.000 C 
ATOM      2  S   UNL     1      -6.719   6.841 131.054  0.00  0.00    +0.000 S 
ATOM      3  C   UNL     1      -8.499   6.854 131.169  0.00  0.00    +0.000 C 
ATOM      4  C   UNL     1      -9.209   5.530 131.378  0.00  0.00    +0.000 C 
ATOM      5  C   UNL     1      -8.584   4.433 131.901  0.00  0.00    +0.000 C 
ATOM      6  N   UNL     1      -7.269   4.514 132.311  0.00  0.00    +0.000 N 
ATOM      7  C   UNL     1      -6.215   3.659 132.188  0.00  0.00    +0.000 C 
ATOM      8  O   UNL     1      -6.229   2.470 131.989  0.00  0.00    +0.000 OA
ATOM      9  C   UNL     1      -5.162   4.842 132.488  0.00  0.00    +0.000 C 
ENDROOT
BRANCH   9  10
ATOM     10  N   UNL     1      -4.047   5.045 131.507  0.00  0.00    +0.000 N 
ATOM     11  C   UNL     1      -3.212   6.123 131.438  0.00  0.00    +0.000 C 
ATOM     12  O   UNL     1      -3.407   7.114 132.131  0.00  0.00    +0.000 OA
ATOM     13  H   UNL     1      -4.079   4.468 130.677  0.00  0.00    +0.000 HD
BRANCH  11  14
ATOM     14  C   UNL     1      -2.054   5.973 130.424  0.00  0.00    +0.000 C 
BRANCH  14  15
ATOM     15  S   UNL     1      -2.831   5.774 128.787  0.00  0.00    +0.000 S 
BRANCH  15  16
ATOM     16  C   UNL     1      -3.077   3.982 128.599  0.00  0.00    +0.000 C 
BRANCH  16  17
ATOM     17  C   UNL     1      -2.329   3.589 127.335  0.00  0.00    +0.000 C 
ATOM     18  N   UNL     1      -1.709   3.263 126.287  0.00  0.00    +0.000 NA
ENDBRANCH  16  17
ENDBRANCH  15  16
ENDBRANCH  14  15
ENDBRANCH  11  14
ENDBRANCH   9  10
BRANCH   9  19
ATOM     19  O   UNL     1      -4.576   4.754 133.825  0.00  0.00    +0.000 OA
ATOM     20  C   UNL     1      -3.435   3.902 133.919  0.00  0.00    +0.000 C 
ENDBRANCH   9  19
BRANCH   5  21
ATOM     21  C   UNL     1      -9.376   3.134 132.073  0.00  0.00    +0.000 C 
ATOM     22  O   UNL     1      -9.561   2.331 131.167  0.00  0.00    +0.000 OA
BRANCH  21  23
ATOM     23  O   UNL     1     -10.011   2.955 133.248  0.00  0.00    +0.000 OA
ATOM     24  H   UNL     1      -9.750   2.169 133.771  0.00  0.00    +0.000 HD
ENDBRANCH  21  23
ENDBRANCH   5  21
BRANCH   4  25
ATOM     25  C   UNL     1     -10.694   5.515 130.940  0.00  0.00    +0.000 C 
BRANCH  25  26
ATOM     26  S   UNL     1     -11.258   7.065 130.156  0.00  0.00    +0.000 S 
BRANCH  26  27
ATOM     27  C   UNL     1     -11.129   6.795 128.466  0.00  0.00    +0.000 A 
ATOM     28  N   UNL     1     -10.016   6.603 127.798  0.00  0.00    +0.000 NA
ATOM     29  N   UNL     1     -10.357   6.689 126.468  0.00  0.00    +0.000 NA
ATOM     30  N   UNL     1     -11.650   6.954 126.323  0.00  0.00    +0.000 NA
ATOM     31  N   UNL     1     -12.134   7.023 127.576  0.00  0.00    +0.000 N 
ATOM     32  C   UNL     1     -13.510   7.349 127.816  0.00  0.00    +0.000 C 
ENDBRANCH  26  27
ENDBRANCH  25  26
ENDBRANCH   4  25
TORSDOF 11
ENDMDL
MODEL 9
REMARK VINA RESULT:      -5.9      2.826      3.797
REMARK  Name = Cefmetazole
REMARK  13 active torsions:
REMARK  status: ('A' for Active; 'I' for Inactive)
REMARK    1  A    between atoms: C_5  and  C_6
REMARK    2  A    between atoms: C_6  and  S_7
REMARK    3  A    between atoms: S_7  and  C_8
REMARK    4  A    between atoms: N_12  and  C_13
REMARK    5  A    between atoms: C_14  and  C_29
REMARK    6  A    between atoms: C_18  and  N_19
REMARK    7  A    between atoms: C_18  and  O_27
REMARK    8  A    between atoms: C_20  and  C_22
REMARK    9  A    between atoms: C_22  and  S_23
REMARK   10  A    between atoms: S_23  and  C_24
REMARK   11  A    between atoms: C_24  and  C_25
REMARK   12  A    between atoms: O_27  and  C_28
REMARK   13  A    between atoms: C_29  and  O_30
REMARK                            x       y       z     vdW  Elec       q    Type
REMARK                         _______ _______ _______ _____ _____    ______ ____
ROOT
ATOM      1  C   UNL     1      -6.455   2.826 127.282  0.00  0.00    +0.000 C 
ATOM      2  S   UNL     1      -7.055   1.192 127.676  0.00  0.00    +0.000 S 
ATOM      3  C   UNL     1      -6.553   0.462 126.128  0.00  0.00    +0.000 C 
ATOM      4  C   UNL     1      -6.842   1.229 124.851  0.00  0.00    +0.000 C 
ATOM      5  C   UNL     1      -7.055   2.579 124.834  0.00  0.00    +0.000 C 
ATOM      6  N   UNL     1      -6.962   3.309 126.001  0.00  0.00    +0.000 N 
ATOM      7  C   UNL     1      -7.708   4.334 126.504  0.00  0.00    +0.000 C 
ATOM      8  O   UNL     1      -8.436   5.094 125.917  0.00  0.00    +0.000 OA
ATOM      9  C   UNL     1      -7.128   4.086 127.987  0.00  0.00    +0.000 C 
ENDROOT
BRANCH   9  10
ATOM     10  N   UNL     1      -8.117   3.915 129.100  0.00  0.00    +0.000 N 
ATOM     11  C   UNL     1      -9.017   4.845 129.538  0.00  0.00    +0.000 C 
ATOM     12  O   UNL     1      -8.990   5.993 129.113  0.00  0.00    +0.000 OA
ATOM     13  H   UNL     1      -7.933   3.155 129.741  0.00  0.00    +0.000 HD
BRANCH  11  14
ATOM     14  C   UNL     1     -10.017   4.322 130.594  0.00  0.00    +0.000 C 
BRANCH  14  15
ATOM     15  S   UNL     1      -9.039   3.349 131.787  0.00  0.00    +0.000 S 
BRANCH  15  16
ATOM     16  C   UNL     1      -9.967   1.801 132.004  0.00  0.00    +0.000 C 
BRANCH  16  17
ATOM     17  C   UNL     1      -9.039   0.690 131.540  0.00  0.00    +0.000 C 
ATOM     18  N   UNL     1      -8.268  -0.231 131.155  0.00  0.00    +0.000 NA
ENDBRANCH  16  17
ENDBRANCH  15  16
ENDBRANCH  14  15
ENDBRANCH  11  14
ENDBRANCH   9  10
BRANCH   9  19
ATOM     19  O   UNL     1      -6.161   5.105 128.396  0.00  0.00    +0.000 OA
ATOM     20  C   UNL     1      -5.549   4.869 129.664  0.00  0.00    +0.000 C 
ENDBRANCH   9  19
BRANCH   5  21
ATOM     21  C   UNL     1      -7.346   3.272 123.501  0.00  0.00    +0.000 C 
ATOM     22  O   UNL     1      -6.472   3.709 122.762  0.00  0.00    +0.000 OA
BRANCH  21  23
ATOM     23  O   UNL     1      -8.638   3.529 123.213  0.00  0.00    +0.000 OA
ATOM     24  H   UNL     1      -9.144   4.026 123.888  0.00  0.00    +0.000 HD
ENDBRANCH  21  23
ENDBRANCH   5  21
BRANCH   4  25
ATOM     25  C   UNL     1      -6.890   0.359 123.571  0.00  0.00    +0.000 C 
BRANCH  25  26
ATOM     26  S   UNL     1      -6.382  -1.376 123.825  0.00  0.00    +0.000 S 
BRANCH  26  27
ATOM     27  C   UNL     1      -7.839  -2.282 123.831  0.00  0.00    +0.000 A 
ATOM     28  N   UNL     1      -8.686  -2.387 122.834  0.00  0.00    +0.000 NA
ATOM     29  N   UNL     1      -9.810  -2.983 123.358  0.00  0.00    +0.000 NA
ATOM     30  N   UNL     1      -9.665  -3.216 124.657  0.00  0.00    +0.000 NA
ATOM     31  N   UNL     1      -8.429  -2.775 124.954  0.00  0.00    +0.000 N 
ATOM     32  C   UNL     1      -7.937  -2.819 126.301  0.00  0.00    +0.000 C 
ENDBRANCH  26  27
ENDBRANCH  25  26
ENDBRANCH   4  25
TORSDOF 11
ENDMDL
