MODEL 1
REMARK VINA RESULT:      -7.6      0.000      0.000
REMARK  Name = Cefotaxime
REMARK  11 active torsions:
REMARK  status: ('A' for Active; 'I' for Inactive)
REMARK    1  A    between atoms: C_5  and  C_6
REMARK    2  A    between atoms: C_6  and  O_7
REMARK    3  A    between atoms: O_7  and  C_8
REMARK    4  A    between atoms: C_8  and  C_9
REMARK    5  A    between atoms: CA_11  and  C_29
REMARK    6  A    between atoms: CA_15  and  N_16
REMARK    7  A    between atoms: C_17  and  C_19
REMARK    8  A    between atoms: C_19  and  C_23
REMARK    9  A    between atoms: N_20  and  O_21
REMARK   10  A    between atoms: O_21  and  C_22
REMARK   11  A    between atoms: C_29  and  O_30
REMARK                            x       y       z     vdW  Elec       q    Type
REMARK                         _______ _______ _______ _____ _____    ______ ____
ROOT
ATOM      1  C   UNL     1      -6.997   2.421 127.021  0.00  0.00    +0.000 C 
ATOM      2  S   UNL     1      -8.048   0.959 127.214  0.00  0.00    +0.000 S 
ATOM      3  C   UNL     1      -7.258   0.092 125.816  0.00  0.00    +0.000 C 
ATOM      4  C   UNL     1      -7.266   0.904 124.537  0.00  0.00    +0.000 C 
ATOM      5  CA  UNL     1      -7.315   2.268 124.519  0.00  0.00    +0.000 C 
ATOM      6  N   UNL     1      -7.243   2.990 125.694  0.00  0.00    +0.000 N 
ATOM      7  C   UNL     1      -7.981   4.041 126.149  0.00  0.00    +0.000 C 
ATOM      8  O   UNL     1      -8.649   4.833 125.533  0.00  0.00    +0.000 OA
ATOM      9  CA  UNL     1      -7.513   3.771 127.614  0.00  0.00    +0.000 C 
ENDROOT
BRANCH   9  10
ATOM     10  N   UNL     1      -8.495   3.745 128.725  0.00  0.00    +0.000 N 
ATOM     11  C   UNL     1      -8.616   4.808 129.617  0.00  0.00    +0.000 C 
ATOM     12  O   UNL     1      -7.827   5.745 129.592  0.00  0.00    +0.000 OA
ATOM     13  H   UNL     1      -9.173   2.993 128.827  0.00  0.00    +0.000 HD
BRANCH  11  14
ATOM     14  C   UNL     1      -9.744   4.759 130.685  0.00  0.00    +0.000 C 
ATOM     15  N   UNL     1      -9.707   4.024 131.775  0.00  0.00    +0.000 NA
BRANCH  14  16
ATOM     16  C   UNL     1     -10.930   5.633 130.527  0.00  0.00    +0.000 A 
ATOM     17  C   UNL     1     -11.413   6.439 131.543  0.00  0.00    +0.000 A 
ATOM     18  S   UNL     1     -12.772   7.336 131.019  0.00  0.00    +0.000 S 
ATOM     19  C   UNL     1     -12.658   6.598 129.473  0.00  0.00    +0.000 A 
ATOM     20  N   UNL     1     -13.541   6.907 128.513  0.00  0.00    +0.000 N 
ATOM     21  N   UNL     1     -11.670   5.741 129.338  0.00  0.00    +0.000 NA
ATOM     22  H   UNL     1     -14.274   7.591 128.657  0.00  0.00    +0.000 HD
ATOM     23  H   UNL     1     -13.467   6.497 127.591  0.00  0.00    +0.000 HD
ENDBRANCH  14  16
BRANCH  15  24
ATOM     24  O   UNL     1      -8.553   3.235 131.864  0.00  0.00    +0.000 OA
ATOM     25  C   UNL     1      -8.791   2.024 132.566  0.00  0.00    +0.000 C 
ENDBRANCH  15  24
ENDBRANCH  11  14
ENDBRANCH   9  10
BRANCH   5  26
ATOM     26  C   UNL     1      -7.401   2.981 123.172  0.00  0.00    +0.000 C 
ATOM     27  OXT UNL     1      -6.426   3.234 122.476  0.00  0.00    +0.000 OA
BRANCH  26  28
ATOM     28  O   UNL     1      -8.611   3.430 122.797  0.00  0.00    +0.000 OA
ATOM     29  H   UNL     1      -9.384   2.941 123.142  0.00  0.00    +0.000 HD
ENDBRANCH  26  28
ENDBRANCH   5  26
BRANCH   4  30
ATOM     30  C   UNL     1      -7.242   0.079 123.246  0.00  0.00    +0.000 C 
BRANCH  30  31
ATOM     31  O   UNL     1      -7.687  -1.274 123.429  0.00  0.00    +0.000 OA
BRANCH  31  32
ATOM     32  C   UNL     1      -8.968  -1.638 123.162  0.00  0.00    +0.000 C 
ATOM     33  C   UNL     1      -9.378  -3.083 123.292  0.00  0.00    +0.000 C 
ATOM     34  O   UNL     1      -9.791  -0.788 122.829  0.00  0.00    +0.000 OA
ENDBRANCH  31  32
ENDBRANCH  30  31
ENDBRANCH   4  30
TORSDOF 9
ENDMDL
MODEL 2
REMARK VINA RESULT:      -7.0      1.667      2.054
REMARK  Name = Cefotaxime
REMARK  11 active torsions:
REMARK  status: ('A' for Active; 'I' for Inactive)
REMARK    1  A    between atoms: C_5  and  C_6
REMARK    2  A    between atoms: C_6  and  O_7
REMARK    3  A    between atoms: O_7  and  C_8
REMARK    4  A    between atoms: C_8  and  C_9
REMARK    5  A    between atoms: CA_11  and  C_29
REMARK    6  A    between atoms: CA_15  and  N_16
REMARK    7  A    between atoms: C_17  and  C_19
REMARK    8  A    between atoms: C_19  and  C_23
REMARK    9  A    between atoms: N_20  and  O_21
REMARK   10  A    between atoms: O_21  and  C_22
REMARK   11  A    between atoms: C_29  and  O_30
REMARK                            x       y       z     vdW  Elec       q    Type
REMARK                         _______ _______ _______ _____ _____    ______ ____
ROOT
ATOM      1  C   UNL     1      -6.745   1.495 127.288  0.00  0.00    +0.000 C 
ATOM      2  S   UNL     1      -7.477   0.202 128.324  0.00  0.00    +0.000 S 
ATOM      3  C   UNL     1      -6.662  -1.138 127.391  0.00  0.00    +0.000 C 
ATOM      4  C   UNL     1      -6.938  -1.073 125.903  0.00  0.00    +0.000 C 
ATOM      5  CA  UNL     1      -7.247   0.086 125.251  0.00  0.00    +0.000 C 
ATOM      6  N   UNL     1      -7.212   1.297 125.912  0.00  0.00    +0.000 N 
ATOM      7  C   UNL     1      -8.093   2.335 125.934  0.00  0.00    +0.000 C 
ATOM      8  O   UNL     1      -8.952   2.630 125.141  0.00  0.00    +0.000 OA
ATOM      9  CA  UNL     1      -7.455   2.885 127.249  0.00  0.00    +0.000 C 
ENDROOT
BRANCH   9  10
ATOM     10  N   UNL     1      -8.313   3.291 128.389  0.00  0.00    +0.000 N 
ATOM     11  C   UNL     1      -8.035   4.429 129.144  0.00  0.00    +0.000 C 
ATOM     12  O   UNL     1      -6.999   5.061 128.972  0.00  0.00    +0.000 OA
ATOM     13  H   UNL     1      -9.180   2.807 128.610  0.00  0.00    +0.000 HD
BRANCH  11  14
ATOM     14  C   UNL     1      -9.041   4.854 130.248  0.00  0.00    +0.000 C 
ATOM     15  N   UNL     1      -9.075   4.346 131.462  0.00  0.00    +0.000 NA
BRANCH  14  16
ATOM     16  C   UNL     1     -10.003   5.947 129.972  0.00  0.00    +0.000 A 
ATOM     17  C   UNL     1     -11.165   6.131 130.700  0.00  0.00    +0.000 A 
ATOM     18  S   UNL     1     -12.029   7.497 130.139  0.00  0.00    +0.000 S 
ATOM     19  C   UNL     1     -10.821   7.767 128.949  0.00  0.00    +0.000 A 
ATOM     20  N   UNL     1     -10.937   8.793 128.094  0.00  0.00    +0.000 N 
ATOM     21  N   UNL     1      -9.827   6.907 128.962  0.00  0.00    +0.000 NA
ATOM     22  H   UNL     1     -11.711   9.443 128.138  0.00  0.00    +0.000 HD
ATOM     23  H   UNL     1     -10.218   8.976 127.407  0.00  0.00    +0.000 HD
ENDBRANCH  14  16
BRANCH  15  24
ATOM     24  O   UNL     1      -8.132   3.329 131.655  0.00  0.00    +0.000 OA
ATOM     25  C   UNL     1      -8.748   2.071 131.887  0.00  0.00    +0.000 C 
ENDBRANCH  15  24
ENDBRANCH  11  14
ENDBRANCH   9  10
BRANCH   5  26
ATOM     26  C   UNL     1      -7.585   0.023 123.764  0.00  0.00    +0.000 C 
ATOM     27  OXT UNL     1      -6.741   0.007 122.877  0.00  0.00    +0.000 OA
BRANCH  26  28
ATOM     28  O   UNL     1      -8.887   0.086 123.432  0.00  0.00    +0.000 OA
ATOM     29  H   UNL     1      -9.150  -0.373 122.610  0.00  0.00    +0.000 HD
ENDBRANCH  26  28
ENDBRANCH   5  26
BRANCH   4  30
ATOM     30  C   UNL     1      -6.870  -2.418 125.172  0.00  0.00    +0.000 C 
BRANCH  30  31
ATOM     31  O   UNL     1      -7.964  -3.292 125.491  0.00  0.00    +0.000 OA
BRANCH  31  32
ATOM     32  C   UNL     1      -9.205  -3.087 124.978  0.00  0.00    +0.000 C 
ATOM     33  C   UNL     1      -9.473  -3.380 123.525  0.00  0.00    +0.000 C 
ATOM     34  O   UNL     1     -10.108  -2.676 125.704  0.00  0.00    +0.000 OA
ENDBRANCH  31  32
ENDBRANCH  30  31
ENDBRANCH   4  30
TORSDOF 9
ENDMDL
MODEL 3
REMARK VINA RESULT:      -6.8      4.968      6.152
REMARK  Name = Cefotaxime
REMARK  11 active torsions:
REMARK  status: ('A' for Active; 'I' for Inactive)
REMARK    1  A    between atoms: C_5  and  C_6
REMARK    2  A    between atoms: C_6  and  O_7
REMARK    3  A    between atoms: O_7  and  C_8
REMARK    4  A    between atoms: C_8  and  C_9
REMARK    5  A    between atoms: CA_11  and  C_29
REMARK    6  A    between atoms: CA_15  and  N_16
REMARK    7  A    between atoms: C_17  and  C_19
REMARK    8  A    between atoms: C_19  and  C_23
REMARK    9  A    between atoms: N_20  and  O_21
REMARK   10  A    between atoms: O_21  and  C_22
REMARK   11  A    between atoms: C_29  and  O_30
REMARK                            x       y       z     vdW  Elec       q    Type
REMARK                         _______ _______ _______ _____ _____    ______ ____
ROOT
ATOM      1  C   UNL     1      -7.894   1.751 129.711  0.00  0.00    +0.000 C 
ATOM      2  S   UNL     1      -6.361   2.679 129.973  0.00  0.00    +0.000 S 
ATOM      3  C   UNL     1      -5.318   1.197 129.762  0.00  0.00    +0.000 C 
ATOM      4  C   UNL     1      -5.716   0.059 130.681  0.00  0.00    +0.000 C 
ATOM      5  CA  UNL     1      -6.978  -0.092 131.177  0.00  0.00    +0.000 C 
ATOM      6  N   UNL     1      -8.002   0.738 130.765  0.00  0.00    +0.000 N 
ATOM      7  C   UNL     1      -8.961   1.400 131.470  0.00  0.00    +0.000 C 
ATOM      8  O   UNL     1      -9.391   1.179 132.574  0.00  0.00    +0.000 OA
ATOM      9  CA  UNL     1      -9.219   2.363 130.268  0.00  0.00    +0.000 C 
ENDROOT
BRANCH   9  10
ATOM     10  N   UNL     1      -9.304   3.828 130.484  0.00  0.00    +0.000 N 
ATOM     11  C   UNL     1     -10.525   4.498 130.467  0.00  0.00    +0.000 C 
ATOM     12  O   UNL     1     -11.557   3.920 130.146  0.00  0.00    +0.000 OA
ATOM     13  H   UNL     1      -8.490   4.384 130.735  0.00  0.00    +0.000 HD
BRANCH  11  14
ATOM     14  C   UNL     1     -10.549   6.013 130.814  0.00  0.00    +0.000 C 
ATOM     15  N   UNL     1     -10.195   6.516 131.978  0.00  0.00    +0.000 NA
BRANCH  14  16
ATOM     16  C   UNL     1     -10.930   6.991 129.769  0.00  0.00    +0.000 A 
ATOM     17  C   UNL     1     -10.382   6.990 128.499  0.00  0.00    +0.000 A 
ATOM     18  S   UNL     1     -11.063   8.230 127.537  0.00  0.00    +0.000 S 
ATOM     19  C   UNL     1     -12.043   8.714 128.862  0.00  0.00    +0.000 A 
ATOM     20  N   UNL     1     -12.881   9.751 128.735  0.00  0.00    +0.000 N 
ATOM     21  N   UNL     1     -11.889   8.001 129.956  0.00  0.00    +0.000 NA
ATOM     22  H   UNL     1     -12.981  10.257 127.863  0.00  0.00    +0.000 HD
ATOM     23  H   UNL     1     -13.481  10.028 129.501  0.00  0.00    +0.000 HD
ENDBRANCH  14  16
BRANCH  15  24
ATOM     24  O   UNL     1      -9.835   5.537 132.911  0.00  0.00    +0.000 OA
ATOM     25  C   UNL     1      -8.554   5.784 133.472  0.00  0.00    +0.000 C 
ENDBRANCH  15  24
ENDBRANCH  11  14
ENDBRANCH   9  10
BRANCH   5  26
ATOM     26  C   UNL     1      -7.248  -1.229 132.159  0.00  0.00    +0.000 C 
ATOM     27  OXT UNL     1      -7.526  -2.371 131.814  0.00  0.00    +0.000 OA
BRANCH  26  28
ATOM     28  O   UNL     1      -7.272  -0.913 133.465  0.00  0.00    +0.000 OA
ATOM     29  H   UNL     1      -6.495  -1.182 133.993  0.00  0.00    +0.000 HD
ENDBRANCH  26  28
ENDBRANCH   5  26
BRANCH   4  30
ATOM     30  C   UNL     1      -4.584  -0.909 131.041  0.00  0.00    +0.000 C 
BRANCH  30  31
ATOM     31  O   UNL     1      -4.264  -1.825 129.982  0.00  0.00    +0.000 OA
BRANCH  31  32
ATOM     32  C   UNL     1      -3.514  -2.933 130.209  0.00  0.00    +0.000 C 
ATOM     33  C   UNL     1      -3.114  -3.816 129.056  0.00  0.00    +0.000 C 
ATOM     34  O   UNL     1      -3.152  -3.205 131.352  0.00  0.00    +0.000 OA
ENDBRANCH  31  32
ENDBRANCH  30  31
ENDBRANCH   4  30
TORSDOF 9
ENDMDL
MODEL 4
REMARK VINA RESULT:      -6.8      4.245      5.358
REMARK  Name = Cefotaxime
REMARK  11 active torsions:
REMARK  status: ('A' for Active; 'I' for Inactive)
REMARK    1  A    between atoms: C_5  and  C_6
REMARK    2  A    between atoms: C_6  and  O_7
REMARK    3  A    between atoms: O_7  and  C_8
REMARK    4  A    between atoms: C_8  and  C_9
REMARK    5  A    between atoms: CA_11  and  C_29
REMARK    6  A    between atoms: CA_15  and  N_16
REMARK    7  A    between atoms: C_17  and  C_19
REMARK    8  A    between atoms: C_19  and  C_23
REMARK    9  A    between atoms: N_20  and  O_21
REMARK   10  A    between atoms: O_21  and  C_22
REMARK   11  A    between atoms: C_29  and  O_30
REMARK                            x       y       z     vdW  Elec       q    Type
REMARK                         _______ _______ _______ _____ _____    ______ ____
ROOT
ATOM      1  C   UNL     1      -4.560   2.873 126.209  0.00  0.00    +0.000 C 
ATOM      2  S   UNL     1      -5.495   1.753 127.283  0.00  0.00    +0.000 S 
ATOM      3  C   UNL     1      -5.875   0.607 125.915  0.00  0.00    +0.000 C 
ATOM      4  C   UNL     1      -6.530   1.295 124.734  0.00  0.00    +0.000 C 
ATOM      5  CA  UNL     1      -6.359   2.619 124.452  0.00  0.00    +0.000 C 
ATOM      6  N   UNL     1      -5.469   3.385 125.180  0.00  0.00    +0.000 N 
ATOM      7  C   UNL     1      -5.594   4.623 125.735  0.00  0.00    +0.000 C 
ATOM      8  O   UNL     1      -6.360   5.513 125.460  0.00  0.00    +0.000 OA
ATOM      9  CA  UNL     1      -4.381   4.351 126.680  0.00  0.00    +0.000 C 
ENDROOT
BRANCH   9  10
ATOM     10  N   UNL     1      -4.470   4.666 128.127  0.00  0.00    +0.000 N 
ATOM     11  C   UNL     1      -4.250   5.954 128.609  0.00  0.00    +0.000 C 
ATOM     12  O   UNL     1      -3.850   6.845 127.867  0.00  0.00    +0.000 OA
ATOM     13  H   UNL     1      -4.776   3.977 128.810  0.00  0.00    +0.000 HD
BRANCH  11  14
ATOM     14  C   UNL     1      -4.473   6.232 130.121  0.00  0.00    +0.000 C 
ATOM     15  N   UNL     1      -5.622   6.082 130.745  0.00  0.00    +0.000 NA
BRANCH  14  16
ATOM     16  C   UNL     1      -3.322   6.636 130.961  0.00  0.00    +0.000 A 
ATOM     17  C   UNL     1      -2.152   5.901 131.043  0.00  0.00    +0.000 A 
ATOM     18  S   UNL     1      -1.021   6.662 132.076  0.00  0.00    +0.000 S 
ATOM     19  C   UNL     1      -2.148   7.924 132.373  0.00  0.00    +0.000 A 
ATOM     20  N   UNL     1      -1.829   8.930 133.200  0.00  0.00    +0.000 N 
ATOM     21  N   UNL     1      -3.296   7.803 131.744  0.00  0.00    +0.000 NA
ATOM     22  H   UNL     1      -0.923   8.991 133.646  0.00  0.00    +0.000 HD
ATOM     23  H   UNL     1      -2.476   9.691 133.361  0.00  0.00    +0.000 HD
ENDBRANCH  14  16
BRANCH  15  24
ATOM     24  O   UNL     1      -6.660   5.686 129.893  0.00  0.00    +0.000 OA
ATOM     25  C   UNL     1      -7.379   4.577 130.411  0.00  0.00    +0.000 C 
ENDBRANCH  15  24
ENDBRANCH  11  14
ENDBRANCH   9  10
BRANCH   5  26
ATOM     26  C   UNL     1      -7.131   3.226 123.283  0.00  0.00    +0.000 C 
ATOM     27  OXT UNL     1      -6.712   3.249 122.133  0.00  0.00    +0.000 OA
BRANCH  26  28
ATOM     28  O   UNL     1      -8.286   3.848 123.575  0.00  0.00    +0.000 OA
ATOM     29  H   UNL     1      -8.943   3.332 124.083  0.00  0.00    +0.000 HD
ENDBRANCH  26  28
ENDBRANCH   5  26
BRANCH   4  30
ATOM     30  C   UNL     1      -7.432   0.397 123.880  0.00  0.00    +0.000 C 
BRANCH  30  31
ATOM     31  O   UNL     1      -6.698  -0.485 123.016  0.00  0.00    +0.000 OA
BRANCH  31  32
ATOM     32  C   UNL     1      -6.763  -1.833 123.162  0.00  0.00    +0.000 C 
ATOM     33  C   UNL     1      -5.510  -2.616 123.457  0.00  0.00    +0.000 C 
ATOM     34  O   UNL     1      -7.845  -2.408 123.066  0.00  0.00    +0.000 OA
ENDBRANCH  31  32
ENDBRANCH  30  31
ENDBRANCH   4  30
TORSDOF 9
ENDMDL
MODEL 5
REMARK VINA RESULT:      -6.7      4.636      8.815
REMARK  Name = Cefotaxime
REMARK  11 active torsions:
REMARK  status: ('A' for Active; 'I' for Inactive)
REMARK    1  A    between atoms: C_5  and  C_6
REMARK    2  A    between atoms: C_6  and  O_7
REMARK    3  A    between atoms: O_7  and  C_8
REMARK    4  A    between atoms: C_8  and  C_9
REMARK    5  A    between atoms: CA_11  and  C_29
REMARK    6  A    between atoms: CA_15  and  N_16
REMARK    7  A    between atoms: C_17  and  C_19
REMARK    8  A    between atoms: C_19  and  C_23
REMARK    9  A    between atoms: N_20  and  O_21
REMARK   10  A    between atoms: O_21  and  C_22
REMARK   11  A    between atoms: C_29  and  O_30
REMARK                            x       y       z     vdW  Elec       q    Type
REMARK                         _______ _______ _______ _____ _____    ______ ____
ROOT
ATOM      1  C   UNL     1      -7.384   2.616 130.945  0.00  0.00    +0.000 C 
ATOM      2  S   UNL     1      -8.419   2.163 129.529  0.00  0.00    +0.000 S 
ATOM      3  C   UNL     1      -8.508   3.882 128.925  0.00  0.00    +0.000 C 
ATOM      4  C   UNL     1      -8.998   4.854 129.979  0.00  0.00    +0.000 C 
ATOM      5  CA  UNL     1      -8.855   4.637 131.319  0.00  0.00    +0.000 C 
ATOM      6  N   UNL     1      -8.140   3.551 131.784  0.00  0.00    +0.000 N 
ATOM      7  C   UNL     1      -8.421   2.639 132.756  0.00  0.00    +0.000 C 
ATOM      8  O   UNL     1      -9.179   2.723 133.690  0.00  0.00    +0.000 OA
ATOM      9  CA  UNL     1      -7.365   1.649 132.171  0.00  0.00    +0.000 C 
ENDROOT
BRANCH   9  10
ATOM     10  N   UNL     1      -7.705   0.219 131.970  0.00  0.00    +0.000 N 
ATOM     11  C   UNL     1      -6.758  -0.788 132.142  0.00  0.00    +0.000 C 
ATOM     12  O   UNL     1      -5.579  -0.517 132.338  0.00  0.00    +0.000 OA
ATOM     13  H   UNL     1      -8.657  -0.087 131.785  0.00  0.00    +0.000 HD
BRANCH  11  14
ATOM     14  C   UNL     1      -7.215  -2.268 132.026  0.00  0.00    +0.000 C 
ATOM     15  N   UNL     1      -7.396  -2.906 130.889  0.00  0.00    +0.000 NA
BRANCH  14  16
ATOM     16  C   UNL     1      -7.412  -3.065 133.259  0.00  0.00    +0.000 A 
ATOM     17  C   UNL     1      -6.619  -4.150 133.591  0.00  0.00    +0.000 A 
ATOM     18  S   UNL     1      -7.098  -4.823 135.089  0.00  0.00    +0.000 S 
ATOM     19  C   UNL     1      -8.342  -3.647 135.215  0.00  0.00    +0.000 A 
ATOM     20  N   UNL     1      -9.164  -3.647 136.275  0.00  0.00    +0.000 N 
ATOM     21  N   UNL     1      -8.405  -2.795 134.216  0.00  0.00    +0.000 NA
ATOM     22  H   UNL     1      -9.062  -4.311 137.032  0.00  0.00    +0.000 HD
ATOM     23  H   UNL     1      -9.883  -2.943 136.371  0.00  0.00    +0.000 HD
ENDBRANCH  14  16
BRANCH  15  24
ATOM     24  O   UNL     1      -7.181  -2.096 129.768  0.00  0.00    +0.000 OA
ATOM     25  C   UNL     1      -6.114  -2.577 128.963  0.00  0.00    +0.000 C 
ENDBRANCH  15  24
ENDBRANCH  11  14
ENDBRANCH   9  10
BRANCH   5  26
ATOM     26  C   UNL     1      -9.459   5.644 132.294  0.00  0.00    +0.000 C 
ATOM     27  OXT UNL     1      -8.863   6.632 132.703  0.00  0.00    +0.000 OA
BRANCH  26  28
ATOM     28  O   UNL     1     -10.675   5.358 132.789  0.00  0.00    +0.000 OA
ATOM     29  H   UNL     1     -11.432   5.822 132.382  0.00  0.00    +0.000 HD
ENDBRANCH  26  28
ENDBRANCH   5  26
BRANCH   4  30
ATOM     30  C   UNL     1      -9.699   6.102 129.433  0.00  0.00    +0.000 C 
BRANCH  30  31
ATOM     31  O   UNL     1      -9.809   6.110 128.001  0.00  0.00    +0.000 OA
BRANCH  31  32
ATOM     32  C   UNL     1     -10.473   7.098 127.349  0.00  0.00    +0.000 C 
ATOM     33  C   UNL     1     -10.653   8.441 128.008  0.00  0.00    +0.000 C 
ATOM     34  O   UNL     1     -10.913   6.899 126.218  0.00  0.00    +0.000 OA
ENDBRANCH  31  32
ENDBRANCH  30  31
ENDBRANCH   4  30
TORSDOF 9
ENDMDL
MODEL 6
REMARK VINA RESULT:      -6.7      2.861      3.963
REMARK  Name = Cefotaxime
REMARK  11 active torsions:
REMARK  status: ('A' for Active; 'I' for Inactive)
REMARK    1  A    between atoms: C_5  and  C_6
REMARK    2  A    between atoms: C_6  and  O_7
REMARK    3  A    between atoms: O_7  and  C_8
REMARK    4  A    between atoms: C_8  and  C_9
REMARK    5  A    between atoms: CA_11  and  C_29
REMARK    6  A    between atoms: CA_15  and  N_16
REMARK    7  A    between atoms: C_17  and  C_19
REMARK    8  A    between atoms: C_19  and  C_23
REMARK    9  A    between atoms: N_20  and  O_21
REMARK   10  A    between atoms: O_21  and  C_22
REMARK   11  A    between atoms: C_29  and  O_30
REMARK                            x       y       z     vdW  Elec       q    Type
REMARK                         _______ _______ _______ _____ _____    ______ ____
ROOT
ATOM      1  C   UNL     1      -8.516   1.809 128.306  0.00  0.00    +0.000 C 
ATOM      2  S   UNL     1      -7.773   2.885 127.053  0.00  0.00    +0.000 S 
ATOM      3  C   UNL     1      -7.259   1.475 126.014  0.00  0.00    +0.000 C 
ATOM      4  C   UNL     1      -6.429   0.457 126.769  0.00  0.00    +0.000 C 
ATOM      5  CA  UNL     1      -6.513   0.280 128.119  0.00  0.00    +0.000 C 
ATOM      6  N   UNL     1      -7.461   0.957 128.861  0.00  0.00    +0.000 N 
ATOM      7  C   UNL     1      -7.365   1.635 130.038  0.00  0.00    +0.000 C 
ATOM      8  O   UNL     1      -6.537   1.546 130.910  0.00  0.00    +0.000 OA
ATOM      9  CA  UNL     1      -8.701   2.389 129.745  0.00  0.00    +0.000 C 
ENDROOT
BRANCH   9  10
ATOM     10  N   UNL     1      -8.792   3.858 129.927  0.00  0.00    +0.000 N 
ATOM     11  C   UNL     1     -10.000   4.483 130.225  0.00  0.00    +0.000 C 
ATOM     12  O   UNL     1     -11.053   3.855 130.219  0.00  0.00    +0.000 OA
ATOM     13  H   UNL     1      -7.967   4.453 129.926  0.00  0.00    +0.000 HD
BRANCH  11  14
ATOM     14  C   UNL     1      -9.997   6.010 130.514  0.00  0.00    +0.000 C 
ATOM     15  N   UNL     1      -9.455   6.566 131.576  0.00  0.00    +0.000 NA
BRANCH  14  16
ATOM     16  C   UNL     1     -10.582   6.938 129.519  0.00  0.00    +0.000 A 
ATOM     17  C   UNL     1     -10.273   6.892 128.171  0.00  0.00    +0.000 A 
ATOM     18  S   UNL     1     -11.142   8.081 127.301  0.00  0.00    +0.000 S 
ATOM     19  C   UNL     1     -11.876   8.606 128.763  0.00  0.00    +0.000 A 
ATOM     20  N   UNL     1     -12.746   9.626 128.750  0.00  0.00    +0.000 N 
ATOM     21  N   UNL     1     -11.512   7.942 129.837  0.00  0.00    +0.000 NA
ATOM     22  H   UNL     1     -13.012  10.094 127.892  0.00  0.00    +0.000 HD
ATOM     23  H   UNL     1     -13.204   9.926 129.601  0.00  0.00    +0.000 HD
ENDBRANCH  14  16
BRANCH  15  24
ATOM     24  O   UNL     1      -8.911   5.631 132.466  0.00  0.00    +0.000 OA
ATOM     25  C   UNL     1      -7.532   5.869 132.708  0.00  0.00    +0.000 C 
ENDBRANCH  15  24
ENDBRANCH  11  14
ENDBRANCH   9  10
BRANCH   5  26
ATOM     26  C   UNL     1      -5.572  -0.719 128.788  0.00  0.00    +0.000 C 
ATOM     27  OXT UNL     1      -5.851  -1.897 128.969  0.00  0.00    +0.000 OA
BRANCH  26  28
ATOM     28  O   UNL     1      -4.420  -0.233 129.282  0.00  0.00    +0.000 OA
ATOM     29  H   UNL     1      -3.715  -0.884 129.466  0.00  0.00    +0.000 HD
ENDBRANCH  26  28
ENDBRANCH   5  26
BRANCH   4  30
ATOM     30  C   UNL     1      -5.457  -0.354 125.906  0.00  0.00    +0.000 C 
BRANCH  30  31
ATOM     31  O   UNL     1      -6.057  -1.523 125.324  0.00  0.00    +0.000 OA
BRANCH  31  32
ATOM     32  C   UNL     1      -5.828  -1.864 124.030  0.00  0.00    +0.000 C 
ATOM     33  C   UNL     1      -4.917  -3.022 123.711  0.00  0.00    +0.000 C 
ATOM     34  O   UNL     1      -6.374  -1.237 123.124  0.00  0.00    +0.000 OA
ENDBRANCH  31  32
ENDBRANCH  30  31
ENDBRANCH   4  30
TORSDOF 9
ENDMDL
MODEL 7
REMARK VINA RESULT:      -6.6      3.603      4.806
REMARK  Name = Cefotaxime
REMARK  11 active torsions:
REMARK  status: ('A' for Active; 'I' for Inactive)
REMARK    1  A    between atoms: C_5  and  C_6
REMARK    2  A    between atoms: C_6  and  O_7
REMARK    3  A    between atoms: O_7  and  C_8
REMARK    4  A    between atoms: C_8  and  C_9
REMARK    5  A    between atoms: CA_11  and  C_29
REMARK    6  A    between atoms: CA_15  and  N_16
REMARK    7  A    between atoms: C_17  and  C_19
REMARK    8  A    between atoms: C_19  and  C_23
REMARK    9  A    between atoms: N_20  and  O_21
REMARK   10  A    between atoms: O_21  and  C_22
REMARK   11  A    between atoms: C_29  and  O_30
REMARK                            x       y       z     vdW  Elec       q    Type
REMARK                         _______ _______ _______ _____ _____    ______ ____
ROOT
ATOM      1  C   UNL     1      -7.431   1.270 130.057  0.00  0.00    +0.000 C 
ATOM      2  S   UNL     1      -8.622   0.647 131.271  0.00  0.00    +0.000 S 
ATOM      3  C   UNL     1      -7.917  -1.035 131.239  0.00  0.00    +0.000 C 
ATOM      4  C   UNL     1      -7.841  -1.617 129.842  0.00  0.00    +0.000 C 
ATOM      5  CA  UNL     1      -7.755  -0.848 128.717  0.00  0.00    +0.000 C 
ATOM      6  N   UNL     1      -7.616   0.523 128.810  0.00  0.00    +0.000 N 
ATOM      7  C   UNL     1      -8.248   1.536 128.155  0.00  0.00    +0.000 C 
ATOM      8  O   UNL     1      -8.832   1.522 127.101  0.00  0.00    +0.000 OA
ATOM      9  CA  UNL     1      -7.813   2.555 129.256  0.00  0.00    +0.000 C 
ENDROOT
BRANCH   9  10
ATOM     10  N   UNL     1      -8.796   3.503 129.835  0.00  0.00    +0.000 N 
ATOM     11  C   UNL     1      -8.567   4.877 129.845  0.00  0.00    +0.000 C 
ATOM     12  O   UNL     1      -7.488   5.338 129.493  0.00  0.00    +0.000 OA
ATOM     13  H   UNL     1      -9.708   3.197 130.167  0.00  0.00    +0.000 HD
BRANCH  11  14
ATOM     14  C   UNL     1      -9.692   5.815 130.364  0.00  0.00    +0.000 C 
ATOM     15  N   UNL     1     -10.047   5.926 131.626  0.00  0.00    +0.000 NA
BRANCH  14  16
ATOM     16  C   UNL     1     -10.391   6.706 129.409  0.00  0.00    +0.000 A 
ATOM     17  C   UNL     1     -11.330   7.643 129.801  0.00  0.00    +0.000 A 
ATOM     18  S   UNL     1     -11.919   8.520 128.455  0.00  0.00    +0.000 S 
ATOM     19  C   UNL     1     -10.906   7.600 127.418  0.00  0.00    +0.000 A 
ATOM     20  N   UNL     1     -10.914   7.825 126.096  0.00  0.00    +0.000 N 
ATOM     21  N   UNL     1     -10.164   6.699 128.022  0.00  0.00    +0.000 NA
ATOM     22  H   UNL     1     -11.488   8.547 125.678  0.00  0.00    +0.000 HD
ATOM     23  H   UNL     1     -10.302   7.307 125.480  0.00  0.00    +0.000 HD
ENDBRANCH  14  16
BRANCH  15  24
ATOM     24  O   UNL     1      -9.337   5.065 132.472  0.00  0.00    +0.000 OA
ATOM     25  C   UNL     1      -8.546   5.778 133.411  0.00  0.00    +0.000 C 
ENDBRANCH  15  24
ENDBRANCH  11  14
ENDBRANCH   9  10
BRANCH   5  26
ATOM     26  C   UNL     1      -7.765  -1.537 127.355  0.00  0.00    +0.000 C 
ATOM     27  OXT UNL     1      -8.788  -1.793 126.732  0.00  0.00    +0.000 OA
BRANCH  26  28
ATOM     28  O   UNL     1      -6.582  -1.963 126.880  0.00  0.00    +0.000 OA
ATOM     29  H   UNL     1      -5.890  -2.158 127.542  0.00  0.00    +0.000 HD
ENDBRANCH  26  28
ENDBRANCH   5  26
BRANCH   4  30
ATOM     30  C   UNL     1      -7.894  -3.146 129.772  0.00  0.00    +0.000 C 
BRANCH  30  31
ATOM     31  O   UNL     1      -6.658  -3.737 129.339  0.00  0.00    +0.000 OA
BRANCH  31  32
ATOM     32  C   UNL     1      -5.527  -3.633 130.082  0.00  0.00    +0.000 C 
ATOM     33  C   UNL     1      -4.253  -3.143 129.443  0.00  0.00    +0.000 C 
ATOM     34  O   UNL     1      -5.548  -3.925 131.276  0.00  0.00    +0.000 OA
ENDBRANCH  31  32
ENDBRANCH  30  31
ENDBRANCH   4  30
TORSDOF 9
ENDMDL
MODEL 8
REMARK VINA RESULT:      -6.6      3.653      5.551
REMARK  Name = Cefotaxime
REMARK  11 active torsions:
REMARK  status: ('A' for Active; 'I' for Inactive)
REMARK    1  A    between atoms: C_5  and  C_6
REMARK    2  A    between atoms: C_6  and  O_7
REMARK    3  A    between atoms: O_7  and  C_8
REMARK    4  A    between atoms: C_8  and  C_9
REMARK    5  A    between atoms: CA_11  and  C_29
REMARK    6  A    between atoms: CA_15  and  N_16
REMARK    7  A    between atoms: C_17  and  C_19
REMARK    8  A    between atoms: C_19  and  C_23
REMARK    9  A    between atoms: N_20  and  O_21
REMARK   10  A    between atoms: O_21  and  C_22
REMARK   11  A    between atoms: C_29  and  O_30
REMARK                            x       y       z     vdW  Elec       q    Type
REMARK                         _______ _______ _______ _____ _____    ______ ____
ROOT
ATOM      1  C   UNL     1      -6.948   4.720 125.406  0.00  0.00    +0.000 C 
ATOM      2  S   UNL     1      -5.238   4.129 125.327  0.00  0.00    +0.000 S 
ATOM      3  C   UNL     1      -5.154   4.330 123.515  0.00  0.00    +0.000 C 
ATOM      4  C   UNL     1      -6.270   3.607 122.789  0.00  0.00    +0.000 C 
ATOM      5  CA  UNL     1      -7.477   3.330 123.363  0.00  0.00    +0.000 C 
ATOM      6  N   UNL     1      -7.784   3.806 124.622  0.00  0.00    +0.000 N 
ATOM      7  C   UNL     1      -8.340   3.193 125.704  0.00  0.00    +0.000 C 
ATOM      8  O   UNL     1      -9.017   2.197 125.758  0.00  0.00    +0.000 OA
ATOM      9  CA  UNL     1      -7.801   4.313 126.650  0.00  0.00    +0.000 C 
ENDROOT
BRANCH   9  10
ATOM     10  N   UNL     1      -7.113   3.961 127.916  0.00  0.00    +0.000 N 
ATOM     11  C   UNL     1      -7.824   3.666 129.076  0.00  0.00    +0.000 C 
ATOM     12  O   UNL     1      -9.041   3.812 129.124  0.00  0.00    +0.000 OA
ATOM     13  H   UNL     1      -6.104   3.840 127.965  0.00  0.00    +0.000 HD
BRANCH  11  14
ATOM     14  C   UNL     1      -7.040   3.196 130.332  0.00  0.00    +0.000 C 
ATOM     15  N   UNL     1      -6.846   3.928 131.408  0.00  0.00    +0.000 NA
BRANCH  14  16
ATOM     16  C   UNL     1      -6.512   1.813 130.382  0.00  0.00    +0.000 A 
ATOM     17  C   UNL     1      -6.691   0.975 131.469  0.00  0.00    +0.000 A 
ATOM     18  S   UNL     1      -5.981  -0.556 131.186  0.00  0.00    +0.000 S 
ATOM     19  C   UNL     1      -5.461  -0.024 129.639  0.00  0.00    +0.000 A 
ATOM     20  N   UNL     1      -4.766  -0.849 128.843  0.00  0.00    +0.000 N 
ATOM     21  N   UNL     1      -5.794   1.211 129.334  0.00  0.00    +0.000 NA
ATOM     22  H   UNL     1      -4.552  -1.801 129.112  0.00  0.00    +0.000 HD
ATOM     23  H   UNL     1      -4.477  -0.554 127.919  0.00  0.00    +0.000 HD
ENDBRANCH  14  16
BRANCH  15  24
ATOM     24  O   UNL     1      -7.382   5.217 131.295  0.00  0.00    +0.000 OA
ATOM     25  C   UNL     1      -8.189   5.556 132.414  0.00  0.00    +0.000 C 
ENDBRANCH  15  24
ENDBRANCH  11  14
ENDBRANCH   9  10
BRANCH   5  26
ATOM     26  C   UNL     1      -8.500   2.525 122.566  0.00  0.00    +0.000 C 
ATOM     27  OXT UNL     1      -9.137   2.981 121.625  0.00  0.00    +0.000 OA
BRANCH  26  28
ATOM     28  O   UNL     1      -8.769   1.282 123.001  0.00  0.00    +0.000 OA
ATOM     29  H   UNL     1      -8.921   0.603 122.315  0.00  0.00    +0.000 HD
ENDBRANCH  26  28
ENDBRANCH   5  26
BRANCH   4  30
ATOM     30  C   UNL     1      -5.940   3.179 121.356  0.00  0.00    +0.000 C 
BRANCH  30  31
ATOM     31  O   UNL     1      -4.995   4.047 120.709  0.00  0.00    +0.000 OA
BRANCH  31  32
ATOM     32  C   UNL     1      -5.404   5.098 119.952  0.00  0.00    +0.000 C 
ATOM     33  C   UNL     1      -6.524   4.916 118.961  0.00  0.00    +0.000 C 
ATOM     34  O   UNL     1      -4.869   6.196 120.089  0.00  0.00    +0.000 OA
ENDBRANCH  31  32
ENDBRANCH  30  31
ENDBRANCH   4  30
TORSDOF 9
ENDMDL
MODEL 9
REMARK VINA RESULT:      -6.6      2.035      2.497
REMARK  Name = Cefotaxime
REMARK  11 active torsions:
REMARK  status: ('A' for Active; 'I' for Inactive)
REMARK    1  A    between atoms: C_5  and  C_6
REMARK    2  A    between atoms: C_6  and  O_7
REMARK    3  A    between atoms: O_7  and  C_8
REMARK    4  A    between atoms: C_8  and  C_9
REMARK    5  A    between atoms: CA_11  and  C_29
REMARK    6  A    between atoms: CA_15  and  N_16
REMARK    7  A    between atoms: C_17  and  C_19
REMARK    8  A    between atoms: C_19  and  C_23
REMARK    9  A    between atoms: N_20  and  O_21
REMARK   10  A    between atoms: O_21  and  C_22
REMARK   11  A    between atoms: C_29  and  O_30
REMARK                            x       y       z     vdW  Elec       q    Type
REMARK                         _______ _______ _______ _____ _____    ______ ____
ROOT
ATOM      1  C   UNL     1      -6.817   1.308 127.516  0.00  0.00    +0.000 C 
ATOM      2  S   UNL     1      -7.554  -0.045 128.468  0.00  0.00    +0.000 S 
ATOM      3  C   UNL     1      -6.734  -1.326 127.459  0.00  0.00    +0.000 C 
ATOM      4  C   UNL     1      -7.002  -1.170 125.976  0.00  0.00    +0.000 C 
ATOM      5  CA  UNL     1      -7.309   0.026 125.394  0.00  0.00    +0.000 C 
ATOM      6  N   UNL     1      -7.277   1.195 126.129  0.00  0.00    +0.000 N 
ATOM      7  C   UNL     1      -8.159   2.230 126.210  0.00  0.00    +0.000 C 
ATOM      8  O   UNL     1      -9.013   2.573 125.432  0.00  0.00    +0.000 OA
ATOM      9  CA  UNL     1      -7.527   2.699 127.559  0.00  0.00    +0.000 C 
ENDROOT
BRANCH   9  10
ATOM     10  N   UNL     1      -8.390   3.035 128.717  0.00  0.00    +0.000 N 
ATOM     11  C   UNL     1      -8.230   4.222 129.427  0.00  0.00    +0.000 C 
ATOM     12  O   UNL     1      -7.286   4.971 129.198  0.00  0.00    +0.000 OA
ATOM     13  H   UNL     1      -9.183   2.455 128.984  0.00  0.00    +0.000 HD
BRANCH  11  14
ATOM     14  C   UNL     1      -9.244   4.558 130.555  0.00  0.00    +0.000 C 
ATOM     15  N   UNL     1      -9.295   3.945 131.719  0.00  0.00    +0.000 NA
BRANCH  14  16
ATOM     16  C   UNL     1     -10.193   5.680 130.368  0.00  0.00    +0.000 A 
ATOM     17  C   UNL     1     -10.148   6.532 129.278  0.00  0.00    +0.000 A 
ATOM     18  S   UNL     1     -11.401   7.695 129.357  0.00  0.00    +0.000 S 
ATOM     19  C   UNL     1     -11.931   7.015 130.842  0.00  0.00    +0.000 A 
ATOM     20  N   UNL     1     -12.982   7.543 131.486  0.00  0.00    +0.000 N 
ATOM     21  N   UNL     1     -11.234   5.982 131.261  0.00  0.00    +0.000 NA
ATOM     22  H   UNL     1     -13.502   8.327 131.112  0.00  0.00    +0.000 HD
ATOM     23  H   UNL     1     -13.318   7.134 132.348  0.00  0.00    +0.000 HD
ENDBRANCH  14  16
BRANCH  15  24
ATOM     24  O   UNL     1      -8.362   2.907 131.830  0.00  0.00    +0.000 OA
ATOM     25  C   UNL     1      -7.939   2.716 133.173  0.00  0.00    +0.000 C 
ENDBRANCH  15  24
ENDBRANCH  11  14
ENDBRANCH   9  10
BRANCH   5  26
ATOM     26  C   UNL     1      -7.639   0.054 123.905  0.00  0.00    +0.000 C 
ATOM     27  OXT UNL     1      -6.802   0.219 123.027  0.00  0.00    +0.000 OA
BRANCH  26  28
ATOM     28  O   UNL     1      -8.940  -0.012 123.568  0.00  0.00    +0.000 OA
ATOM     29  H   UNL     1      -9.370  -0.885 123.661  0.00  0.00    +0.000 HD
ENDBRANCH  26  28
ENDBRANCH   5  26
BRANCH   4  30
ATOM     30  C   UNL     1      -6.931  -2.468 125.165  0.00  0.00    +0.000 C 
BRANCH  30  31
ATOM     31  O   UNL     1      -5.589  -2.949 124.984  0.00  0.00    +0.000 OA
BRANCH  31  32
ATOM     32  C   UNL     1      -5.128  -3.311 123.759  0.00  0.00    +0.000 C 
ATOM     33  C   UNL     1      -4.253  -4.530 123.618  0.00  0.00    +0.000 C 
ATOM     34  O   UNL     1      -5.435  -2.652 122.768  0.00  0.00    +0.000 OA
ENDBRANCH  31  32
ENDBRANCH  30  31
ENDBRANCH   4  30
TORSDOF 9
ENDMDL
