MODEL 1
REMARK VINA RESULT:      -9.1      0.000      0.000
REMARK  Name = Cefoperazone
REMARK  13 active torsions:
REMARK  status: ('A' for Active; 'I' for Inactive)
REMARK    1  A    between atoms: C_5  and  C_6
REMARK    2  A    between atoms: C_6  and  S_7
REMARK    3  A    between atoms: S_7  and  C_8
REMARK    4  A    between atoms: N_12  and  C_13
REMARK    5  A    between atoms: CA_14  and  C_44
REMARK    6  A    between atoms: CA_18  and  N_20
REMARK    7  A    between atoms: C_21  and  CA_23
REMARK    8  A    between atoms: CA_23  and  N_24
REMARK    9  A    between atoms: CA_23  and  C_37
REMARK   10  A    between atoms: N_30  and  C_31
REMARK   11  A    between atoms: C_31  and  C_32
REMARK   12  A    between atoms: C_40  and  O_41
REMARK   13  A    between atoms: C_44  and  O_45
REMARK                            x       y       z     vdW  Elec       q    Type
REMARK                         _______ _______ _______ _____ _____    ______ ____
ROOT
ATOM      1  N   UNL     1      -6.120   4.766 129.072  0.00  0.00    +0.000 N 
ATOM      2  C   UNL     1      -5.308   4.730 130.207  0.00  0.00    +0.000 C 
ATOM      3  O   UNL     1      -4.324   3.983 130.222  0.00  0.00    +0.000 OA
ATOM      4  H   UNL     1      -7.036   5.207 129.117  0.00  0.00    +0.000 HD
ENDROOT
BRANCH   1  13
ATOM      5  C   UNL     1      -6.530   2.512 127.689  0.00  0.00    +0.000 C 
ATOM      6  S   UNL     1      -8.149   2.341 128.440  0.00  0.00    +0.000 S 
ATOM      7  C   UNL     1      -8.661   1.086 127.233  0.00  0.00    +0.000 C 
ATOM      8  C   UNL     1      -8.516   1.511 125.779  0.00  0.00    +0.000 C 
ATOM      9  CA  UNL     1      -7.590   2.441 125.391  0.00  0.00    +0.000 C 
ATOM     10  N   UNL     1      -6.680   2.944 126.300  0.00  0.00    +0.000 N 
ATOM     11  C   UNL     1      -6.261   4.222 126.519  0.00  0.00    +0.000 C 
ATOM     12  O   UNL     1      -6.318   5.174 125.789  0.00  0.00    +0.000 OA
ATOM     13  CA  UNL     1      -5.759   3.835 127.948  0.00  0.00    +0.000 C 
BRANCH   9  14
ATOM     14  C   UNL     1      -7.529   2.879 123.930  0.00  0.00    +0.000 C 
ATOM     15  OXT UNL     1      -6.793   2.358 123.104  0.00  0.00    +0.000 OA
BRANCH  14  16
ATOM     16  O   UNL     1      -8.237   3.974 123.591  0.00  0.00    +0.000 OA
ATOM     17  H   UNL     1      -8.411   4.625 124.302  0.00  0.00    +0.000 HD
ENDBRANCH  14  16
ENDBRANCH   9  14
BRANCH   8  18
ATOM     18  C   UNL     1      -9.485   0.838 124.776  0.00  0.00    +0.000 C 
BRANCH  18  19
ATOM     19  S   UNL     1      -8.779  -0.590 123.887  0.00  0.00    +0.000 S 
BRANCH  19  20
ATOM     20  C   UNL     1      -8.706  -1.858 125.047  0.00  0.00    +0.000 A 
ATOM     21  N   UNL     1      -9.726  -2.554 125.494  0.00  0.00    +0.000 NA
ATOM     22  N   UNL     1      -9.250  -3.267 126.572  0.00  0.00    +0.000 NA
ATOM     23  N   UNL     1      -7.971  -2.995 126.797  0.00  0.00    +0.000 NA
ATOM     24  N   UNL     1      -7.629  -2.111 125.843  0.00  0.00    +0.000 N 
ATOM     25  C   UNL     1      -6.311  -1.548 125.803  0.00  0.00    +0.000 C 
ENDBRANCH  19  20
ENDBRANCH  18  19
ENDBRANCH   8  18
ENDBRANCH   1  13
BRANCH   2  26
ATOM     26  CA  UNL     1      -5.793   5.494 131.499  0.00  0.00    +0.000 C 
BRANCH  26  27
ATOM     27  N   UNL     1      -6.999   6.279 131.137  0.00  0.00    +0.000 N 
ATOM     28  C   UNL     1      -8.247   5.705 131.244  0.00  0.00    +0.000 C 
ATOM     29  O   UNL     1      -8.353   4.522 131.564  0.00  0.00    +0.000 OA
ATOM     30  N   UNL     1      -9.327   6.481 130.887  0.00  0.00    +0.000 N 
ATOM     31  C   UNL     1      -9.331   7.445 129.791  0.00  0.00    +0.000 C 
ATOM     32  C   UNL     1     -10.601   7.295 128.937  0.00  0.00    +0.000 C 
ATOM     33  N   UNL     1     -11.797   7.443 129.761  0.00  0.00    +0.000 N 
ATOM     34  C   UNL     1     -11.780   6.946 131.074  0.00  0.00    +0.000 C 
ATOM     35  O   UNL     1     -12.705   7.040 131.873  0.00  0.00    +0.000 OA
ATOM     36  C   UNL     1     -10.507   6.259 131.586  0.00  0.00    +0.000 C 
ATOM     37  O   UNL     1     -10.602   5.628 132.635  0.00  0.00    +0.000 OA
ATOM     38  H   UNL     1      -6.911   7.278 131.044  0.00  0.00    +0.000 HD
BRANCH  33  39
ATOM     39  C   UNL     1     -13.023   7.989 129.142  0.00  0.00    +0.000 C 
ATOM     40  C   UNL     1     -13.449   7.348 127.827  0.00  0.00    +0.000 C 
ENDBRANCH  33  39
ENDBRANCH  26  27
BRANCH  26  41
ATOM     41  C   UNL     1      -4.696   6.432 132.029  0.00  0.00    +0.000 A 
ATOM     42  C   UNL     1      -4.065   7.394 131.217  0.00  0.00    +0.000 A 
ATOM     43  C   UNL     1      -3.037   8.209 131.736  0.00  0.00    +0.000 A 
ATOM     44  C   UNL     1      -2.653   8.076 133.067  0.00  0.00    +0.000 A 
ATOM     45  C   UNL     1      -3.264   7.140 133.880  0.00  0.00    +0.000 A 
ATOM     46  C   UNL     1      -4.260   6.323 133.362  0.00  0.00    +0.000 A 
BRANCH  44  47
ATOM     47  O   UNL     1      -1.672   8.825 133.644  0.00  0.00    +0.000 OA
ATOM     48  H   UNL     1      -2.006   9.238 134.455  0.00  0.00    +0.000 HD
ENDBRANCH  44  47
ENDBRANCH  26  41
ENDBRANCH   2  26
TORSDOF 11
ENDMDL
MODEL 2
REMARK VINA RESULT:      -8.9      3.505      4.547
REMARK  Name = Cefoperazone
REMARK  13 active torsions:
REMARK  status: ('A' for Active; 'I' for Inactive)
REMARK    1  A    between atoms: C_5  and  C_6
REMARK    2  A    between atoms: C_6  and  S_7
REMARK    3  A    between atoms: S_7  and  C_8
REMARK    4  A    between atoms: N_12  and  C_13
REMARK    5  A    between atoms: CA_14  and  C_44
REMARK    6  A    between atoms: CA_18  and  N_20
REMARK    7  A    between atoms: C_21  and  CA_23
REMARK    8  A    between atoms: CA_23  and  N_24
REMARK    9  A    between atoms: CA_23  and  C_37
REMARK   10  A    between atoms: N_30  and  C_31
REMARK   11  A    between atoms: C_31  and  C_32
REMARK   12  A    between atoms: C_40  and  O_41
REMARK   13  A    between atoms: C_44  and  O_45
REMARK                            x       y       z     vdW  Elec       q    Type
REMARK                         _______ _______ _______ _____ _____    ______ ____
ROOT
ATOM      1  N   UNL     1      -5.723   4.559 132.267  0.00  0.00    +0.000 N 
ATOM      2  C   UNL     1      -6.397   4.030 133.369  0.00  0.00    +0.000 C 
ATOM      3  O   UNL     1      -6.158   2.868 133.720  0.00  0.00    +0.000 OA
ATOM      4  H   UNL     1      -6.051   5.423 131.839  0.00  0.00    +0.000 HD
ENDROOT
BRANCH   1  13
ATOM      5  C   UNL     1      -5.222   2.789 130.324  0.00  0.00    +0.000 C 
ATOM      6  S   UNL     1      -6.738   3.263 129.495  0.00  0.00    +0.000 S 
ATOM      7  C   UNL     1      -6.251   2.427 127.960  0.00  0.00    +0.000 C 
ATOM      8  C   UNL     1      -4.896   2.851 127.412  0.00  0.00    +0.000 C 
ATOM      9  CA  UNL     1      -3.908   3.329 128.229  0.00  0.00    +0.000 C 
ATOM     10  N   UNL     1      -4.078   3.339 129.599  0.00  0.00    +0.000 N 
ATOM     11  C   UNL     1      -3.796   4.304 130.520  0.00  0.00    +0.000 C 
ATOM     12  O   UNL     1      -3.048   5.240 130.433  0.00  0.00    +0.000 OA
ATOM     13  CA  UNL     1      -4.777   3.643 131.543  0.00  0.00    +0.000 C 
BRANCH   9  14
ATOM     14  C   UNL     1      -2.590   3.801 127.620  0.00  0.00    +0.000 C 
ATOM     15  OXT UNL     1      -1.707   3.036 127.257  0.00  0.00    +0.000 OA
BRANCH  14  16
ATOM     16  O   UNL     1      -2.363   5.129 127.610  0.00  0.00    +0.000 OA
ATOM     17  H   UNL     1      -1.624   5.447 127.051  0.00  0.00    +0.000 HD
ENDBRANCH  14  16
ENDBRANCH   9  14
BRANCH   8  18
ATOM     18  C   UNL     1      -4.713   2.719 125.880  0.00  0.00    +0.000 C 
BRANCH  18  19
ATOM     19  S   UNL     1      -5.141   4.220 124.937  0.00  0.00    +0.000 S 
BRANCH  19  20
ATOM     20  C   UNL     1      -6.840   4.406 125.123  0.00  0.00    +0.000 A 
ATOM     21  N   UNL     1      -7.440   5.268 125.912  0.00  0.00    +0.000 NA
ATOM     22  N   UNL     1      -8.766   4.897 125.934  0.00  0.00    +0.000 NA
ATOM     23  N   UNL     1      -8.971   3.815 125.195  0.00  0.00    +0.000 NA
ATOM     24  N   UNL     1      -7.766   3.505 124.688  0.00  0.00    +0.000 N 
ATOM     25  C   UNL     1      -7.592   2.344 123.864  0.00  0.00    +0.000 C 
ENDBRANCH  19  20
ENDBRANCH  18  19
ENDBRANCH   8  18
ENDBRANCH   1  13
BRANCH   2  26
ATOM     26  CA  UNL     1      -7.579   4.864 133.997  0.00  0.00    +0.000 C 
BRANCH  26  27
ATOM     27  N   UNL     1      -8.092   5.783 132.952  0.00  0.00    +0.000 N 
ATOM     28  C   UNL     1      -9.333   5.562 132.396  0.00  0.00    +0.000 C 
ATOM     29  O   UNL     1      -9.977   4.563 132.709  0.00  0.00    +0.000 OA
ATOM     30  N   UNL     1      -9.751   6.446 131.425  0.00  0.00    +0.000 N 
ATOM     31  C   UNL     1      -8.879   7.061 130.431  0.00  0.00    +0.000 C 
ATOM     32  C   UNL     1      -9.511   6.991 129.031  0.00  0.00    +0.000 C 
ATOM     33  N   UNL     1     -10.827   7.623 129.027  0.00  0.00    +0.000 N 
ATOM     34  C   UNL     1     -11.641   7.498 130.164  0.00  0.00    +0.000 C 
ATOM     35  O   UNL     1     -12.747   8.010 130.296  0.00  0.00    +0.000 OA
ATOM     36  C   UNL     1     -11.116   6.694 131.362  0.00  0.00    +0.000 C 
ATOM     37  O   UNL     1     -11.933   6.400 132.231  0.00  0.00    +0.000 OA
ATOM     38  H   UNL     1      -7.638   6.673 132.832  0.00  0.00    +0.000 HD
BRANCH  33  39
ATOM     39  C   UNL     1     -11.307   8.256 127.781  0.00  0.00    +0.000 C 
ATOM     40  C   UNL     1     -11.554   7.316 126.607  0.00  0.00    +0.000 C 
ENDBRANCH  33  39
ENDBRANCH  26  27
BRANCH  26  41
ATOM     41  C   UNL     1      -7.099   5.669 135.215  0.00  0.00    +0.000 A 
ATOM     42  C   UNL     1      -5.743   5.994 135.421  0.00  0.00    +0.000 A 
ATOM     43  C   UNL     1      -5.343   6.704 136.573  0.00  0.00    +0.000 A 
ATOM     44  C   UNL     1      -6.295   7.103 137.507  0.00  0.00    +0.000 A 
ATOM     45  C   UNL     1      -7.629   6.797 137.319  0.00  0.00    +0.000 A 
ATOM     46  C   UNL     1      -8.019   6.078 136.197  0.00  0.00    +0.000 A 
BRANCH  44  47
ATOM     47  O   UNL     1      -5.989   7.793 138.641  0.00  0.00    +0.000 OA
ATOM     48  H   UNL     1      -6.794   7.952 139.157  0.00  0.00    +0.000 HD
ENDBRANCH  44  47
ENDBRANCH  26  41
ENDBRANCH   2  26
TORSDOF 11
ENDMDL
MODEL 3
REMARK VINA RESULT:      -8.9      1.656      1.969
REMARK  Name = Cefoperazone
REMARK  13 active torsions:
REMARK  status: ('A' for Active; 'I' for Inactive)
REMARK    1  A    between atoms: C_5  and  C_6
REMARK    2  A    between atoms: C_6  and  S_7
REMARK    3  A    between atoms: S_7  and  C_8
REMARK    4  A    between atoms: N_12  and  C_13
REMARK    5  A    between atoms: CA_14  and  C_44
REMARK    6  A    between atoms: CA_18  and  N_20
REMARK    7  A    between atoms: C_21  and  CA_23
REMARK    8  A    between atoms: CA_23  and  N_24
REMARK    9  A    between atoms: CA_23  and  C_37
REMARK   10  A    between atoms: N_30  and  C_31
REMARK   11  A    between atoms: C_31  and  C_32
REMARK   12  A    between atoms: C_40  and  O_41
REMARK   13  A    between atoms: C_44  and  O_45
REMARK                            x       y       z     vdW  Elec       q    Type
REMARK                         _______ _______ _______ _____ _____    ______ ____
ROOT
ATOM      1  N   UNL     1      -4.916   5.156 128.069  0.00  0.00    +0.000 N 
ATOM      2  C   UNL     1      -3.921   5.067 129.044  0.00  0.00    +0.000 C 
ATOM      3  O   UNL     1      -2.800   4.653 128.726  0.00  0.00    +0.000 OA
ATOM      4  H   UNL     1      -5.886   5.292 128.345  0.00  0.00    +0.000 HD
ENDROOT
BRANCH   1  13
ATOM      5  C   UNL     1      -4.653   3.186 126.277  0.00  0.00    +0.000 C 
ATOM      6  S   UNL     1      -5.642   2.107 127.312  0.00  0.00    +0.000 S 
ATOM      7  C   UNL     1      -5.873   0.906 125.971  0.00  0.00    +0.000 C 
ATOM      8  C   UNL     1      -6.442   1.493 124.688  0.00  0.00    +0.000 C 
ATOM      9  CA  UNL     1      -6.255   2.807 124.353  0.00  0.00    +0.000 C 
ATOM     10  N   UNL     1      -5.445   3.616 125.125  0.00  0.00    +0.000 N 
ATOM     11  C   UNL     1      -5.631   4.891 125.569  0.00  0.00    +0.000 C 
ATOM     12  O   UNL     1      -6.371   5.739 125.149  0.00  0.00    +0.000 OA
ATOM     13  CA  UNL     1      -4.559   4.681 126.688  0.00  0.00    +0.000 C 
BRANCH   9  14
ATOM     14  C   UNL     1      -6.901   3.361 123.087  0.00  0.00    +0.000 C 
ATOM     15  OXT UNL     1      -6.312   3.455 122.019  0.00  0.00    +0.000 OA
BRANCH  14  16
ATOM     16  O   UNL     1      -8.139   3.880 123.209  0.00  0.00    +0.000 OA
ATOM     17  H   UNL     1      -8.887   3.304 122.950  0.00  0.00    +0.000 HD
ENDBRANCH  14  16
ENDBRANCH   9  14
BRANCH   8  18
ATOM     18  C   UNL     1      -7.253   0.519 123.797  0.00  0.00    +0.000 C 
BRANCH  18  19
ATOM     19  S   UNL     1      -6.589  -1.179 123.739  0.00  0.00    +0.000 S 
BRANCH  19  20
ATOM     20  C   UNL     1      -7.947  -2.208 123.974  0.00  0.00    +0.000 A 
ATOM     21  N   UNL     1      -8.692  -2.731 123.027  0.00  0.00    +0.000 NA
ATOM     22  N   UNL     1      -9.792  -3.261 123.664  0.00  0.00    +0.000 NA
ATOM     23  N   UNL     1      -9.736  -3.044 124.972  0.00  0.00    +0.000 NA
ATOM     24  N   UNL     1      -8.582  -2.383 125.167  0.00  0.00    +0.000 N 
ATOM     25  C   UNL     1      -8.206  -1.934 126.477  0.00  0.00    +0.000 C 
ENDBRANCH  19  20
ENDBRANCH  18  19
ENDBRANCH   8  18
ENDBRANCH   1  13
BRANCH   2  26
ATOM     26  CA  UNL     1      -4.323   5.310 130.549  0.00  0.00    +0.000 C 
BRANCH  26  27
ATOM     27  N   UNL     1      -5.632   6.006 130.563  0.00  0.00    +0.000 N 
ATOM     28  C   UNL     1      -6.751   5.349 131.028  0.00  0.00    +0.000 C 
ATOM     29  O   UNL     1      -6.677   4.166 131.356  0.00  0.00    +0.000 OA
ATOM     30  N   UNL     1      -7.940   6.045 131.009  0.00  0.00    +0.000 N 
ATOM     31  C   UNL     1      -8.333   6.991 129.970  0.00  0.00    +0.000 C 
ATOM     32  C   UNL     1      -9.783   6.743 129.526  0.00  0.00    +0.000 C 
ATOM     33  N   UNL     1     -10.692   6.820 130.666  0.00  0.00    +0.000 N 
ATOM     34  C   UNL     1     -10.256   6.342 131.912  0.00  0.00    +0.000 C 
ATOM     35  O   UNL     1     -10.910   6.384 132.948  0.00  0.00    +0.000 OA
ATOM     36  C   UNL     1      -8.844   5.751 132.022  0.00  0.00    +0.000 C 
ATOM     37  O   UNL     1      -8.583   5.130 133.048  0.00  0.00    +0.000 OA
ATOM     38  H   UNL     1      -5.645   7.007 130.455  0.00  0.00    +0.000 HD
BRANCH  33  39
ATOM     39  C   UNL     1     -12.080   7.272 130.438  0.00  0.00    +0.000 C 
ATOM     40  C   UNL     1     -12.243   8.525 129.585  0.00  0.00    +0.000 C 
ENDBRANCH  33  39
ENDBRANCH  26  27
BRANCH  26  41
ATOM     41  C   UNL     1      -3.268   6.164 131.271  0.00  0.00    +0.000 A 
ATOM     42  C   UNL     1      -2.040   5.633 131.716  0.00  0.00    +0.000 A 
ATOM     43  C   UNL     1      -1.116   6.445 132.407  0.00  0.00    +0.000 A 
ATOM     44  C   UNL     1      -1.409   7.786 132.638  0.00  0.00    +0.000 A 
ATOM     45  C   UNL     1      -2.605   8.325 132.205  0.00  0.00    +0.000 A 
ATOM     46  C   UNL     1      -3.524   7.519 131.545  0.00  0.00    +0.000 A 
BRANCH  44  47
ATOM     47  O   UNL     1      -0.570   8.635 133.295  0.00  0.00    +0.000 OA
ATOM     48  H   UNL     1      -0.569   9.501 132.860  0.00  0.00    +0.000 HD
ENDBRANCH  44  47
ENDBRANCH  26  41
ENDBRANCH   2  26
TORSDOF 11
ENDMDL
MODEL 4
REMARK VINA RESULT:      -8.4      4.389      7.906
REMARK  Name = Cefoperazone
REMARK  13 active torsions:
REMARK  status: ('A' for Active; 'I' for Inactive)
REMARK    1  A    between atoms: C_5  and  C_6
REMARK    2  A    between atoms: C_6  and  S_7
REMARK    3  A    between atoms: S_7  and  C_8
REMARK    4  A    between atoms: N_12  and  C_13
REMARK    5  A    between atoms: CA_14  and  C_44
REMARK    6  A    between atoms: CA_18  and  N_20
REMARK    7  A    between atoms: C_21  and  CA_23
REMARK    8  A    between atoms: CA_23  and  N_24
REMARK    9  A    between atoms: CA_23  and  C_37
REMARK   10  A    between atoms: N_30  and  C_31
REMARK   11  A    between atoms: C_31  and  C_32
REMARK   12  A    between atoms: C_40  and  O_41
REMARK   13  A    between atoms: C_44  and  O_45
REMARK                            x       y       z     vdW  Elec       q    Type
REMARK                         _______ _______ _______ _____ _____    ______ ____
ROOT
ATOM      1  N   UNL     1      -8.361   2.746 131.367  0.00  0.00    +0.000 N 
ATOM      2  C   UNL     1      -9.348   3.507 130.739  0.00  0.00    +0.000 C 
ATOM      3  O   UNL     1     -10.518   3.107 130.755  0.00  0.00    +0.000 OA
ATOM      4  H   UNL     1      -7.378   2.944 131.189  0.00  0.00    +0.000 HD
ENDROOT
BRANCH   1  13
ATOM      5  C   UNL     1      -8.824   0.118 131.179  0.00  0.00    +0.000 C 
ATOM      6  S   UNL     1      -7.888   0.057 129.652  0.00  0.00    +0.000 S 
ATOM      7  C   UNL     1      -7.787  -1.754 129.695  0.00  0.00    +0.000 C 
ATOM      8  C   UNL     1      -7.215  -2.325 130.984  0.00  0.00    +0.000 C 
ATOM      9  CA  UNL     1      -7.314  -1.655 132.173  0.00  0.00    +0.000 C 
ATOM     10  N   UNL     1      -8.037  -0.481 132.257  0.00  0.00    +0.000 N 
ATOM     11  C   UNL     1      -7.743   0.699 132.870  0.00  0.00    +0.000 C 
ATOM     12  O   UNL     1      -6.955   0.921 133.749  0.00  0.00    +0.000 OA
ATOM     13  CA  UNL     1      -8.793   1.446 131.984  0.00  0.00    +0.000 C 
BRANCH   9  14
ATOM     14  C   UNL     1      -6.667  -2.242 133.425  0.00  0.00    +0.000 C 
ATOM     15  OXT UNL     1      -7.239  -3.022 134.173  0.00  0.00    +0.000 OA
BRANCH  14  16
ATOM     16  O   UNL     1      -5.453  -1.764 133.766  0.00  0.00    +0.000 OA
ATOM     17  H   UNL     1      -5.370  -0.792 133.854  0.00  0.00    +0.000 HD
ENDBRANCH  14  16
ENDBRANCH   9  14
BRANCH   8  18
ATOM     18  C   UNL     1      -6.507  -3.697 130.863  0.00  0.00    +0.000 C 
BRANCH  18  19
ATOM     19  S   UNL     1      -4.914  -3.648 129.976  0.00  0.00    +0.000 S 
BRANCH  19  20
ATOM     20  C   UNL     1      -3.781  -3.023 131.108  0.00  0.00    +0.000 A 
ATOM     21  N   UNL     1      -3.264  -3.676 132.124  0.00  0.00    +0.000 NA
ATOM     22  N   UNL     1      -2.622  -2.731 132.891  0.00  0.00    +0.000 NA
ATOM     23  N   UNL     1      -2.764  -1.518 132.372  0.00  0.00    +0.000 NA
ATOM     24  N   UNL     1      -3.490  -1.699 131.256  0.00  0.00    +0.000 N 
ATOM     25  C   UNL     1      -3.886  -0.582 130.448  0.00  0.00    +0.000 C 
ENDBRANCH  19  20
ENDBRANCH  18  19
ENDBRANCH   8  18
ENDBRANCH   1  13
BRANCH   2  26
ATOM     26  CA  UNL     1      -8.901   4.740 129.864  0.00  0.00    +0.000 C 
BRANCH  26  27
ATOM     27  N   UNL     1      -7.603   5.224 130.391  0.00  0.00    +0.000 N 
ATOM     28  C   UNL     1      -6.432   4.881 129.750  0.00  0.00    +0.000 C 
ATOM     29  O   UNL     1      -6.460   4.111 128.791  0.00  0.00    +0.000 OA
ATOM     30  N   UNL     1      -5.258   5.355 130.292  0.00  0.00    +0.000 N 
ATOM     31  C   UNL     1      -5.001   5.500 131.721  0.00  0.00    +0.000 C 
ATOM     32  C   UNL     1      -3.616   4.942 132.086  0.00  0.00    +0.000 C 
ATOM     33  N   UNL     1      -2.572   5.599 131.303  0.00  0.00    +0.000 N 
ATOM     34  C   UNL     1      -2.849   5.958 129.975  0.00  0.00    +0.000 C 
ATOM     35  O   UNL     1      -2.072   6.544 129.229  0.00  0.00    +0.000 OA
ATOM     36  C   UNL     1      -4.234   5.637 129.397  0.00  0.00    +0.000 C 
ATOM     37  O   UNL     1      -4.362   5.740 128.180  0.00  0.00    +0.000 OA
ATOM     38  H   UNL     1      -7.607   5.977 131.060  0.00  0.00    +0.000 HD
BRANCH  33  39
ATOM     39  C   UNL     1      -1.225   5.741 131.894  0.00  0.00    +0.000 C 
ATOM     40  C   UNL     1      -0.903   7.101 132.503  0.00  0.00    +0.000 C 
ENDBRANCH  33  39
ENDBRANCH  26  27
BRANCH  26  41
ATOM     41  C   UNL     1      -9.945   5.867 129.924  0.00  0.00    +0.000 A 
ATOM     42  C   UNL     1     -10.746   6.097 131.061  0.00  0.00    +0.000 A 
ATOM     43  C   UNL     1     -11.717   7.120 131.059  0.00  0.00    +0.000 A 
ATOM     44  C   UNL     1     -11.878   7.921 129.932  0.00  0.00    +0.000 A 
ATOM     45  C   UNL     1     -11.100   7.712 128.810  0.00  0.00    +0.000 A 
ATOM     46  C   UNL     1     -10.159   6.690 128.804  0.00  0.00    +0.000 A 
BRANCH  44  47
ATOM     47  O   UNL     1     -12.791   8.929 129.852  0.00  0.00    +0.000 OA
ATOM     48  H   UNL     1     -13.678   8.561 129.717  0.00  0.00    +0.000 HD
ENDBRANCH  44  47
ENDBRANCH  26  41
ENDBRANCH   2  26
TORSDOF 11
ENDMDL
MODEL 5
REMARK VINA RESULT:      -8.3      4.207      7.540
REMARK  Name = Cefoperazone
REMARK  13 active torsions:
REMARK  status: ('A' for Active; 'I' for Inactive)
REMARK    1  A    between atoms: C_5  and  C_6
REMARK    2  A    between atoms: C_6  and  S_7
REMARK    3  A    between atoms: S_7  and  C_8
REMARK    4  A    between atoms: N_12  and  C_13
REMARK    5  A    between atoms: CA_14  and  C_44
REMARK    6  A    between atoms: CA_18  and  N_20
REMARK    7  A    between atoms: C_21  and  CA_23
REMARK    8  A    between atoms: CA_23  and  N_24
REMARK    9  A    between atoms: CA_23  and  C_37
REMARK   10  A    between atoms: N_30  and  C_31
REMARK   11  A    between atoms: C_31  and  C_32
REMARK   12  A    between atoms: C_40  and  O_41
REMARK   13  A    between atoms: C_44  and  O_45
REMARK                            x       y       z     vdW  Elec       q    Type
REMARK                         _______ _______ _______ _____ _____    ______ ____
ROOT
ATOM      1  N   UNL     1      -6.840   0.913 128.662  0.00  0.00    +0.000 N 
ATOM      2  C   UNL     1      -7.142   0.253 129.854  0.00  0.00    +0.000 C 
ATOM      3  O   UNL     1      -8.326   0.105 130.178  0.00  0.00    +0.000 OA
ATOM      4  H   UNL     1      -5.888   1.226 128.483  0.00  0.00    +0.000 HD
ENDROOT
BRANCH   1  13
ATOM      5  C   UNL     1      -7.847   2.653 126.897  0.00  0.00    +0.000 C 
ATOM      6  S   UNL     1      -6.189   3.078 126.364  0.00  0.00    +0.000 S 
ATOM      7  C   UNL     1      -6.801   3.922 124.877  0.00  0.00    +0.000 C 
ATOM      8  C   UNL     1      -7.710   3.075 123.999  0.00  0.00    +0.000 C 
ATOM      9  CA  UNL     1      -8.457   2.051 124.514  0.00  0.00    +0.000 C 
ATOM     10  N   UNL     1      -8.489   1.825 125.877  0.00  0.00    +0.000 N 
ATOM     11  C   UNL     1      -8.406   0.664 126.584  0.00  0.00    +0.000 C 
ATOM     12  O   UNL     1      -8.607  -0.462 126.220  0.00  0.00    +0.000 OA
ATOM     13  CA  UNL     1      -7.998   1.454 127.871  0.00  0.00    +0.000 C 
BRANCH   9  14
ATOM     14  C   UNL     1      -9.304   1.191 123.579  0.00  0.00    +0.000 C 
ATOM     15  OXT UNL     1     -10.477   1.428 123.329  0.00  0.00    +0.000 OA
BRANCH  14  16
ATOM     16  O   UNL     1      -8.744   0.054 123.121  0.00  0.00    +0.000 OA
ATOM     17  H   UNL     1      -7.765   0.023 123.094  0.00  0.00    +0.000 HD
ENDBRANCH  14  16
ENDBRANCH   9  14
BRANCH   8  18
ATOM     18  C   UNL     1      -7.725   3.435 122.493  0.00  0.00    +0.000 C 
BRANCH  18  19
ATOM     19  S   UNL     1      -6.285   2.822 121.556  0.00  0.00    +0.000 S 
BRANCH  19  20
ATOM     20  C   UNL     1      -5.463   4.231 121.012  0.00  0.00    +0.000 A 
ATOM     21  N   UNL     1      -4.601   4.938 121.707  0.00  0.00    +0.000 NA
ATOM     22  N   UNL     1      -4.396   6.093 120.987  0.00  0.00    +0.000 NA
ATOM     23  N   UNL     1      -5.136   6.107 119.886  0.00  0.00    +0.000 NA
ATOM     24  N   UNL     1      -5.805   4.941 119.901  0.00  0.00    +0.000 N 
ATOM     25  C   UNL     1      -6.753   4.626 118.871  0.00  0.00    +0.000 C 
ENDBRANCH  19  20
ENDBRANCH  18  19
ENDBRANCH   8  18
ENDBRANCH   1  13
BRANCH   2  26
ATOM     26  CA  UNL     1      -5.960  -0.102 130.836  0.00  0.00    +0.000 C 
BRANCH  26  27
ATOM     27  N   UNL     1      -5.151   1.125 131.034  0.00  0.00    +0.000 N 
ATOM     28  C   UNL     1      -5.472   2.001 132.048  0.00  0.00    +0.000 C 
ATOM     29  O   UNL     1      -6.472   1.804 132.735  0.00  0.00    +0.000 OA
ATOM     30  N   UNL     1      -4.688   3.126 132.177  0.00  0.00    +0.000 N 
ATOM     31  C   UNL     1      -4.112   3.870 131.061  0.00  0.00    +0.000 C 
ATOM     32  C   UNL     1      -4.322   5.382 131.246  0.00  0.00    +0.000 C 
ATOM     33  N   UNL     1      -3.754   5.830 132.515  0.00  0.00    +0.000 N 
ATOM     34  C   UNL     1      -3.828   4.977 133.627  0.00  0.00    +0.000 C 
ATOM     35  O   UNL     1      -3.359   5.222 134.733  0.00  0.00    +0.000 OA
ATOM     36  C   UNL     1      -4.509   3.611 133.466  0.00  0.00    +0.000 C 
ATOM     37  O   UNL     1      -4.771   2.999 134.498  0.00  0.00    +0.000 OA
ATOM     38  H   UNL     1      -4.252   1.185 130.584  0.00  0.00    +0.000 HD
BRANCH  33  39
ATOM     39  C   UNL     1      -3.244   7.213 132.615  0.00  0.00    +0.000 C 
ATOM     40  C   UNL     1      -1.755   7.397 132.348  0.00  0.00    +0.000 C 
ENDBRANCH  33  39
ENDBRANCH  26  27
BRANCH  26  41
ATOM     41  C   UNL     1      -5.081  -1.223 130.258  0.00  0.00    +0.000 A 
ATOM     42  C   UNL     1      -5.602  -2.255 129.453  0.00  0.00    +0.000 A 
ATOM     43  C   UNL     1      -4.765  -3.284 128.974  0.00  0.00    +0.000 A 
ATOM     44  C   UNL     1      -3.408  -3.274 129.285  0.00  0.00    +0.000 A 
ATOM     45  C   UNL     1      -2.878  -2.268 130.070  0.00  0.00    +0.000 A 
ATOM     46  C   UNL     1      -3.708  -1.268 130.559  0.00  0.00    +0.000 A 
BRANCH  44  47
ATOM     47  O   UNL     1      -2.534  -4.229 128.860  0.00  0.00    +0.000 OA
ATOM     48  H   UNL     1      -2.842  -5.106 129.138  0.00  0.00    +0.000 HD
ENDBRANCH  44  47
ENDBRANCH  26  41
ENDBRANCH   2  26
TORSDOF 11
ENDMDL
MODEL 6
REMARK VINA RESULT:      -8.3      3.603      9.183
REMARK  Name = Cefoperazone
REMARK  13 active torsions:
REMARK  status: ('A' for Active; 'I' for Inactive)
REMARK    1  A    between atoms: C_5  and  C_6
REMARK    2  A    between atoms: C_6  and  S_7
REMARK    3  A    between atoms: S_7  and  C_8
REMARK    4  A    between atoms: N_12  and  C_13
REMARK    5  A    between atoms: CA_14  and  C_44
REMARK    6  A    between atoms: CA_18  and  N_20
REMARK    7  A    between atoms: C_21  and  CA_23
REMARK    8  A    between atoms: CA_23  and  N_24
REMARK    9  A    between atoms: CA_23  and  C_37
REMARK   10  A    between atoms: N_30  and  C_31
REMARK   11  A    between atoms: C_31  and  C_32
REMARK   12  A    between atoms: C_40  and  O_41
REMARK   13  A    between atoms: C_44  and  O_45
REMARK                            x       y       z     vdW  Elec       q    Type
REMARK                         _______ _______ _______ _____ _____    ______ ____
ROOT
ATOM      1  N   UNL     1      -5.803   0.524 130.686  0.00  0.00    +0.000 N 
ATOM      2  C   UNL     1      -4.843   0.331 129.691  0.00  0.00    +0.000 C 
ATOM      3  O   UNL     1      -4.047   1.242 129.436  0.00  0.00    +0.000 OA
ATOM      4  H   UNL     1      -6.587  -0.120 130.767  0.00  0.00    +0.000 HD
ENDROOT
BRANCH   1  13
ATOM      5  C   UNL     1      -6.470   3.115 130.671  0.00  0.00    +0.000 C 
ATOM      6  S   UNL     1      -7.591   2.823 129.302  0.00  0.00    +0.000 S 
ATOM      7  C   UNL     1      -8.400   4.432 129.521  0.00  0.00    +0.000 C 
ATOM      8  C   UNL     1      -8.932   4.687 130.924  0.00  0.00    +0.000 C 
ATOM      9  CA  UNL     1      -8.377   4.088 132.022  0.00  0.00    +0.000 C 
ATOM     10  N   UNL     1      -7.241   3.313 131.898  0.00  0.00    +0.000 N 
ATOM     11  C   UNL     1      -6.932   2.101 132.438  0.00  0.00    +0.000 C 
ATOM     12  O   UNL     1      -7.407   1.555 133.396  0.00  0.00    +0.000 OA
ATOM     13  CA  UNL     1      -5.832   1.873 131.349  0.00  0.00    +0.000 C 
BRANCH   9  14
ATOM     14  C   UNL     1      -8.989   4.328 133.400  0.00  0.00    +0.000 C 
ATOM     15  OXT UNL     1      -9.819   3.584 133.904  0.00  0.00    +0.000 OA
BRANCH  14  16
ATOM     16  O   UNL     1      -8.676   5.486 134.014  0.00  0.00    +0.000 OA
ATOM     17  H   UNL     1      -8.352   6.214 133.445  0.00  0.00    +0.000 HD
ENDBRANCH  14  16
ENDBRANCH   9  14
BRANCH   8  18
ATOM     18  C   UNL     1     -10.140   5.651 131.027  0.00  0.00    +0.000 C 
BRANCH  18  19
ATOM     19  S   UNL     1      -9.958   7.193 130.071  0.00  0.00    +0.000 S 
BRANCH  19  20
ATOM     20  C   UNL     1     -10.693   6.876 128.549  0.00  0.00    +0.000 A 
ATOM     21  N   UNL     1     -10.075   6.813 127.392  0.00  0.00    +0.000 NA
ATOM     22  N   UNL     1     -11.067   6.793 126.437  0.00  0.00    +0.000 NA
ATOM     23  N   UNL     1     -12.268   6.869 126.995  0.00  0.00    +0.000 NA
ATOM     24  N   UNL     1     -12.035   6.922 128.318  0.00  0.00    +0.000 N 
ATOM     25  C   UNL     1     -13.118   7.059 129.249  0.00  0.00    +0.000 C 
ENDBRANCH  19  20
ENDBRANCH  18  19
ENDBRANCH   8  18
ENDBRANCH   1  13
BRANCH   2  26
ATOM     26  CA  UNL     1      -4.939  -0.965 128.798  0.00  0.00    +0.000 C 
BRANCH  26  27
ATOM     27  N   UNL     1      -6.132  -0.829 127.927  0.00  0.00    +0.000 N 
ATOM     28  C   UNL     1      -5.972  -0.685 126.566  0.00  0.00    +0.000 C 
ATOM     29  O   UNL     1      -4.844  -0.592 126.086  0.00  0.00    +0.000 OA
ATOM     30  N   UNL     1      -7.117  -0.555 125.810  0.00  0.00    +0.000 N 
ATOM     31  C   UNL     1      -8.315   0.161 126.234  0.00  0.00    +0.000 C 
ATOM     32  C   UNL     1      -8.833   1.073 125.109  0.00  0.00    +0.000 C 
ATOM     33  N   UNL     1      -9.093   0.301 123.898  0.00  0.00    +0.000 N 
ATOM     34  C   UNL     1      -8.245  -0.774 123.587  0.00  0.00    +0.000 C 
ATOM     35  O   UNL     1      -8.379  -1.518 122.621  0.00  0.00    +0.000 OA
ATOM     36  C   UNL     1      -7.075  -1.088 124.528  0.00  0.00    +0.000 C 
ATOM     37  O   UNL     1      -6.222  -1.866 124.110  0.00  0.00    +0.000 OA
ATOM     38  H   UNL     1      -7.032  -1.074 128.304  0.00  0.00    +0.000 HD
BRANCH  33  39
ATOM     39  C   UNL     1     -10.154   0.759 122.977  0.00  0.00    +0.000 C 
ATOM     40  C   UNL     1      -9.782   1.912 122.052  0.00  0.00    +0.000 C 
ENDBRANCH  33  39
ENDBRANCH  26  27
BRANCH  26  41
ATOM     41  C   UNL     1      -5.067  -2.226 129.668  0.00  0.00    +0.000 A 
ATOM     42  C   UNL     1      -6.244  -3.001 129.711  0.00  0.00    +0.000 A 
ATOM     43  C   UNL     1      -6.330  -4.130 130.552  0.00  0.00    +0.000 A 
ATOM     44  C   UNL     1      -5.238  -4.496 131.334  0.00  0.00    +0.000 A 
ATOM     45  C   UNL     1      -4.074  -3.752 131.302  0.00  0.00    +0.000 A 
ATOM     46  C   UNL     1      -3.999  -2.627 130.491  0.00  0.00    +0.000 A 
BRANCH  44  47
ATOM     47  O   UNL     1      -5.240  -5.573 132.169  0.00  0.00    +0.000 OA
ATOM     48  H   UNL     1      -4.605  -5.434 132.888  0.00  0.00    +0.000 HD
ENDBRANCH  44  47
ENDBRANCH  26  41
ENDBRANCH   2  26
TORSDOF 11
ENDMDL
MODEL 7
REMARK VINA RESULT:      -8.2      4.518      7.139
REMARK  Name = Cefoperazone
REMARK  13 active torsions:
REMARK  status: ('A' for Active; 'I' for Inactive)
REMARK    1  A    between atoms: C_5  and  C_6
REMARK    2  A    between atoms: C_6  and  S_7
REMARK    3  A    between atoms: S_7  and  C_8
REMARK    4  A    between atoms: N_12  and  C_13
REMARK    5  A    between atoms: CA_14  and  C_44
REMARK    6  A    between atoms: CA_18  and  N_20
REMARK    7  A    between atoms: C_21  and  CA_23
REMARK    8  A    between atoms: CA_23  and  N_24
REMARK    9  A    between atoms: CA_23  and  C_37
REMARK   10  A    between atoms: N_30  and  C_31
REMARK   11  A    between atoms: C_31  and  C_32
REMARK   12  A    between atoms: C_40  and  O_41
REMARK   13  A    between atoms: C_44  and  O_45
REMARK                            x       y       z     vdW  Elec       q    Type
REMARK                         _______ _______ _______ _____ _____    ______ ____
ROOT
ATOM      1  N   UNL     1      -6.650   3.114 131.567  0.00  0.00    +0.000 N 
ATOM      2  C   UNL     1      -7.351   4.246 131.148  0.00  0.00    +0.000 C 
ATOM      3  O   UNL     1      -8.513   4.414 131.536  0.00  0.00    +0.000 OA
ATOM      4  H   UNL     1      -5.783   2.853 131.101  0.00  0.00    +0.000 HD
ENDROOT
BRANCH   1  13
ATOM      5  C   UNL     1      -7.890   0.766 131.896  0.00  0.00    +0.000 C 
ATOM      6  S   UNL     1      -7.155   0.159 130.378  0.00  0.00    +0.000 S 
ATOM      7  C   UNL     1      -7.595  -1.559 130.760  0.00  0.00    +0.000 C 
ATOM      8  C   UNL     1      -7.106  -2.050 132.115  0.00  0.00    +0.000 C 
ATOM      9  CA  UNL     1      -6.894  -1.190 133.158  0.00  0.00    +0.000 C 
ATOM     10  N   UNL     1      -7.225   0.146 133.041  0.00  0.00    +0.000 N 
ATOM     11  C   UNL     1      -6.539   1.263 133.410  0.00  0.00    +0.000 C 
ATOM     12  O   UNL     1      -5.645   1.377 134.204  0.00  0.00    +0.000 OA
ATOM     13  CA  UNL     1      -7.394   2.136 132.433  0.00  0.00    +0.000 C 
BRANCH   9  14
ATOM     14  C   UNL     1      -6.342  -1.726 134.476  0.00  0.00    +0.000 C 
ATOM     15  OXT UNL     1      -7.053  -2.106 135.396  0.00  0.00    +0.000 OA
BRANCH  14  16
ATOM     16  O   UNL     1      -5.008  -1.649 134.656  0.00  0.00    +0.000 OA
ATOM     17  H   UNL     1      -4.571  -0.822 134.368  0.00  0.00    +0.000 HD
ENDBRANCH  14  16
ENDBRANCH   9  14
BRANCH   8  18
ATOM     18  C   UNL     1      -6.853  -3.574 132.232  0.00  0.00    +0.000 C 
BRANCH  18  19
ATOM     19  S   UNL     1      -5.447  -4.184 131.242  0.00  0.00    +0.000 S 
BRANCH  19  20
ATOM     20  C   UNL     1      -4.046  -3.510 131.978  0.00  0.00    +0.000 A 
ATOM     21  N   UNL     1      -3.519  -3.885 133.122  0.00  0.00    +0.000 NA
ATOM     22  N   UNL     1      -2.584  -2.925 133.437  0.00  0.00    +0.000 NA
ATOM     23  N   UNL     1      -2.556  -1.967 132.520  0.00  0.00    +0.000 NA
ATOM     24  N   UNL     1      -3.472  -2.332 131.606  0.00  0.00    +0.000 N 
ATOM     25  C   UNL     1      -3.753  -1.496 130.474  0.00  0.00    +0.000 C 
ENDBRANCH  19  20
ENDBRANCH  18  19
ENDBRANCH   8  18
ENDBRANCH   1  13
BRANCH   2  26
ATOM     26  CA  UNL     1      -6.702   5.162 130.040  0.00  0.00    +0.000 C 
BRANCH  26  27
ATOM     27  N   UNL     1      -6.578   4.357 128.801  0.00  0.00    +0.000 N 
ATOM     28  C   UNL     1      -7.640   4.276 127.927  0.00  0.00    +0.000 C 
ATOM     29  O   UNL     1      -8.712   4.807 128.213  0.00  0.00    +0.000 OA
ATOM     30  N   UNL     1      -7.466   3.507 126.798  0.00  0.00    +0.000 N 
ATOM     31  C   UNL     1      -6.706   2.263 126.748  0.00  0.00    +0.000 C 
ATOM     32  C   UNL     1      -7.483   1.177 125.986  0.00  0.00    +0.000 C 
ATOM     33  N   UNL     1      -7.819   1.633 124.640  0.00  0.00    +0.000 N 
ATOM     34  C   UNL     1      -8.141   2.985 124.444  0.00  0.00    +0.000 C 
ATOM     35  O   UNL     1      -8.404   3.494 123.361  0.00  0.00    +0.000 OA
ATOM     36  C   UNL     1      -8.135   3.928 125.655  0.00  0.00    +0.000 C 
ATOM     37  O   UNL     1      -8.648   5.032 125.498  0.00  0.00    +0.000 OA
ATOM     38  H   UNL     1      -5.658   4.075 128.502  0.00  0.00    +0.000 HD
BRANCH  33  39
ATOM     39  C   UNL     1      -7.938   0.630 123.561  0.00  0.00    +0.000 C 
ATOM     40  C   UNL     1      -9.343   0.107 123.286  0.00  0.00    +0.000 C 
ENDBRANCH  33  39
ENDBRANCH  26  27
BRANCH  26  41
ATOM     41  C   UNL     1      -5.318   5.664 130.481  0.00  0.00    +0.000 A 
ATOM     42  C   UNL     1      -5.142   6.548 131.565  0.00  0.00    +0.000 A 
ATOM     43  C   UNL     1      -3.856   7.012 131.912  0.00  0.00    +0.000 A 
ATOM     44  C   UNL     1      -2.747   6.583 131.189  0.00  0.00    +0.000 A 
ATOM     45  C   UNL     1      -2.898   5.714 130.126  0.00  0.00    +0.000 A 
ATOM     46  C   UNL     1      -4.168   5.275 129.771  0.00  0.00    +0.000 A 
BRANCH  44  47
ATOM     47  O   UNL     1      -1.473   6.983 131.462  0.00  0.00    +0.000 OA
ATOM     48  H   UNL     1      -1.489   7.811 131.967  0.00  0.00    +0.000 HD
ENDBRANCH  44  47
ENDBRANCH  26  41
ENDBRANCH   2  26
TORSDOF 11
ENDMDL
MODEL 8
REMARK VINA RESULT:      -8.1      5.974      9.886
REMARK  Name = Cefoperazone
REMARK  13 active torsions:
REMARK  status: ('A' for Active; 'I' for Inactive)
REMARK    1  A    between atoms: C_5  and  C_6
REMARK    2  A    between atoms: C_6  and  S_7
REMARK    3  A    between atoms: S_7  and  C_8
REMARK    4  A    between atoms: N_12  and  C_13
REMARK    5  A    between atoms: CA_14  and  C_44
REMARK    6  A    between atoms: CA_18  and  N_20
REMARK    7  A    between atoms: C_21  and  CA_23
REMARK    8  A    between atoms: CA_23  and  N_24
REMARK    9  A    between atoms: CA_23  and  C_37
REMARK   10  A    between atoms: N_30  and  C_31
REMARK   11  A    between atoms: C_31  and  C_32
REMARK   12  A    between atoms: C_40  and  O_41
REMARK   13  A    between atoms: C_44  and  O_45
REMARK                            x       y       z     vdW  Elec       q    Type
REMARK                         _______ _______ _______ _____ _____    ______ ____
ROOT
ATOM      1  N   UNL     1      -5.466  -2.221 129.035  0.00  0.00    +0.000 N 
ATOM      2  C   UNL     1      -5.546  -2.196 127.641  0.00  0.00    +0.000 C 
ATOM      3  O   UNL     1      -4.787  -2.915 126.981  0.00  0.00    +0.000 OA
ATOM      4  H   UNL     1      -5.926  -1.496 129.582  0.00  0.00    +0.000 HD
ENDROOT
BRANCH   1  13
ATOM      5  C   UNL     1      -3.421  -2.578 130.723  0.00  0.00    +0.000 C 
ATOM      6  S   UNL     1      -3.867  -1.073 131.589  0.00  0.00    +0.000 S 
ATOM      7  C   UNL     1      -2.802  -1.479 133.002  0.00  0.00    +0.000 C 
ATOM      8  C   UNL     1      -3.066  -2.844 133.621  0.00  0.00    +0.000 C 
ATOM      9  CA  UNL     1      -3.592  -3.875 132.891  0.00  0.00    +0.000 C 
ATOM     10  N   UNL     1      -3.798  -3.736 131.532  0.00  0.00    +0.000 N 
ATOM     11  C   UNL     1      -4.860  -4.092 130.757  0.00  0.00    +0.000 C 
ATOM     12  O   UNL     1      -5.730  -4.890 130.981  0.00  0.00    +0.000 OA
ATOM     13  CA  UNL     1      -4.405  -3.097 129.639  0.00  0.00    +0.000 C 
BRANCH   9  14
ATOM     14  C   UNL     1      -3.897  -5.204 133.576  0.00  0.00    +0.000 C 
ATOM     15  OXT UNL     1      -3.078  -6.105 133.687  0.00  0.00    +0.000 OA
BRANCH  14  16
ATOM     16  O   UNL     1      -5.173  -5.416 133.956  0.00  0.00    +0.000 OA
ATOM     17  H   UNL     1      -5.677  -6.089 133.454  0.00  0.00    +0.000 HD
ENDBRANCH  14  16
ENDBRANCH   9  14
BRANCH   8  18
ATOM     18  C   UNL     1      -2.716  -2.985 135.123  0.00  0.00    +0.000 C 
BRANCH  18  19
ATOM     19  S   UNL     1      -3.718  -1.941 136.233  0.00  0.00    +0.000 S 
BRANCH  19  20
ATOM     20  C   UNL     1      -5.350  -2.216 135.767  0.00  0.00    +0.000 A 
ATOM     21  N   UNL     1      -5.980  -3.368 135.806  0.00  0.00    +0.000 NA
ATOM     22  N   UNL     1      -7.156  -3.177 135.115  0.00  0.00    +0.000 NA
ATOM     23  N   UNL     1      -7.234  -1.941 134.640  0.00  0.00    +0.000 NA
ATOM     24  N   UNL     1      -6.104  -1.338 135.046  0.00  0.00    +0.000 N 
ATOM     25  C   UNL     1      -5.818   0.016 134.671  0.00  0.00    +0.000 C 
ENDBRANCH  19  20
ENDBRANCH  18  19
ENDBRANCH   8  18
ENDBRANCH   1  13
BRANCH   2  26
ATOM     26  CA  UNL     1      -6.463  -1.107 126.963  0.00  0.00    +0.000 C 
BRANCH  26  27
ATOM     27  N   UNL     1      -7.147  -0.353 128.041  0.00  0.00    +0.000 N 
ATOM     28  C   UNL     1      -7.130   1.024 128.031  0.00  0.00    +0.000 C 
ATOM     29  O   UNL     1      -6.483   1.624 127.174  0.00  0.00    +0.000 OA
ATOM     30  N   UNL     1      -7.777   1.667 129.063  0.00  0.00    +0.000 N 
ATOM     31  C   UNL     1      -7.813   1.196 130.443  0.00  0.00    +0.000 C 
ATOM     32  C   UNL     1      -7.522   2.345 131.422  0.00  0.00    +0.000 C 
ATOM     33  N   UNL     1      -8.466   3.442 131.224  0.00  0.00    +0.000 N 
ATOM     34  C   UNL     1      -8.904   3.731 129.923  0.00  0.00    +0.000 C 
ATOM     35  O   UNL     1      -9.719   4.600 129.632  0.00  0.00    +0.000 OA
ATOM     36  C   UNL     1      -8.366   2.888 128.758  0.00  0.00    +0.000 C 
ATOM     37  O   UNL     1      -8.574   3.313 127.625  0.00  0.00    +0.000 OA
ATOM     38  H   UNL     1      -7.803  -0.844 128.627  0.00  0.00    +0.000 HD
BRANCH  33  39
ATOM     39  C   UNL     1      -8.821   4.289 132.382  0.00  0.00    +0.000 C 
ATOM     40  C   UNL     1      -9.164   3.550 133.670  0.00  0.00    +0.000 C 
ENDBRANCH  33  39
ENDBRANCH  26  27
BRANCH  26  41
ATOM     41  C   UNL     1      -7.502  -1.760 126.037  0.00  0.00    +0.000 A 
ATOM     42  C   UNL     1      -8.631  -2.444 126.530  0.00  0.00    +0.000 A 
ATOM     43  C   UNL     1      -9.541  -3.059 125.645  0.00  0.00    +0.000 A 
ATOM     44  C   UNL     1      -9.332  -2.978 124.271  0.00  0.00    +0.000 A 
ATOM     45  C   UNL     1      -8.233  -2.308 123.769  0.00  0.00    +0.000 A 
ATOM     46  C   UNL     1      -7.326  -1.722 124.642  0.00  0.00    +0.000 A 
BRANCH  44  47
ATOM     47  O   UNL     1     -10.164  -3.543 123.351  0.00  0.00    +0.000 OA
ATOM     48  H   UNL     1     -11.055  -3.634 123.724  0.00  0.00    +0.000 HD
ENDBRANCH  44  47
ENDBRANCH  26  41
ENDBRANCH   2  26
TORSDOF 11
ENDMDL
MODEL 9
REMARK VINA RESULT:      -8.0      3.273      9.063
REMARK  Name = Cefoperazone
REMARK  13 active torsions:
REMARK  status: ('A' for Active; 'I' for Inactive)
REMARK    1  A    between atoms: C_5  and  C_6
REMARK    2  A    between atoms: C_6  and  S_7
REMARK    3  A    between atoms: S_7  and  C_8
REMARK    4  A    between atoms: N_12  and  C_13
REMARK    5  A    between atoms: CA_14  and  C_44
REMARK    6  A    between atoms: CA_18  and  N_20
REMARK    7  A    between atoms: C_21  and  CA_23
REMARK    8  A    between atoms: CA_23  and  N_24
REMARK    9  A    between atoms: CA_23  and  C_37
REMARK   10  A    between atoms: N_30  and  C_31
REMARK   11  A    between atoms: C_31  and  C_32
REMARK   12  A    between atoms: C_40  and  O_41
REMARK   13  A    between atoms: C_44  and  O_45
REMARK                            x       y       z     vdW  Elec       q    Type
REMARK                         _______ _______ _______ _____ _____    ______ ____
ROOT
ATOM      1  N   UNL     1      -7.601   3.736 127.104  0.00  0.00    +0.000 N 
ATOM      2  C   UNL     1      -8.288   4.018 125.921  0.00  0.00    +0.000 C 
ATOM      3  O   UNL     1      -8.970   5.047 125.850  0.00  0.00    +0.000 OA
ATOM      4  H   UNL     1      -7.211   2.808 127.255  0.00  0.00    +0.000 HD
ENDROOT
BRANCH   1  13
ATOM      5  C   UNL     1      -8.475   4.279 129.574  0.00  0.00    +0.000 C 
ATOM      6  S   UNL     1      -8.609   2.524 129.917  0.00  0.00    +0.000 S 
ATOM      7  C   UNL     1      -8.774   2.807 131.702  0.00  0.00    +0.000 C 
ATOM      8  C   UNL     1      -7.657   3.640 132.316  0.00  0.00    +0.000 C 
ATOM      9  CA  UNL     1      -6.953   4.553 131.579  0.00  0.00    +0.000 C 
ATOM     10  N   UNL     1      -7.312   4.824 130.273  0.00  0.00    +0.000 N 
ATOM     11  C   UNL     1      -6.546   4.965 129.155  0.00  0.00    +0.000 C 
ATOM     12  O   UNL     1      -5.374   5.211 129.065  0.00  0.00    +0.000 OA
ATOM     13  CA  UNL     1      -7.789   4.696 128.244  0.00  0.00    +0.000 C 
BRANCH   9  14
ATOM     14  C   UNL     1      -5.801   5.316 132.227  0.00  0.00    +0.000 C 
ATOM     15  OXT UNL     1      -5.962   6.300 132.935  0.00  0.00    +0.000 OA
BRANCH  14  16
ATOM     16  O   UNL     1      -4.552   4.942 131.884  0.00  0.00    +0.000 OA
ATOM     17  H   UNL     1      -3.828   5.218 132.484  0.00  0.00    +0.000 HD
ENDBRANCH  14  16
ENDBRANCH   9  14
BRANCH   8  18
ATOM     18  C   UNL     1      -7.363   3.380 133.813  0.00  0.00    +0.000 C 
BRANCH  18  19
ATOM     19  S   UNL     1      -6.522   1.797 134.153  0.00  0.00    +0.000 S 
BRANCH  19  20
ATOM     20  C   UNL     1      -4.949   1.963 133.479  0.00  0.00    +0.000 A 
ATOM     21  N   UNL     1      -3.963   2.668 133.985  0.00  0.00    +0.000 NA
ATOM     22  N   UNL     1      -2.998   2.722 133.004  0.00  0.00    +0.000 NA
ATOM     23  N   UNL     1      -3.394   2.085 131.909  0.00  0.00    +0.000 NA
ATOM     24  N   UNL     1      -4.616   1.610 132.205  0.00  0.00    +0.000 N 
ATOM     25  C   UNL     1      -5.383   0.896 131.225  0.00  0.00    +0.000 C 
ENDBRANCH  19  20
ENDBRANCH  18  19
ENDBRANCH   8  18
ENDBRANCH   1  13
BRANCH   2  26
ATOM     26  CA  UNL     1      -8.325   2.914 124.795  0.00  0.00    +0.000 C 
BRANCH  26  27
ATOM     27  N   UNL     1      -7.796   1.656 125.374  0.00  0.00    +0.000 N 
ATOM     28  C   UNL     1      -8.667   0.720 125.890  0.00  0.00    +0.000 C 
ATOM     29  O   UNL     1      -9.871   0.963 125.939  0.00  0.00    +0.000 OA
ATOM     30  N   UNL     1      -8.115  -0.425 126.420  0.00  0.00    +0.000 N 
ATOM     31  C   UNL     1      -6.859  -0.476 127.161  0.00  0.00    +0.000 C 
ATOM     32  C   UNL     1      -7.010  -1.320 128.436  0.00  0.00    +0.000 C 
ATOM     33  N   UNL     1      -7.475  -2.666 128.112  0.00  0.00    +0.000 N 
ATOM     34  C   UNL     1      -8.386  -2.831 127.057  0.00  0.00    +0.000 C 
ATOM     35  O   UNL     1      -8.821  -3.908 126.667  0.00  0.00    +0.000 OA
ATOM     36  C   UNL     1      -8.864  -1.588 126.294  0.00  0.00    +0.000 C 
ATOM     37  O   UNL     1      -9.830  -1.734 125.550  0.00  0.00    +0.000 OA
ATOM     38  H   UNL     1      -6.843   1.400 125.176  0.00  0.00    +0.000 HD
BRANCH  33  39
ATOM     39  C   UNL     1      -7.073  -3.786 128.988  0.00  0.00    +0.000 C 
ATOM     40  C   UNL     1      -5.903  -3.514 129.926  0.00  0.00    +0.000 C 
ENDBRANCH  33  39
ENDBRANCH  26  27
BRANCH  26  41
ATOM     41  C   UNL     1      -7.476   3.332 123.584  0.00  0.00    +0.000 A 
ATOM     42  C   UNL     1      -7.923   3.178 122.256  0.00  0.00    +0.000 A 
ATOM     43  C   UNL     1      -7.095   3.542 121.174  0.00  0.00    +0.000 A 
ATOM     44  C   UNL     1      -5.832   4.074 121.416  0.00  0.00    +0.000 A 
ATOM     45  C   UNL     1      -5.378   4.236 122.711  0.00  0.00    +0.000 A 
ATOM     46  C   UNL     1      -6.185   3.856 123.775  0.00  0.00    +0.000 A 
BRANCH  44  47
ATOM     47  O   UNL     1      -4.974   4.450 120.426  0.00  0.00    +0.000 OA
ATOM     48  H   UNL     1      -5.411   4.373 119.564  0.00  0.00    +0.000 HD
ENDBRANCH  44  47
ENDBRANCH  26  41
ENDBRANCH   2  26
TORSDOF 11
ENDMDL
