MODEL 1
REMARK VINA RESULT:      -6.8      0.000      0.000
REMARK  Name = Cefoxitin
REMARK  10 active torsions:
REMARK  status: ('A' for Active; 'I' for Inactive)
REMARK    1  A    between atoms: C_5  and  C_6
REMARK    2  A    between atoms: C_6  and  O_7
REMARK    3  A    between atoms: O_7  and  C_8
REMARK    4  A    between atoms: C_11  and  C_27
REMARK    5  A    between atoms: C_15  and  N_16
REMARK    6  A    between atoms: C_15  and  O_25
REMARK    7  A    between atoms: C_17  and  C_19
REMARK    8  A    between atoms: C_19  and  C_20
REMARK    9  A    between atoms: O_25  and  C_26
REMARK   10  A    between atoms: C_27  and  O_28
REMARK                            x       y       z     vdW  Elec       q    Type
REMARK                         _______ _______ _______ _____ _____    ______ ____
ROOT
ATOM      1  C   UNL     1      -4.802   2.335 126.189  0.00  0.00    +0.000 C 
ATOM      2  S   UNL     1      -5.713   0.994 126.972  0.00  0.00    +0.000 S 
ATOM      3  C   UNL     1      -6.190   0.189 125.431  0.00  0.00    +0.000 C 
ATOM      4  C   UNL     1      -6.718   1.103 124.346  0.00  0.00    +0.000 C 
ATOM      5  C   UNL     1      -6.461   2.441 124.285  0.00  0.00    +0.000 C 
ATOM      6  N   UNL     1      -5.629   3.034 125.209  0.00  0.00    +0.000 N 
ATOM      7  C   UNL     1      -5.683   4.230 125.862  0.00  0.00    +0.000 C 
ATOM      8  O   UNL     1      -6.310   5.214 125.565  0.00  0.00    +0.000 OA
ATOM      9  C   UNL     1      -4.604   3.728 126.960  0.00  0.00    +0.000 C 
ENDROOT
BRANCH   9  10
ATOM     10  N   UNL     1      -4.958   3.851 128.405  0.00  0.00    +0.000 N 
ATOM     11  C   UNL     1      -5.073   5.030 129.067  0.00  0.00    +0.000 C 
ATOM     12  O   UNL     1      -4.720   6.059 128.504  0.00  0.00    +0.000 OA
ATOM     13  H   UNL     1      -4.742   3.062 129.002  0.00  0.00    +0.000 HD
BRANCH  11  14
ATOM     14  C   UNL     1      -5.629   4.916 130.496  0.00  0.00    +0.000 C 
BRANCH  14  15
ATOM     15  C   UNL     1      -7.029   5.463 130.544  0.00  0.00    +0.000 A 
ATOM     16  C   UNL     1      -7.459   6.649 131.109  0.00  0.00    +0.000 A 
ATOM     17  C   UNL     1      -8.855   6.830 131.063  0.00  0.00    +0.000 A 
ATOM     18  C   UNL     1      -9.467   5.812 130.375  0.00  0.00    +0.000 A 
ATOM     19  S   UNL     1      -8.350   4.620 129.849  0.00  0.00    +0.000 S 
ENDBRANCH  14  15
ENDBRANCH  11  14
ENDBRANCH   9  10
BRANCH   9  20
ATOM     20  O   UNL     1      -3.283   4.324 126.774  0.00  0.00    +0.000 OA
ATOM     21  C   UNL     1      -2.216   3.568 127.345  0.00  0.00    +0.000 C 
ENDBRANCH   9  20
BRANCH   5  22
ATOM     22  C   UNL     1      -7.081   3.253 123.144  0.00  0.00    +0.000 C 
ATOM     23  O   UNL     1      -6.529   3.441 122.067  0.00  0.00    +0.000 OA
BRANCH  22  24
ATOM     24  O   UNL     1      -8.237   3.889 123.407  0.00  0.00    +0.000 OA
ATOM     25  H   UNL     1      -9.049   3.346 123.356  0.00  0.00    +0.000 HD
ENDBRANCH  22  24
ENDBRANCH   5  22
BRANCH   4  26
ATOM     26  C   UNL     1      -7.602   0.401 123.308  0.00  0.00    +0.000 C 
BRANCH  26  27
ATOM     27  O   UNL     1      -8.900   0.056 123.821  0.00  0.00    +0.000 OA
BRANCH  27  28
ATOM     28  C   UNL     1     -10.011   0.751 123.455  0.00  0.00    +0.000 C 
ATOM     29  N   UNL     1     -10.318   1.877 124.153  0.00  0.00    +0.000 N 
ATOM     30  O   UNL     1     -10.714   0.389 122.519  0.00  0.00    +0.000 OA
ATOM     31  H   UNL     1      -9.807   2.243 124.941  0.00  0.00    +0.000 HD
ATOM     32  H   UNL     1     -11.144   2.380 123.856  0.00  0.00    +0.000 HD
ENDBRANCH  27  28
ENDBRANCH  26  27
ENDBRANCH   4  26
TORSDOF 9
ENDMDL
MODEL 2
REMARK VINA RESULT:      -6.6      3.053      5.284
REMARK  Name = Cefoxitin
REMARK  10 active torsions:
REMARK  status: ('A' for Active; 'I' for Inactive)
REMARK    1  A    between atoms: C_5  and  C_6
REMARK    2  A    between atoms: C_6  and  O_7
REMARK    3  A    between atoms: O_7  and  C_8
REMARK    4  A    between atoms: C_11  and  C_27
REMARK    5  A    between atoms: C_15  and  N_16
REMARK    6  A    between atoms: C_15  and  O_25
REMARK    7  A    between atoms: C_17  and  C_19
REMARK    8  A    between atoms: C_19  and  C_20
REMARK    9  A    between atoms: O_25  and  C_26
REMARK   10  A    between atoms: C_27  and  O_28
REMARK                            x       y       z     vdW  Elec       q    Type
REMARK                         _______ _______ _______ _____ _____    ______ ____
ROOT
ATOM      1  C   UNL     1      -7.229   3.244 129.881  0.00  0.00    +0.000 C 
ATOM      2  S   UNL     1      -8.262   2.789 128.479  0.00  0.00    +0.000 S 
ATOM      3  C   UNL     1      -6.897   2.264 127.425  0.00  0.00    +0.000 C 
ATOM      4  C   UNL     1      -5.704   3.193 127.380  0.00  0.00    +0.000 C 
ATOM      5  C   UNL     1      -5.413   4.108 128.349  0.00  0.00    +0.000 C 
ATOM      6  N   UNL     1      -6.187   4.189 129.486  0.00  0.00    +0.000 N 
ATOM      7  C   UNL     1      -6.638   5.247 130.218  0.00  0.00    +0.000 C 
ATOM      8  O   UNL     1      -6.214   6.374 130.240  0.00  0.00    +0.000 OA
ATOM      9  C   UNL     1      -7.751   4.324 130.947  0.00  0.00    +0.000 C 
ENDROOT
BRANCH   9  10
ATOM     10  N   UNL     1      -9.172   4.783 130.925  0.00  0.00    +0.000 N 
ATOM     11  C   UNL     1      -9.612   5.932 131.497  0.00  0.00    +0.000 C 
ATOM     12  O   UNL     1      -8.846   6.568 132.209  0.00  0.00    +0.000 OA
ATOM     13  H   UNL     1      -9.885   4.072 130.825  0.00  0.00    +0.000 HD
BRANCH  11  14
ATOM     14  C   UNL     1     -11.076   6.287 131.186  0.00  0.00    +0.000 C 
BRANCH  14  15
ATOM     15  C   UNL     1     -11.156   7.019 129.874  0.00  0.00    +0.000 A 
ATOM     16  C   UNL     1     -10.202   7.836 129.297  0.00  0.00    +0.000 A 
ATOM     17  C   UNL     1     -10.621   8.445 128.099  0.00  0.00    +0.000 A 
ATOM     18  C   UNL     1     -11.868   8.009 127.727  0.00  0.00    +0.000 A 
ATOM     19  S   UNL     1     -12.540   6.914 128.867  0.00  0.00    +0.000 S 
ENDBRANCH  14  15
ENDBRANCH  11  14
ENDBRANCH   9  10
BRANCH   9  20
ATOM     20  O   UNL     1      -7.408   4.004 132.330  0.00  0.00    +0.000 OA
ATOM     21  C   UNL     1      -8.266   3.037 132.935  0.00  0.00    +0.000 C 
ENDBRANCH   9  20
BRANCH   5  22
ATOM     22  C   UNL     1      -4.185   5.003 128.164  0.00  0.00    +0.000 C 
ATOM     23  O   UNL     1      -3.073   4.730 128.600  0.00  0.00    +0.000 OA
BRANCH  22  24
ATOM     24  O   UNL     1      -4.389   6.208 127.599  0.00  0.00    +0.000 OA
ATOM     25  H   UNL     1      -3.589   6.685 127.302  0.00  0.00    +0.000 HD
ENDBRANCH  22  24
ENDBRANCH   5  22
BRANCH   4  26
ATOM     26  C   UNL     1      -4.837   3.043 126.123  0.00  0.00    +0.000 C 
BRANCH  26  27
ATOM     27  O   UNL     1      -4.850   4.215 125.292  0.00  0.00    +0.000 OA
BRANCH  27  28
ATOM     28  C   UNL     1      -6.017   4.746 124.838  0.00  0.00    +0.000 C 
ATOM     29  N   UNL     1      -6.696   4.066 123.875  0.00  0.00    +0.000 N 
ATOM     30  O   UNL     1      -6.460   5.798 125.285  0.00  0.00    +0.000 OA
ATOM     31  H   UNL     1      -6.405   3.204 123.442  0.00  0.00    +0.000 HD
ATOM     32  H   UNL     1      -7.565   4.478 123.561  0.00  0.00    +0.000 HD
ENDBRANCH  27  28
ENDBRANCH  26  27
ENDBRANCH   4  26
TORSDOF 9
ENDMDL
MODEL 3
REMARK VINA RESULT:      -6.5      2.514      3.166
REMARK  Name = Cefoxitin
REMARK  10 active torsions:
REMARK  status: ('A' for Active; 'I' for Inactive)
REMARK    1  A    between atoms: C_5  and  C_6
REMARK    2  A    between atoms: C_6  and  O_7
REMARK    3  A    between atoms: O_7  and  C_8
REMARK    4  A    between atoms: C_11  and  C_27
REMARK    5  A    between atoms: C_15  and  N_16
REMARK    6  A    between atoms: C_15  and  O_25
REMARK    7  A    between atoms: C_17  and  C_19
REMARK    8  A    between atoms: C_19  and  C_20
REMARK    9  A    between atoms: O_25  and  C_26
REMARK   10  A    between atoms: C_27  and  O_28
REMARK                            x       y       z     vdW  Elec       q    Type
REMARK                         _______ _______ _______ _____ _____    ______ ____
ROOT
ATOM      1  C   UNL     1      -6.902   2.605 127.542  0.00  0.00    +0.000 C 
ATOM      2  S   UNL     1      -7.793   1.051 127.723  0.00  0.00    +0.000 S 
ATOM      3  C   UNL     1      -7.142   0.305 126.217  0.00  0.00    +0.000 C 
ATOM      4  C   UNL     1      -7.145   1.189 124.989  0.00  0.00    +0.000 C 
ATOM      5  C   UNL     1      -7.184   2.552 125.030  0.00  0.00    +0.000 C 
ATOM      6  N   UNL     1      -7.159   3.213 126.239  0.00  0.00    +0.000 N 
ATOM      7  C   UNL     1      -7.817   4.315 126.699  0.00  0.00    +0.000 C 
ATOM      8  O   UNL     1      -8.357   5.182 126.060  0.00  0.00    +0.000 OA
ATOM      9  C   UNL     1      -7.465   3.939 128.233  0.00  0.00    +0.000 C 
ENDROOT
BRANCH   9  10
ATOM     10  N   UNL     1      -8.586   3.867 129.217  0.00  0.00    +0.000 N 
ATOM     11  C   UNL     1      -9.323   4.934 129.616  0.00  0.00    +0.000 C 
ATOM     12  O   UNL     1      -8.967   6.056 129.278  0.00  0.00    +0.000 OA
ATOM     13  H   UNL     1      -8.565   3.107 129.885  0.00  0.00    +0.000 HD
BRANCH  11  14
ATOM     14  C   UNL     1     -10.540   4.587 130.489  0.00  0.00    +0.000 C 
BRANCH  14  15
ATOM     15  C   UNL     1     -11.481   5.758 130.543  0.00  0.00    +0.000 A 
ATOM     16  C   UNL     1     -11.775   6.564 131.626  0.00  0.00    +0.000 A 
ATOM     17  C   UNL     1     -12.770   7.527 131.368  0.00  0.00    +0.000 A 
ATOM     18  C   UNL     1     -13.160   7.502 130.053  0.00  0.00    +0.000 A 
ATOM     19  S   UNL     1     -12.360   6.271 129.162  0.00  0.00    +0.000 S 
ENDBRANCH  14  15
ENDBRANCH  11  14
ENDBRANCH   9  10
BRANCH   9  20
ATOM     20  O   UNL     1      -6.427   4.792 128.805  0.00  0.00    +0.000 OA
ATOM     21  C   UNL     1      -5.918   4.334 130.057  0.00  0.00    +0.000 C 
ENDBRANCH   9  20
BRANCH   5  22
ATOM     22  C   UNL     1      -7.208   3.323 123.708  0.00  0.00    +0.000 C 
ATOM     23  O   UNL     1      -6.199   3.710 123.129  0.00  0.00    +0.000 OA
BRANCH  22  24
ATOM     24  O   UNL     1      -8.414   3.695 123.242  0.00  0.00    +0.000 OA
ATOM     25  H   UNL     1      -8.607   4.654 123.265  0.00  0.00    +0.000 HD
ENDBRANCH  22  24
ENDBRANCH   5  22
BRANCH   4  26
ATOM     26  C   UNL     1      -7.125   0.421 123.661  0.00  0.00    +0.000 C 
BRANCH  26  27
ATOM     27  O   UNL     1      -8.414  -0.100 123.297  0.00  0.00    +0.000 OA
BRANCH  27  28
ATOM     28  C   UNL     1      -8.641  -1.439 123.231  0.00  0.00    +0.000 C 
ATOM     29  N   UNL     1      -7.563  -2.268 123.175  0.00  0.00    +0.000 N 
ATOM     30  O   UNL     1      -9.777  -1.898 123.233  0.00  0.00    +0.000 OA
ATOM     31  H   UNL     1      -6.597  -1.981 123.156  0.00  0.00    +0.000 HD
ATOM     32  H   UNL     1      -7.759  -3.260 123.134  0.00  0.00    +0.000 HD
ENDBRANCH  27  28
ENDBRANCH  26  27
ENDBRANCH   4  26
TORSDOF 9
ENDMDL
MODEL 4
REMARK VINA RESULT:      -6.5      4.437      6.876
REMARK  Name = Cefoxitin
REMARK  10 active torsions:
REMARK  status: ('A' for Active; 'I' for Inactive)
REMARK    1  A    between atoms: C_5  and  C_6
REMARK    2  A    between atoms: C_6  and  O_7
REMARK    3  A    between atoms: O_7  and  C_8
REMARK    4  A    between atoms: C_11  and  C_27
REMARK    5  A    between atoms: C_15  and  N_16
REMARK    6  A    between atoms: C_15  and  O_25
REMARK    7  A    between atoms: C_17  and  C_19
REMARK    8  A    between atoms: C_19  and  C_20
REMARK    9  A    between atoms: O_25  and  C_26
REMARK   10  A    between atoms: C_27  and  O_28
REMARK                            x       y       z     vdW  Elec       q    Type
REMARK                         _______ _______ _______ _____ _____    ______ ____
ROOT
ATOM      1  C   UNL     1      -6.568   4.324 131.430  0.00  0.00    +0.000 C 
ATOM      2  S   UNL     1      -6.638   3.112 130.101  0.00  0.00    +0.000 S 
ATOM      3  C   UNL     1      -4.864   3.111 129.778  0.00  0.00    +0.000 C 
ATOM      4  C   UNL     1      -4.208   4.472 129.700  0.00  0.00    +0.000 C 
ATOM      5  C   UNL     1      -4.728   5.603 130.258  0.00  0.00    +0.000 C 
ATOM      6  N   UNL     1      -5.889   5.543 130.998  0.00  0.00    +0.000 N 
ATOM      7  C   UNL     1      -6.969   6.372 131.083  0.00  0.00    +0.000 C 
ATOM      8  O   UNL     1      -7.046   7.532 130.767  0.00  0.00    +0.000 OA
ATOM      9  C   UNL     1      -7.859   5.211 131.777  0.00  0.00    +0.000 C 
ENDROOT
BRANCH   9  10
ATOM     10  N   UNL     1      -9.186   4.885 131.173  0.00  0.00    +0.000 N 
ATOM     11  C   UNL     1     -10.270   5.699 131.224  0.00  0.00    +0.000 C 
ATOM     12  O   UNL     1     -10.225   6.697 131.932  0.00  0.00    +0.000 OA
ATOM     13  H   UNL     1      -9.411   3.905 131.057  0.00  0.00    +0.000 HD
BRANCH  11  14
ATOM     14  C   UNL     1     -11.465   5.236 130.375  0.00  0.00    +0.000 C 
BRANCH  14  15
ATOM     15  C   UNL     1     -11.829   6.303 129.380  0.00  0.00    +0.000 A 
ATOM     16  C   UNL     1     -13.087   6.787 129.074  0.00  0.00    +0.000 A 
ATOM     17  C   UNL     1     -13.097   7.730 128.028  0.00  0.00    +0.000 A 
ATOM     18  C   UNL     1     -11.824   8.023 127.608  0.00  0.00    +0.000 A 
ATOM     19  S   UNL     1     -10.637   7.106 128.445  0.00  0.00    +0.000 S 
ENDBRANCH  14  15
ENDBRANCH  11  14
ENDBRANCH   9  10
BRANCH   9  20
ATOM     20  O   UNL     1      -8.062   5.427 133.207  0.00  0.00    +0.000 OA
ATOM     21  C   UNL     1      -8.510   4.270 133.913  0.00  0.00    +0.000 C 
ENDBRANCH   9  20
BRANCH   5  22
ATOM     22  C   UNL     1      -3.970   6.921 130.081  0.00  0.00    +0.000 C 
ATOM     23  O   UNL     1      -3.094   7.308 130.845  0.00  0.00    +0.000 OA
BRANCH  22  24
ATOM     24  O   UNL     1      -4.394   7.741 129.102  0.00  0.00    +0.000 OA
ATOM     25  H   UNL     1      -5.363   7.824 129.000  0.00  0.00    +0.000 HD
ENDBRANCH  22  24
ENDBRANCH   5  22
BRANCH   4  26
ATOM     26  C   UNL     1      -2.893   4.492 128.909  0.00  0.00    +0.000 C 
BRANCH  26  27
ATOM     27  O   UNL     1      -3.096   4.442 127.487  0.00  0.00    +0.000 OA
BRANCH  27  28
ATOM     28  C   UNL     1      -2.707   3.363 126.756  0.00  0.00    +0.000 C 
ATOM     29  N   UNL     1      -1.389   3.248 126.440  0.00  0.00    +0.000 N 
ATOM     30  O   UNL     1      -3.508   2.508 126.398  0.00  0.00    +0.000 OA
ATOM     31  H   UNL     1      -0.663   3.905 126.680  0.00  0.00    +0.000 HD
ATOM     32  H   UNL     1      -1.124   2.433 125.903  0.00  0.00    +0.000 HD
ENDBRANCH  27  28
ENDBRANCH  26  27
ENDBRANCH   4  26
TORSDOF 9
ENDMDL
MODEL 5
REMARK VINA RESULT:      -6.4      5.254      8.529
REMARK  Name = Cefoxitin
REMARK  10 active torsions:
REMARK  status: ('A' for Active; 'I' for Inactive)
REMARK    1  A    between atoms: C_5  and  C_6
REMARK    2  A    between atoms: C_6  and  O_7
REMARK    3  A    between atoms: O_7  and  C_8
REMARK    4  A    between atoms: C_11  and  C_27
REMARK    5  A    between atoms: C_15  and  N_16
REMARK    6  A    between atoms: C_15  and  O_25
REMARK    7  A    between atoms: C_17  and  C_19
REMARK    8  A    between atoms: C_19  and  C_20
REMARK    9  A    between atoms: O_25  and  C_26
REMARK   10  A    between atoms: C_27  and  O_28
REMARK                            x       y       z     vdW  Elec       q    Type
REMARK                         _______ _______ _______ _____ _____    ______ ____
ROOT
ATOM      1  C   UNL     1      -7.033   0.477 130.080  0.00  0.00    +0.000 C 
ATOM      2  S   UNL     1      -7.639   1.232 128.562  0.00  0.00    +0.000 S 
ATOM      3  C   UNL     1      -7.428   2.933 129.122  0.00  0.00    +0.000 C 
ATOM      4  C   UNL     1      -7.925   3.233 130.519  0.00  0.00    +0.000 C 
ATOM      5  C   UNL     1      -8.100   2.287 131.486  0.00  0.00    +0.000 C 
ATOM      6  N   UNL     1      -7.761   0.973 131.245  0.00  0.00    +0.000 N 
ATOM      7  C   UNL     1      -8.355  -0.207 131.582  0.00  0.00    +0.000 C 
ATOM      8  O   UNL     1      -9.166  -0.413 132.450  0.00  0.00    +0.000 OA
ATOM      9  C   UNL     1      -7.489  -1.010 130.476  0.00  0.00    +0.000 C 
ENDROOT
BRANCH   9  10
ATOM     10  N   UNL     1      -8.218  -1.865 129.492  0.00  0.00    +0.000 N 
ATOM     11  C   UNL     1      -7.631  -2.499 128.447  0.00  0.00    +0.000 C 
ATOM     12  O   UNL     1      -6.461  -2.246 128.186  0.00  0.00    +0.000 OA
ATOM     13  H   UNL     1      -9.204  -1.677 129.360  0.00  0.00    +0.000 HD
BRANCH  11  14
ATOM     14  C   UNL     1      -8.547  -3.469 127.683  0.00  0.00    +0.000 C 
BRANCH  14  15
ATOM     15  C   UNL     1      -8.601  -3.084 126.230  0.00  0.00    +0.000 A 
ATOM     16  C   UNL     1      -8.371  -3.888 125.129  0.00  0.00    +0.000 A 
ATOM     17  C   UNL     1      -8.415  -3.199 123.902  0.00  0.00    +0.000 A 
ATOM     18  C   UNL     1      -8.771  -1.885 124.078  0.00  0.00    +0.000 A 
ATOM     19  S   UNL     1      -8.988  -1.489 125.735  0.00  0.00    +0.000 S 
ENDBRANCH  14  15
ENDBRANCH  11  14
ENDBRANCH   9  10
BRANCH   9  20
ATOM     20  O   UNL     1      -6.424  -1.819 131.063  0.00  0.00    +0.000 OA
ATOM     21  C   UNL     1      -6.880  -3.015 131.694  0.00  0.00    +0.000 C 
ENDBRANCH   9  20
BRANCH   5  22
ATOM     22  C   UNL     1      -8.634   2.727 132.852  0.00  0.00    +0.000 C 
ATOM     23  O   UNL     1      -7.915   3.042 133.793  0.00  0.00    +0.000 OA
BRANCH  22  24
ATOM     24  O   UNL     1      -9.963   2.634 133.045  0.00  0.00    +0.000 OA
ATOM     25  H   UNL     1     -10.447   2.046 132.431  0.00  0.00    +0.000 HD
ENDBRANCH  22  24
ENDBRANCH   5  22
BRANCH   4  26
ATOM     26  C   UNL     1      -8.248   4.712 130.767  0.00  0.00    +0.000 C 
BRANCH  26  27
ATOM     27  O   UNL     1      -9.415   5.157 130.056  0.00  0.00    +0.000 OA
BRANCH  27  28
ATOM     28  C   UNL     1     -10.663   4.969 130.561  0.00  0.00    +0.000 C 
ATOM     29  N   UNL     1     -10.904   5.375 131.837  0.00  0.00    +0.000 N 
ATOM     30  O   UNL     1     -11.556   4.462 129.893  0.00  0.00    +0.000 OA
ATOM     31  H   UNL     1     -10.231   5.789 132.463  0.00  0.00    +0.000 HD
ATOM     32  H   UNL     1     -11.842   5.232 132.186  0.00  0.00    +0.000 HD
ENDBRANCH  27  28
ENDBRANCH  26  27
ENDBRANCH   4  26
TORSDOF 9
ENDMDL
MODEL 6
REMARK VINA RESULT:      -6.2      2.266      2.999
REMARK  Name = Cefoxitin
REMARK  10 active torsions:
REMARK  status: ('A' for Active; 'I' for Inactive)
REMARK    1  A    between atoms: C_5  and  C_6
REMARK    2  A    between atoms: C_6  and  O_7
REMARK    3  A    between atoms: O_7  and  C_8
REMARK    4  A    between atoms: C_11  and  C_27
REMARK    5  A    between atoms: C_15  and  N_16
REMARK    6  A    between atoms: C_15  and  O_25
REMARK    7  A    between atoms: C_17  and  C_19
REMARK    8  A    between atoms: C_19  and  C_20
REMARK    9  A    between atoms: O_25  and  C_26
REMARK   10  A    between atoms: C_27  and  O_28
REMARK                            x       y       z     vdW  Elec       q    Type
REMARK                         _______ _______ _______ _____ _____    ______ ____
ROOT
ATOM      1  C   UNL     1      -4.790   2.138 126.189  0.00  0.00    +0.000 C 
ATOM      2  S   UNL     1      -5.790   1.134 127.300  0.00  0.00    +0.000 S 
ATOM      3  C   UNL     1      -6.563   0.157 125.997  0.00  0.00    +0.000 C 
ATOM      4  C   UNL     1      -7.075   0.936 124.805  0.00  0.00    +0.000 C 
ATOM      5  C   UNL     1      -6.631   2.179 124.458  0.00  0.00    +0.000 C 
ATOM      6  N   UNL     1      -5.614   2.778 125.169  0.00  0.00    +0.000 N 
ATOM      7  C   UNL     1      -5.411   4.064 125.575  0.00  0.00    +0.000 C 
ATOM      8  O   UNL     1      -5.915   5.071 125.147  0.00  0.00    +0.000 OA
ATOM      9  C   UNL     1      -4.295   3.594 126.649  0.00  0.00    +0.000 C 
ENDROOT
BRANCH   9  10
ATOM     10  N   UNL     1      -4.451   4.033 128.068  0.00  0.00    +0.000 N 
ATOM     11  C   UNL     1      -4.449   5.329 128.471  0.00  0.00    +0.000 C 
ATOM     12  O   UNL     1      -4.151   6.198 127.661  0.00  0.00    +0.000 OA
ATOM     13  H   UNL     1      -4.175   3.377 128.787  0.00  0.00    +0.000 HD
BRANCH  11  14
ATOM     14  C   UNL     1      -4.812   5.544 129.949  0.00  0.00    +0.000 C 
BRANCH  14  15
ATOM     15  C   UNL     1      -3.590   5.964 130.719  0.00  0.00    +0.000 A 
ATOM     16  C   UNL     1      -2.501   5.190 131.073  0.00  0.00    +0.000 A 
ATOM     17  C   UNL     1      -1.558   5.863 131.873  0.00  0.00    +0.000 A 
ATOM     18  C   UNL     1      -1.899   7.182 132.044  0.00  0.00    +0.000 A 
ATOM     19  S   UNL     1      -3.390   7.570 131.284  0.00  0.00    +0.000 S 
ENDBRANCH  14  15
ENDBRANCH  11  14
ENDBRANCH   9  10
BRANCH   9  20
ATOM     20  O   UNL     1      -2.932   3.914 126.232  0.00  0.00    +0.000 OA
ATOM     21  C   UNL     1      -1.921   3.208 126.950  0.00  0.00    +0.000 C 
ENDBRANCH   9  20
BRANCH   5  22
ATOM     22  C   UNL     1      -7.255   2.864 123.239  0.00  0.00    +0.000 C 
ATOM     23  O   UNL     1      -6.815   2.758 122.101  0.00  0.00    +0.000 OA
BRANCH  22  24
ATOM     24  O   UNL     1      -8.263   3.724 123.474  0.00  0.00    +0.000 OA
ATOM     25  H   UNL     1      -8.953   3.779 122.782  0.00  0.00    +0.000 HD
ENDBRANCH  22  24
ENDBRANCH   5  22
BRANCH   4  26
ATOM     26  C   UNL     1      -8.173   0.218 124.009  0.00  0.00    +0.000 C 
BRANCH  26  27
ATOM     27  O   UNL     1      -7.977  -1.204 123.945  0.00  0.00    +0.000 OA
BRANCH  27  28
ATOM     28  C   UNL     1      -8.983  -2.069 124.245  0.00  0.00    +0.000 C 
ATOM     29  N   UNL     1      -9.269  -3.051 123.348  0.00  0.00    +0.000 N 
ATOM     30  O   UNL     1      -9.610  -1.984 125.293  0.00  0.00    +0.000 OA
ATOM     31  H   UNL     1      -8.816  -3.190 122.458  0.00  0.00    +0.000 HD
ATOM     32  H   UNL     1     -10.015  -3.687 123.598  0.00  0.00    +0.000 HD
ENDBRANCH  27  28
ENDBRANCH  26  27
ENDBRANCH   4  26
TORSDOF 9
ENDMDL
MODEL 7
REMARK VINA RESULT:      -6.1      2.372      2.869
REMARK  Name = Cefoxitin
REMARK  10 active torsions:
REMARK  status: ('A' for Active; 'I' for Inactive)
REMARK    1  A    between atoms: C_5  and  C_6
REMARK    2  A    between atoms: C_6  and  O_7
REMARK    3  A    between atoms: O_7  and  C_8
REMARK    4  A    between atoms: C_11  and  C_27
REMARK    5  A    between atoms: C_15  and  N_16
REMARK    6  A    between atoms: C_15  and  O_25
REMARK    7  A    between atoms: C_17  and  C_19
REMARK    8  A    between atoms: C_19  and  C_20
REMARK    9  A    between atoms: O_25  and  C_26
REMARK   10  A    between atoms: C_27  and  O_28
REMARK                            x       y       z     vdW  Elec       q    Type
REMARK                         _______ _______ _______ _____ _____    ______ ____
ROOT
ATOM      1  C   UNL     1      -6.595   2.640 127.161  0.00  0.00    +0.000 C 
ATOM      2  S   UNL     1      -7.264   1.008 127.522  0.00  0.00    +0.000 S 
ATOM      3  C   UNL     1      -6.753   0.265 125.960  0.00  0.00    +0.000 C 
ATOM      4  C   UNL     1      -7.035   1.083 124.718  0.00  0.00    +0.000 C 
ATOM      5  C   UNL     1      -7.226   2.434 124.722  0.00  0.00    +0.000 C 
ATOM      6  N   UNL     1      -7.105   3.151 125.892  0.00  0.00    +0.000 N 
ATOM      7  C   UNL     1      -7.814   4.195 126.407  0.00  0.00    +0.000 C 
ATOM      8  O   UNL     1      -8.538   4.965 125.828  0.00  0.00    +0.000 OA
ATOM      9  C   UNL     1      -7.205   3.936 127.885  0.00  0.00    +0.000 C 
ENDROOT
BRANCH   9  10
ATOM     10  N   UNL     1      -8.157   3.788 129.025  0.00  0.00    +0.000 N 
ATOM     11  C   UNL     1      -9.019   4.754 129.431  0.00  0.00    +0.000 C 
ATOM     12  O   UNL     1      -8.921   5.874 128.946  0.00  0.00    +0.000 OA
ATOM     13  H   UNL     1      -7.912   3.124 129.748  0.00  0.00    +0.000 HD
BRANCH  11  14
ATOM     14  C   UNL     1     -10.029   4.308 130.502  0.00  0.00    +0.000 C 
BRANCH  14  15
ATOM     15  C   UNL     1      -9.401   4.400 131.865  0.00  0.00    +0.000 A 
ATOM     16  C   UNL     1      -9.334   3.420 132.838  0.00  0.00    +0.000 A 
ATOM     17  C   UNL     1      -8.752   3.853 134.045  0.00  0.00    +0.000 A 
ATOM     18  C   UNL     1      -8.295   5.143 133.944  0.00  0.00    +0.000 A 
ATOM     19  S   UNL     1      -8.633   5.833 132.409  0.00  0.00    +0.000 S 
ENDBRANCH  14  15
ENDBRANCH  11  14
ENDBRANCH   9  10
BRANCH   9  20
ATOM     20  O   UNL     1      -6.202   4.926 128.269  0.00  0.00    +0.000 OA
ATOM     21  C   UNL     1      -5.582   4.670 129.528  0.00  0.00    +0.000 C 
ENDBRANCH   9  20
BRANCH   5  22
ATOM     22  C   UNL     1      -7.528   3.132 123.393  0.00  0.00    +0.000 C 
ATOM     23  O   UNL     1      -6.663   3.552 122.634  0.00  0.00    +0.000 OA
BRANCH  22  24
ATOM     24  O   UNL     1      -8.820   3.402 123.128  0.00  0.00    +0.000 OA
ATOM     25  H   UNL     1      -9.307   3.896 123.817  0.00  0.00    +0.000 HD
ENDBRANCH  22  24
ENDBRANCH   5  22
BRANCH   4  26
ATOM     26  C   UNL     1      -7.116   0.258 123.428  0.00  0.00    +0.000 C 
BRANCH  26  27
ATOM     27  O   UNL     1      -8.427  -0.281 123.190  0.00  0.00    +0.000 OA
BRANCH  27  28
ATOM     28  C   UNL     1      -8.672  -1.615 123.293  0.00  0.00    +0.000 C 
ATOM     29  N   UNL     1      -7.622  -2.437 123.561  0.00  0.00    +0.000 N 
ATOM     30  O   UNL     1      -9.801  -2.072 123.163  0.00  0.00    +0.000 OA
ATOM     31  H   UNL     1      -6.661  -2.154 123.671  0.00  0.00    +0.000 HD
ATOM     32  H   UNL     1      -7.831  -3.424 123.641  0.00  0.00    +0.000 HD
ENDBRANCH  27  28
ENDBRANCH  26  27
ENDBRANCH   4  26
TORSDOF 9
ENDMDL
MODEL 8
REMARK VINA RESULT:      -6.0      2.207      2.471
REMARK  Name = Cefoxitin
REMARK  10 active torsions:
REMARK  status: ('A' for Active; 'I' for Inactive)
REMARK    1  A    between atoms: C_5  and  C_6
REMARK    2  A    between atoms: C_6  and  O_7
REMARK    3  A    between atoms: O_7  and  C_8
REMARK    4  A    between atoms: C_11  and  C_27
REMARK    5  A    between atoms: C_15  and  N_16
REMARK    6  A    between atoms: C_15  and  O_25
REMARK    7  A    between atoms: C_17  and  C_19
REMARK    8  A    between atoms: C_19  and  C_20
REMARK    9  A    between atoms: O_25  and  C_26
REMARK   10  A    between atoms: C_27  and  O_28
REMARK                            x       y       z     vdW  Elec       q    Type
REMARK                         _______ _______ _______ _____ _____    ______ ____
ROOT
ATOM      1  C   UNL     1      -5.448   3.021 126.934  0.00  0.00    +0.000 C 
ATOM      2  S   UNL     1      -5.356   1.314 127.497  0.00  0.00    +0.000 S 
ATOM      3  C   UNL     1      -5.608   0.583 125.868  0.00  0.00    +0.000 C 
ATOM      4  C   UNL     1      -6.725   1.184 125.042  0.00  0.00    +0.000 C 
ATOM      5  C   UNL     1      -7.229   2.436 125.237  0.00  0.00    +0.000 C 
ATOM      6  N   UNL     1      -6.681   3.267 126.190  0.00  0.00    +0.000 N 
ATOM      7  C   UNL     1      -7.237   4.140 127.077  0.00  0.00    +0.000 C 
ATOM      8  O   UNL     1      -8.331   4.645 127.043  0.00  0.00    +0.000 OA
ATOM      9  C   UNL     1      -5.877   4.182 127.955  0.00  0.00    +0.000 C 
ENDROOT
BRANCH   9  10
ATOM     10  N   UNL     1      -5.974   3.904 129.419  0.00  0.00    +0.000 N 
ATOM     11  C   UNL     1      -6.713   4.638 130.289  0.00  0.00    +0.000 C 
ATOM     12  O   UNL     1      -7.216   5.684 129.899  0.00  0.00    +0.000 OA
ATOM     13  H   UNL     1      -5.199   3.413 129.847  0.00  0.00    +0.000 HD
BRANCH  11  14
ATOM     14  C   UNL     1      -6.807   4.052 131.708  0.00  0.00    +0.000 C 
BRANCH  14  15
ATOM     15  C   UNL     1      -7.851   2.971 131.746  0.00  0.00    +0.000 A 
ATOM     16  C   UNL     1      -9.223   3.116 131.820  0.00  0.00    +0.000 A 
ATOM     17  C   UNL     1      -9.922   1.898 131.927  0.00  0.00    +0.000 A 
ATOM     18  C   UNL     1      -9.070   0.825 131.841  0.00  0.00    +0.000 A 
ATOM     19  S   UNL     1      -7.429   1.309 131.693  0.00  0.00    +0.000 S 
ENDBRANCH  14  15
ENDBRANCH  11  14
ENDBRANCH   9  10
BRANCH   9  20
ATOM     20  O   UNL     1      -5.129   5.424 127.786  0.00  0.00    +0.000 OA
ATOM     21  C   UNL     1      -3.854   5.430 128.428  0.00  0.00    +0.000 C 
ENDBRANCH   9  20
BRANCH   5  22
ATOM     22  C   UNL     1      -8.378   2.909 124.342  0.00  0.00    +0.000 C 
ATOM     23  O   UNL     1      -8.219   3.582 123.331  0.00  0.00    +0.000 OA
BRANCH  22  24
ATOM     24  O   UNL     1      -9.628   2.669 124.780  0.00  0.00    +0.000 OA
ATOM     25  H   UNL     1      -9.919   3.187 125.558  0.00  0.00    +0.000 HD
ENDBRANCH  22  24
ENDBRANCH   5  22
BRANCH   4  26
ATOM     26  C   UNL     1      -7.279   0.248 123.959  0.00  0.00    +0.000 C 
BRANCH  26  27
ATOM     27  O   UNL     1      -8.609  -0.214 124.246  0.00  0.00    +0.000 OA
BRANCH  27  28
ATOM     28  C   UNL     1      -9.462  -0.572 123.250  0.00  0.00    +0.000 C 
ATOM     29  N   UNL     1     -10.080   0.420 122.552  0.00  0.00    +0.000 N 
ATOM     30  O   UNL     1      -9.667  -1.747 122.972  0.00  0.00    +0.000 OA
ATOM     31  H   UNL     1      -9.982   1.409 122.717  0.00  0.00    +0.000 HD
ATOM     32  H   UNL     1     -10.703   0.128 121.811  0.00  0.00    +0.000 HD
ENDBRANCH  27  28
ENDBRANCH  26  27
ENDBRANCH   4  26
TORSDOF 9
ENDMDL
MODEL 9
REMARK VINA RESULT:      -5.9      5.588      8.145
REMARK  Name = Cefoxitin
REMARK  10 active torsions:
REMARK  status: ('A' for Active; 'I' for Inactive)
REMARK    1  A    between atoms: C_5  and  C_6
REMARK    2  A    between atoms: C_6  and  O_7
REMARK    3  A    between atoms: O_7  and  C_8
REMARK    4  A    between atoms: C_11  and  C_27
REMARK    5  A    between atoms: C_15  and  N_16
REMARK    6  A    between atoms: C_15  and  O_25
REMARK    7  A    between atoms: C_17  and  C_19
REMARK    8  A    between atoms: C_19  and  C_20
REMARK    9  A    between atoms: O_25  and  C_26
REMARK   10  A    between atoms: C_27  and  O_28
REMARK                            x       y       z     vdW  Elec       q    Type
REMARK                         _______ _______ _______ _____ _____    ______ ____
ROOT
ATOM      1  C   UNL     1      -7.712   3.958 131.859  0.00  0.00    +0.000 C 
ATOM      2  S   UNL     1      -6.642   4.638 130.581  0.00  0.00    +0.000 S 
ATOM      3  C   UNL     1      -7.404   6.272 130.572  0.00  0.00    +0.000 C 
ATOM      4  C   UNL     1      -8.917   6.294 130.564  0.00  0.00    +0.000 C 
ATOM      5  C   UNL     1      -9.697   5.256 130.983  0.00  0.00    +0.000 C 
ATOM      6  N   UNL     1      -9.121   4.121 131.510  0.00  0.00    +0.000 N 
ATOM      7  C   UNL     1      -9.412   2.795 131.377  0.00  0.00    +0.000 C 
ATOM      8  O   UNL     1     -10.443   2.290 131.013  0.00  0.00    +0.000 OA
ATOM      9  C   UNL     1      -7.955   2.374 131.944  0.00  0.00    +0.000 C 
ENDROOT
BRANCH   9  10
ATOM     10  N   UNL     1      -7.125   1.436 131.130  0.00  0.00    +0.000 N 
ATOM     11  C   UNL     1      -7.527   0.199 130.744  0.00  0.00    +0.000 C 
ATOM     12  O   UNL     1      -8.565  -0.256 131.208  0.00  0.00    +0.000 OA
ATOM     13  H   UNL     1      -6.121   1.547 131.180  0.00  0.00    +0.000 HD
BRANCH  11  14
ATOM     14  C   UNL     1      -6.581  -0.507 129.758  0.00  0.00    +0.000 C 
BRANCH  14  15
ATOM     15  C   UNL     1      -6.182  -1.850 130.306  0.00  0.00    +0.000 A 
ATOM     16  C   UNL     1      -6.743  -3.082 130.030  0.00  0.00    +0.000 A 
ATOM     17  C   UNL     1      -6.192  -4.141 130.777  0.00  0.00    +0.000 A 
ATOM     18  C   UNL     1      -5.145  -3.711 131.554  0.00  0.00    +0.000 A 
ATOM     19  S   UNL     1      -4.883  -2.020 131.413  0.00  0.00    +0.000 S 
ENDBRANCH  14  15
ENDBRANCH  11  14
ENDBRANCH   9  10
BRANCH   9  20
ATOM     20  O   UNL     1      -8.003   1.855 133.308  0.00  0.00    +0.000 OA
ATOM     21  C   UNL     1      -6.722   1.572 133.870  0.00  0.00    +0.000 C 
ENDBRANCH   9  20
BRANCH   5  22
ATOM     22  C   UNL     1     -11.218   5.403 130.896  0.00  0.00    +0.000 C 
ATOM     23  O   UNL     1     -11.859   5.240 129.864  0.00  0.00    +0.000 OA
BRANCH  22  24
ATOM     24  O   UNL     1     -11.849   5.861 131.993  0.00  0.00    +0.000 OA
ATOM     25  H   UNL     1     -12.530   6.548 131.843  0.00  0.00    +0.000 HD
ENDBRANCH  22  24
ENDBRANCH   5  22
BRANCH   4  26
ATOM     26  C   UNL     1      -9.524   7.591 130.014  0.00  0.00    +0.000 C 
BRANCH  26  27
ATOM     27  O   UNL     1      -9.725   7.555 128.592  0.00  0.00    +0.000 OA
BRANCH  27  28
ATOM     28  C   UNL     1     -10.847   8.074 128.024  0.00  0.00    +0.000 C 
ATOM     29  N   UNL     1     -11.913   8.326 128.832  0.00  0.00    +0.000 N 
ATOM     30  O   UNL     1     -10.904   8.323 126.826  0.00  0.00    +0.000 OA
ATOM     31  H   UNL     1     -11.961   8.143 129.822  0.00  0.00    +0.000 HD
ATOM     32  H   UNL     1     -12.732   8.719 128.387  0.00  0.00    +0.000 HD
ENDBRANCH  27  28
ENDBRANCH  26  27
ENDBRANCH   4  26
TORSDOF 9
ENDMDL
