MODEL 1
REMARK VINA RESULT:      -7.4      0.000      0.000
REMARK  Name = Cefotetan
REMARK  13 active torsions:
REMARK  status: ('A' for Active; 'I' for Inactive)
REMARK    1  A    between atoms: C_5  and  C_6
REMARK    2  A    between atoms: C_6  and  S_7
REMARK    3  A    between atoms: S_7  and  C_8
REMARK    4  A    between atoms: N_12  and  C_13
REMARK    5  A    between atoms: C_14  and  C_35
REMARK    6  A    between atoms: C_18  and  N_19
REMARK    7  A    between atoms: C_18  and  O_33
REMARK    8  A    between atoms: C_20  and  C_22
REMARK    9  A    between atoms: C_26  and  C_27
REMARK   10  A    between atoms: C_26  and  C_30
REMARK   11  A    between atoms: C_30  and  O_31
REMARK   12  A    between atoms: O_33  and  C_34
REMARK   13  A    between atoms: C_35  and  O_36
REMARK                            x       y       z     vdW  Elec       q    Type
REMARK                         _______ _______ _______ _____ _____    ______ ____
ROOT
ATOM      1  C   UNL     1      -4.722   2.369 126.176  0.00  0.00    +0.000 C 
ATOM      2  S   UNL     1      -5.588   1.106 127.093  0.00  0.00    +0.000 S 
ATOM      3  C   UNL     1      -6.262   0.303 125.654  0.00  0.00    +0.000 C 
ATOM      4  C   UNL     1      -6.856   1.178 124.566  0.00  0.00    +0.000 C 
ATOM      5  C   UNL     1      -6.532   2.497 124.416  0.00  0.00    +0.000 C 
ATOM      6  N   UNL     1      -5.589   3.072 125.237  0.00  0.00    +0.000 N 
ATOM      7  C   UNL     1      -5.528   4.286 125.848  0.00  0.00    +0.000 C 
ATOM      8  O   UNL     1      -6.125   5.301 125.587  0.00  0.00    +0.000 OA
ATOM      9  C   UNL     1      -4.430   3.758 126.882  0.00  0.00    +0.000 C 
ENDROOT
BRANCH   9  10
ATOM     10  N   UNL     1      -4.741   3.963 128.312  0.00  0.00    +0.000 N 
ATOM     11  C   UNL     1      -4.859   5.140 129.017  0.00  0.00    +0.000 C 
ATOM     12  O   UNL     1      -4.543   6.220 128.519  0.00  0.00    +0.000 OA
ATOM     13  H   UNL     1      -4.744   3.131 128.891  0.00  0.00    +0.000 HD
BRANCH  11  14
ATOM     14  C   UNL     1      -5.359   4.978 130.493  0.00  0.00    +0.000 C 
ATOM     15  S   UNL     1      -7.147   5.271 130.683  0.00  0.00    +0.000 S 
ATOM     16  C   UNL     1      -6.821   4.037 131.889  0.00  0.00    +0.000 C 
ATOM     17  S   UNL     1      -5.559   3.222 130.985  0.00  0.00    +0.000 S 
ATOM     18  C   UNL     1      -7.432   3.703 133.056  0.00  0.00    +0.000 C 
BRANCH  18  19
ATOM     19  C   UNL     1      -8.565   4.568 133.548  0.00  0.00    +0.000 C 
ATOM     20  N   UNL     1      -9.742   3.951 133.848  0.00  0.00    +0.000 N 
ATOM     21  O   UNL     1      -8.499   5.782 133.703  0.00  0.00    +0.000 OA
ATOM     22  H   UNL     1      -9.883   2.946 133.755  0.00  0.00    +0.000 HD
ATOM     23  H   UNL     1     -10.511   4.516 134.186  0.00  0.00    +0.000 HD
ENDBRANCH  18  19
BRANCH  18  24
ATOM     24  C   UNL     1      -7.022   2.493 133.827  0.00  0.00    +0.000 C 
ATOM     25  O   UNL     1      -7.552   1.402 133.646  0.00  0.00    +0.000 OA
BRANCH  24  26
ATOM     26  O   UNL     1      -6.038   2.591 134.744  0.00  0.00    +0.000 OA
ATOM     27  H   UNL     1      -5.270   1.996 134.639  0.00  0.00    +0.000 HD
ENDBRANCH  24  26
ENDBRANCH  18  24
ENDBRANCH  11  14
ENDBRANCH   9  10
BRANCH   9  28
ATOM     28  O   UNL     1      -3.090   4.282 126.618  0.00  0.00    +0.000 OA
ATOM     29  C   UNL     1      -2.027   3.568 127.250  0.00  0.00    +0.000 C 
ENDBRANCH   9  28
BRANCH   5  30
ATOM     30  C   UNL     1      -7.181   3.311 123.297  0.00  0.00    +0.000 C 
ATOM     31  O   UNL     1      -6.669   3.472 122.196  0.00  0.00    +0.000 OA
BRANCH  30  32
ATOM     32  O   UNL     1      -8.306   3.988 123.604  0.00  0.00    +0.000 OA
ATOM     33  H   UNL     1      -8.969   3.517 124.147  0.00  0.00    +0.000 HD
ENDBRANCH  30  32
ENDBRANCH   5  30
BRANCH   4  34
ATOM     34  C   UNL     1      -7.865   0.462 123.638  0.00  0.00    +0.000 C 
BRANCH  34  35
ATOM     35  S   UNL     1      -7.197  -1.024 122.815  0.00  0.00    +0.000 S 
BRANCH  35  36
ATOM     36  C   UNL     1      -7.989  -2.350 123.559  0.00  0.00    +0.000 A 
ATOM     37  N   UNL     1      -9.266  -2.418 123.856  0.00  0.00    +0.000 NA
ATOM     38  N   UNL     1      -9.406  -3.529 124.656  0.00  0.00    +0.000 NA
ATOM     39  N   UNL     1      -8.235  -4.117 124.866  0.00  0.00    +0.000 NA
ATOM     40  N   UNL     1      -7.345  -3.378 124.180  0.00  0.00    +0.000 N 
ATOM     41  C   UNL     1      -5.946  -3.690 124.215  0.00  0.00    +0.000 C 
ENDBRANCH  35  36
ENDBRANCH  34  35
ENDBRANCH   4  34
TORSDOF 11
ENDMDL
MODEL 2
REMARK VINA RESULT:      -7.4      5.032      7.522
REMARK  Name = Cefotetan
REMARK  13 active torsions:
REMARK  status: ('A' for Active; 'I' for Inactive)
REMARK    1  A    between atoms: C_5  and  C_6
REMARK    2  A    between atoms: C_6  and  S_7
REMARK    3  A    between atoms: S_7  and  C_8
REMARK    4  A    between atoms: N_12  and  C_13
REMARK    5  A    between atoms: C_14  and  C_35
REMARK    6  A    between atoms: C_18  and  N_19
REMARK    7  A    between atoms: C_18  and  O_33
REMARK    8  A    between atoms: C_20  and  C_22
REMARK    9  A    between atoms: C_26  and  C_27
REMARK   10  A    between atoms: C_26  and  C_30
REMARK   11  A    between atoms: C_30  and  O_31
REMARK   12  A    between atoms: O_33  and  C_34
REMARK   13  A    between atoms: C_35  and  O_36
REMARK                            x       y       z     vdW  Elec       q    Type
REMARK                         _______ _______ _______ _____ _____    ______ ____
ROOT
ATOM      1  C   UNL     1      -5.157   3.430 129.925  0.00  0.00    +0.000 C 
ATOM      2  S   UNL     1      -5.751   3.993 131.512  0.00  0.00    +0.000 S 
ATOM      3  C   UNL     1      -7.338   3.197 131.375  0.00  0.00    +0.000 C 
ATOM      4  C   UNL     1      -8.079   3.313 130.056  0.00  0.00    +0.000 C 
ATOM      5  C   UNL     1      -7.451   3.598 128.877  0.00  0.00    +0.000 C 
ATOM      6  N   UNL     1      -6.083   3.740 128.841  0.00  0.00    +0.000 N 
ATOM      7  C   UNL     1      -5.271   4.615 128.188  0.00  0.00    +0.000 C 
ATOM      8  O   UNL     1      -5.508   5.300 127.224  0.00  0.00    +0.000 OA
ATOM      9  C   UNL     1      -4.057   4.291 129.176  0.00  0.00    +0.000 C 
ENDROOT
BRANCH   9  10
ATOM     10  N   UNL     1      -3.431   5.458 129.830  0.00  0.00    +0.000 N 
ATOM     11  C   UNL     1      -2.508   5.493 130.853  0.00  0.00    +0.000 C 
ATOM     12  O   UNL     1      -2.203   4.475 131.475  0.00  0.00    +0.000 OA
ATOM     13  H   UNL     1      -3.819   6.364 129.592  0.00  0.00    +0.000 HD
BRANCH  11  14
ATOM     14  C   UNL     1      -1.944   6.916 131.186  0.00  0.00    +0.000 C 
ATOM     15  S   UNL     1      -3.097   7.937 132.160  0.00  0.00    +0.000 S 
ATOM     16  C   UNL     1      -1.524   8.453 132.747  0.00  0.00    +0.000 C 
ATOM     17  S   UNL     1      -0.739   6.895 132.570  0.00  0.00    +0.000 S 
ATOM     18  C   UNL     1      -1.082   9.610 133.306  0.00  0.00    +0.000 C 
BRANCH  18  19
ATOM     19  C   UNL     1      -2.034  10.777 133.393  0.00  0.00    +0.000 C 
ATOM     20  N   UNL     1      -2.210  11.529 132.270  0.00  0.00    +0.000 N 
ATOM     21  O   UNL     1      -2.662  11.092 134.397  0.00  0.00    +0.000 OA
ATOM     22  H   UNL     1      -1.732  11.335 131.391  0.00  0.00    +0.000 HD
ATOM     23  H   UNL     1      -2.849  12.312 132.308  0.00  0.00    +0.000 HD
ENDBRANCH  18  19
BRANCH  18  24
ATOM     24  C   UNL     1       0.300   9.727 133.854  0.00  0.00    +0.000 C 
ATOM     25  O   UNL     1       1.176  10.353 133.266  0.00  0.00    +0.000 OA
BRANCH  24  26
ATOM     26  O   UNL     1       0.603   9.139 135.029  0.00  0.00    +0.000 OA
ATOM     27  H   UNL     1       1.147   9.652 135.657  0.00  0.00    +0.000 HD
ENDBRANCH  24  26
ENDBRANCH  18  24
ENDBRANCH  11  14
ENDBRANCH   9  10
BRANCH   9  28
ATOM     28  O   UNL     1      -3.006   3.487 128.553  0.00  0.00    +0.000 OA
ATOM     29  C   UNL     1      -2.276   4.146 127.517  0.00  0.00    +0.000 C 
ENDBRANCH   9  28
BRANCH   5  30
ATOM     30  C   UNL     1      -8.272   3.705 127.592  0.00  0.00    +0.000 C 
ATOM     31  O   UNL     1      -8.489   2.754 126.850  0.00  0.00    +0.000 OA
BRANCH  30  32
ATOM     32  O   UNL     1      -8.649   4.940 127.204  0.00  0.00    +0.000 OA
ATOM     33  H   UNL     1      -9.098   5.493 127.873  0.00  0.00    +0.000 HD
ENDBRANCH  30  32
ENDBRANCH   5  30
BRANCH   4  34
ATOM     34  C   UNL     1      -9.606   3.087 130.149  0.00  0.00    +0.000 C 
BRANCH  34  35
ATOM     35  S   UNL     1     -10.501   4.404 131.043  0.00  0.00    +0.000 S 
BRANCH  35  36
ATOM     36  C   UNL     1     -10.488   5.757 129.990  0.00  0.00    +0.000 A 
ATOM     37  N   UNL     1     -11.239   5.912 128.925  0.00  0.00    +0.000 NA
ATOM     38  N   UNL     1     -10.721   6.998 128.257  0.00  0.00    +0.000 NA
ATOM     39  N   UNL     1      -9.659   7.484 128.887  0.00  0.00    +0.000 NA
ATOM     40  N   UNL     1      -9.511   6.706 129.973  0.00  0.00    +0.000 N 
ATOM     41  C   UNL     1      -8.417   6.907 130.880  0.00  0.00    +0.000 C 
ENDBRANCH  35  36
ENDBRANCH  34  35
ENDBRANCH   4  34
TORSDOF 11
ENDMDL
MODEL 3
REMARK VINA RESULT:      -7.3      3.571      9.723
REMARK  Name = Cefotetan
REMARK  13 active torsions:
REMARK  status: ('A' for Active; 'I' for Inactive)
REMARK    1  A    between atoms: C_5  and  C_6
REMARK    2  A    between atoms: C_6  and  S_7
REMARK    3  A    between atoms: S_7  and  C_8
REMARK    4  A    between atoms: N_12  and  C_13
REMARK    5  A    between atoms: C_14  and  C_35
REMARK    6  A    between atoms: C_18  and  N_19
REMARK    7  A    between atoms: C_18  and  O_33
REMARK    8  A    between atoms: C_20  and  C_22
REMARK    9  A    between atoms: C_26  and  C_27
REMARK   10  A    between atoms: C_26  and  C_30
REMARK   11  A    between atoms: C_30  and  O_31
REMARK   12  A    between atoms: O_33  and  C_34
REMARK   13  A    between atoms: C_35  and  O_36
REMARK                            x       y       z     vdW  Elec       q    Type
REMARK                         _______ _______ _______ _____ _____    ______ ____
ROOT
ATOM      1  C   UNL     1      -5.814   2.095 131.393  0.00  0.00    +0.000 C 
ATOM      2  S   UNL     1      -5.626   3.126 129.948  0.00  0.00    +0.000 S 
ATOM      3  C   UNL     1      -5.960   4.652 130.802  0.00  0.00    +0.000 C 
ATOM      4  C   UNL     1      -7.127   4.683 131.771  0.00  0.00    +0.000 C 
ATOM      5  C   UNL     1      -7.646   3.555 132.341  0.00  0.00    +0.000 C 
ATOM      6  N   UNL     1      -7.075   2.329 132.087  0.00  0.00    +0.000 N 
ATOM      7  C   UNL     1      -7.613   1.101 131.851  0.00  0.00    +0.000 C 
ATOM      8  O   UNL     1      -8.717   0.691 132.109  0.00  0.00    +0.000 OA
ATOM      9  C   UNL     1      -6.249   0.583 131.197  0.00  0.00    +0.000 C 
ENDROOT
BRANCH   9  10
ATOM     10  N   UNL     1      -6.365  -0.005 129.847  0.00  0.00    +0.000 N 
ATOM     11  C   UNL     1      -7.161  -1.043 129.415  0.00  0.00    +0.000 C 
ATOM     12  O   UNL     1      -7.796  -1.737 130.209  0.00  0.00    +0.000 OA
ATOM     13  H   UNL     1      -5.678   0.301 129.168  0.00  0.00    +0.000 HD
BRANCH  11  14
ATOM     14  C   UNL     1      -7.138  -1.293 127.868  0.00  0.00    +0.000 C 
ATOM     15  S   UNL     1      -8.201  -2.678 127.347  0.00  0.00    +0.000 S 
ATOM     16  C   UNL     1      -8.311  -1.568 125.991  0.00  0.00    +0.000 C 
ATOM     17  S   UNL     1      -8.179  -0.100 126.941  0.00  0.00    +0.000 S 
ATOM     18  C   UNL     1      -8.573  -1.747 124.670  0.00  0.00    +0.000 C 
BRANCH  18  19
ATOM     19  C   UNL     1      -8.715  -3.156 124.150  0.00  0.00    +0.000 C 
ATOM     20  N   UNL     1      -9.875  -3.476 123.511  0.00  0.00    +0.000 N 
ATOM     21  O   UNL     1      -7.860  -4.028 124.257  0.00  0.00    +0.000 OA
ATOM     22  H   UNL     1     -10.636  -2.812 123.374  0.00  0.00    +0.000 HD
ATOM     23  H   UNL     1      -9.985  -4.415 123.150  0.00  0.00    +0.000 HD
ENDBRANCH  18  19
BRANCH  18  24
ATOM     24  C   UNL     1      -8.749  -0.586 123.750  0.00  0.00    +0.000 C 
ATOM     25  O   UNL     1      -9.849  -0.278 123.303  0.00  0.00    +0.000 OA
BRANCH  24  26
ATOM     26  O   UNL     1      -7.678   0.155 123.401  0.00  0.00    +0.000 OA
ATOM     27  H   UNL     1      -7.834   0.903 122.793  0.00  0.00    +0.000 HD
ENDBRANCH  24  26
ENDBRANCH  18  24
ENDBRANCH  11  14
ENDBRANCH   9  10
BRANCH   9  28
ATOM     28  O   UNL     1      -5.520  -0.353 132.053  0.00  0.00    +0.000 OA
ATOM     29  C   UNL     1      -4.447  -1.045 131.413  0.00  0.00    +0.000 C 
ENDBRANCH   9  28
BRANCH   5  30
ATOM     30  C   UNL     1      -8.829   3.671 133.303  0.00  0.00    +0.000 C 
ATOM     31  O   UNL     1      -8.702   3.881 134.503  0.00  0.00    +0.000 OA
BRANCH  30  32
ATOM     32  O   UNL     1     -10.052   3.390 132.810  0.00  0.00    +0.000 OA
ATOM     33  H   UNL     1     -10.092   2.748 132.073  0.00  0.00    +0.000 HD
ENDBRANCH  30  32
ENDBRANCH   5  30
BRANCH   4  34
ATOM     34  C   UNL     1      -7.690   6.093 132.063  0.00  0.00    +0.000 C 
BRANCH  34  35
ATOM     35  S   UNL     1      -8.515   6.877 130.636  0.00  0.00    +0.000 S 
BRANCH  35  36
ATOM     36  C   UNL     1     -10.180   6.923 131.042  0.00  0.00    +0.000 A 
ATOM     37  N   UNL     1     -10.735   6.350 132.084  0.00  0.00    +0.000 NA
ATOM     38  N   UNL     1     -12.094   6.428 131.875  0.00  0.00    +0.000 NA
ATOM     39  N   UNL     1     -12.364   7.017 130.717  0.00  0.00    +0.000 NA
ATOM     40  N   UNL     1     -11.166   7.327 130.193  0.00  0.00    +0.000 N 
ATOM     41  C   UNL     1     -11.063   7.940 128.900  0.00  0.00    +0.000 C 
ENDBRANCH  35  36
ENDBRANCH  34  35
ENDBRANCH   4  34
TORSDOF 11
ENDMDL
MODEL 4
REMARK VINA RESULT:      -7.2      4.228      9.574
REMARK  Name = Cefotetan
REMARK  13 active torsions:
REMARK  status: ('A' for Active; 'I' for Inactive)
REMARK    1  A    between atoms: C_5  and  C_6
REMARK    2  A    between atoms: C_6  and  S_7
REMARK    3  A    between atoms: S_7  and  C_8
REMARK    4  A    between atoms: N_12  and  C_13
REMARK    5  A    between atoms: C_14  and  C_35
REMARK    6  A    between atoms: C_18  and  N_19
REMARK    7  A    between atoms: C_18  and  O_33
REMARK    8  A    between atoms: C_20  and  C_22
REMARK    9  A    between atoms: C_26  and  C_27
REMARK   10  A    between atoms: C_26  and  C_30
REMARK   11  A    between atoms: C_30  and  O_31
REMARK   12  A    between atoms: O_33  and  C_34
REMARK   13  A    between atoms: C_35  and  O_36
REMARK                            x       y       z     vdW  Elec       q    Type
REMARK                         _______ _______ _______ _____ _____    ______ ____
ROOT
ATOM      1  C   UNL     1      -6.137   1.851 130.512  0.00  0.00    +0.000 C 
ATOM      2  S   UNL     1      -6.573   2.555 128.930  0.00  0.00    +0.000 S 
ATOM      3  C   UNL     1      -7.130   4.108 129.600  0.00  0.00    +0.000 C 
ATOM      4  C   UNL     1      -8.015   4.073 130.832  0.00  0.00    +0.000 C 
ATOM      5  C   UNL     1      -8.054   3.006 131.686  0.00  0.00    +0.000 C 
ATOM      6  N   UNL     1      -7.228   1.926 131.477  0.00  0.00    +0.000 N 
ATOM      7  C   UNL     1      -7.433   0.585 131.585  0.00  0.00    +0.000 C 
ATOM      8  O   UNL     1      -8.290  -0.008 132.191  0.00  0.00    +0.000 OA
ATOM      9  C   UNL     1      -6.157   0.274 130.674  0.00  0.00    +0.000 C 
ENDROOT
BRANCH   9  10
ATOM     10  N   UNL     1      -6.394  -0.606 129.511  0.00  0.00    +0.000 N 
ATOM     11  C   UNL     1      -6.809  -1.919 129.484  0.00  0.00    +0.000 C 
ATOM     12  O   UNL     1      -6.883  -2.589 130.514  0.00  0.00    +0.000 OA
ATOM     13  H   UNL     1      -6.092  -0.248 128.612  0.00  0.00    +0.000 HD
BRANCH  11  14
ATOM     14  C   UNL     1      -7.109  -2.487 128.055  0.00  0.00    +0.000 C 
ATOM     15  S   UNL     1      -8.255  -1.447 127.093  0.00  0.00    +0.000 S 
ATOM     16  C   UNL     1      -7.192  -2.103 125.859  0.00  0.00    +0.000 C 
ATOM     17  S   UNL     1      -5.754  -2.156 126.862  0.00  0.00    +0.000 S 
ATOM     18  C   UNL     1      -7.356  -2.341 124.531  0.00  0.00    +0.000 C 
BRANCH  18  19
ATOM     19  C   UNL     1      -8.719  -2.124 123.925  0.00  0.00    +0.000 C 
ATOM     20  N   UNL     1      -8.881  -1.041 123.114  0.00  0.00    +0.000 N 
ATOM     21  O   UNL     1      -9.687  -2.854 124.105  0.00  0.00    +0.000 OA
ATOM     22  H   UNL     1      -8.129  -0.385 122.905  0.00  0.00    +0.000 HD
ATOM     23  H   UNL     1      -9.788  -0.883 122.693  0.00  0.00    +0.000 HD
ENDBRANCH  18  19
BRANCH  18  24
ATOM     24  C   UNL     1      -6.215  -2.778 123.676  0.00  0.00    +0.000 C 
ATOM     25  O   UNL     1      -5.816  -2.099 122.736  0.00  0.00    +0.000 OA
BRANCH  24  26
ATOM     26  O   UNL     1      -5.595  -3.946 123.940  0.00  0.00    +0.000 OA
ATOM     27  H   UNL     1      -6.153  -4.688 124.243  0.00  0.00    +0.000 HD
ENDBRANCH  24  26
ENDBRANCH  18  24
ENDBRANCH  11  14
ENDBRANCH   9  10
BRANCH   9  28
ATOM     28  O   UNL     1      -5.022  -0.253 131.432  0.00  0.00    +0.000 OA
ATOM     29  C   UNL     1      -3.874  -0.583 130.650  0.00  0.00    +0.000 C 
ENDBRANCH   9  28
BRANCH   5  30
ATOM     30  C   UNL     1      -8.979   3.048 132.903  0.00  0.00    +0.000 C 
ATOM     31  O   UNL     1      -8.630   3.467 134.000  0.00  0.00    +0.000 OA
BRANCH  30  32
ATOM     32  O   UNL     1     -10.187   2.463 132.776  0.00  0.00    +0.000 OA
ATOM     33  H   UNL     1     -10.286   1.810 132.055  0.00  0.00    +0.000 HD
ENDBRANCH  30  32
ENDBRANCH   5  30
BRANCH   4  34
ATOM     34  C   UNL     1      -8.877   5.338 131.047  0.00  0.00    +0.000 C 
BRANCH  34  35
ATOM     35  S   UNL     1     -10.560   5.222 130.349  0.00  0.00    +0.000 S 
BRANCH  35  36
ATOM     36  C   UNL     1     -10.731   6.601 129.346  0.00  0.00    +0.000 A 
ATOM     37  N   UNL     1      -9.850   7.037 128.476  0.00  0.00    +0.000 NA
ATOM     38  N   UNL     1     -10.285   8.287 128.096  0.00  0.00    +0.000 NA
ATOM     39  N   UNL     1     -11.398   8.620 128.737  0.00  0.00    +0.000 NA
ATOM     40  N   UNL     1     -11.679   7.565 129.522  0.00  0.00    +0.000 N 
ATOM     41  C   UNL     1     -12.804   7.587 130.411  0.00  0.00    +0.000 C 
ENDBRANCH  35  36
ENDBRANCH  34  35
ENDBRANCH   4  34
TORSDOF 11
ENDMDL
MODEL 5
REMARK VINA RESULT:      -7.2      5.719      8.494
REMARK  Name = Cefotetan
REMARK  13 active torsions:
REMARK  status: ('A' for Active; 'I' for Inactive)
REMARK    1  A    between atoms: C_5  and  C_6
REMARK    2  A    between atoms: C_6  and  S_7
REMARK    3  A    between atoms: S_7  and  C_8
REMARK    4  A    between atoms: N_12  and  C_13
REMARK    5  A    between atoms: C_14  and  C_35
REMARK    6  A    between atoms: C_18  and  N_19
REMARK    7  A    between atoms: C_18  and  O_33
REMARK    8  A    between atoms: C_20  and  C_22
REMARK    9  A    between atoms: C_26  and  C_27
REMARK   10  A    between atoms: C_26  and  C_30
REMARK   11  A    between atoms: C_30  and  O_31
REMARK   12  A    between atoms: O_33  and  C_34
REMARK   13  A    between atoms: C_35  and  O_36
REMARK                            x       y       z     vdW  Elec       q    Type
REMARK                         _______ _______ _______ _____ _____    ______ ____
ROOT
ATOM      1  C   UNL     1      -6.229   4.294 130.818  0.00  0.00    +0.000 C 
ATOM      2  S   UNL     1      -6.890   3.215 129.558  0.00  0.00    +0.000 S 
ATOM      3  C   UNL     1      -8.413   4.118 129.366  0.00  0.00    +0.000 C 
ATOM      4  C   UNL     1      -9.136   4.566 130.622  0.00  0.00    +0.000 C 
ATOM      5  C   UNL     1      -8.509   4.705 131.828  0.00  0.00    +0.000 C 
ATOM      6  N   UNL     1      -7.154   4.489 131.929  0.00  0.00    +0.000 N 
ATOM      7  C   UNL     1      -6.395   3.870 132.874  0.00  0.00    +0.000 C 
ATOM      8  O   UNL     1      -6.663   3.623 134.024  0.00  0.00    +0.000 OA
ATOM      9  C   UNL     1      -5.179   3.705 131.850  0.00  0.00    +0.000 C 
ENDROOT
BRANCH   9  10
ATOM     10  N   UNL     1      -4.650   2.334 131.696  0.00  0.00    +0.000 N 
ATOM     11  C   UNL     1      -4.095   1.503 132.644  0.00  0.00    +0.000 C 
ATOM     12  O   UNL     1      -3.826   1.910 133.774  0.00  0.00    +0.000 OA
ATOM     13  H   UNL     1      -4.559   1.996 130.744  0.00  0.00    +0.000 HD
BRANCH  11  14
ATOM     14  C   UNL     1      -3.787   0.049 132.148  0.00  0.00    +0.000 C 
ATOM     15  S   UNL     1      -4.078  -1.222 133.421  0.00  0.00    +0.000 S 
ATOM     16  C   UNL     1      -4.500  -2.054 131.934  0.00  0.00    +0.000 C 
ATOM     17  S   UNL     1      -5.128  -0.643 131.104  0.00  0.00    +0.000 S 
ATOM     18  C   UNL     1      -4.505  -3.366 131.580  0.00  0.00    +0.000 C 
BRANCH  18  19
ATOM     19  C   UNL     1      -3.962  -4.377 132.558  0.00  0.00    +0.000 C 
ATOM     20  N   UNL     1      -4.825  -5.316 133.035  0.00  0.00    +0.000 N 
ATOM     21  O   UNL     1      -2.800  -4.416 132.947  0.00  0.00    +0.000 OA
ATOM     22  H   UNL     1      -5.806  -5.361 132.760  0.00  0.00    +0.000 HD
ATOM     23  H   UNL     1      -4.477  -6.007 133.688  0.00  0.00    +0.000 HD
ENDBRANCH  18  19
BRANCH  18  24
ATOM     24  C   UNL     1      -5.059  -3.812 130.268  0.00  0.00    +0.000 C 
ATOM     25  O   UNL     1      -6.138  -4.390 130.187  0.00  0.00    +0.000 OA
BRANCH  24  26
ATOM     26  O   UNL     1      -4.366  -3.573 129.137  0.00  0.00    +0.000 OA
ATOM     27  H   UNL     1      -4.346  -4.284 128.468  0.00  0.00    +0.000 HD
ENDBRANCH  24  26
ENDBRANCH  18  24
ENDBRANCH  11  14
ENDBRANCH   9  10
BRANCH   9  28
ATOM     28  O   UNL     1      -4.062   4.606 132.131  0.00  0.00    +0.000 OA
ATOM     29  C   UNL     1      -2.983   4.539 131.198  0.00  0.00    +0.000 C 
ENDBRANCH   9  28
BRANCH   5  30
ATOM     30  C   UNL     1      -9.312   5.156 133.048  0.00  0.00    +0.000 C 
ATOM     31  O   UNL     1      -9.451   6.330 133.367  0.00  0.00    +0.000 OA
BRANCH  30  32
ATOM     32  O   UNL     1      -9.765   4.192 133.875  0.00  0.00    +0.000 OA
ATOM     33  H   UNL     1      -9.117   3.518 134.162  0.00  0.00    +0.000 HD
ENDBRANCH  30  32
ENDBRANCH   5  30
BRANCH   4  34
ATOM     34  C   UNL     1     -10.645   4.850 130.435  0.00  0.00    +0.000 C 
BRANCH  34  35
ATOM     35  S   UNL     1     -11.029   6.581 129.998  0.00  0.00    +0.000 S 
BRANCH  35  36
ATOM     36  C   UNL     1     -11.088   6.615 128.285  0.00  0.00    +0.000 A 
ATOM     37  N   UNL     1     -10.054   6.638 127.478  0.00  0.00    +0.000 NA
ATOM     38  N   UNL     1     -10.560   6.917 126.229  0.00  0.00    +0.000 NA
ATOM     39  N   UNL     1     -11.875   7.085 126.273  0.00  0.00    +0.000 NA
ATOM     40  N   UNL     1     -12.208   6.897 127.562  0.00  0.00    +0.000 N 
ATOM     41  C   UNL     1     -13.564   7.051 128.003  0.00  0.00    +0.000 C 
ENDBRANCH  35  36
ENDBRANCH  34  35
ENDBRANCH   4  34
TORSDOF 11
ENDMDL
MODEL 6
REMARK VINA RESULT:      -7.2      4.175      6.117
REMARK  Name = Cefotetan
REMARK  13 active torsions:
REMARK  status: ('A' for Active; 'I' for Inactive)
REMARK    1  A    between atoms: C_5  and  C_6
REMARK    2  A    between atoms: C_6  and  S_7
REMARK    3  A    between atoms: S_7  and  C_8
REMARK    4  A    between atoms: N_12  and  C_13
REMARK    5  A    between atoms: C_14  and  C_35
REMARK    6  A    between atoms: C_18  and  N_19
REMARK    7  A    between atoms: C_18  and  O_33
REMARK    8  A    between atoms: C_20  and  C_22
REMARK    9  A    between atoms: C_26  and  C_27
REMARK   10  A    between atoms: C_26  and  C_30
REMARK   11  A    between atoms: C_30  and  O_31
REMARK   12  A    between atoms: O_33  and  C_34
REMARK   13  A    between atoms: C_35  and  O_36
REMARK                            x       y       z     vdW  Elec       q    Type
REMARK                         _______ _______ _______ _____ _____    ______ ____
ROOT
ATOM      1  C   UNL     1      -5.803   3.881 128.638  0.00  0.00    +0.000 C 
ATOM      2  S   UNL     1      -4.643   2.748 127.890  0.00  0.00    +0.000 S 
ATOM      3  C   UNL     1      -4.607   3.581 126.316  0.00  0.00    +0.000 C 
ATOM      4  C   UNL     1      -5.929   4.024 125.718  0.00  0.00    +0.000 C 
ATOM      5  C   UNL     1      -7.054   4.215 126.468  0.00  0.00    +0.000 C 
ATOM      6  N   UNL     1      -7.007   4.059 127.835  0.00  0.00    +0.000 N 
ATOM      7  C   UNL     1      -7.871   3.494 128.720  0.00  0.00    +0.000 C 
ATOM      8  O   UNL     1      -9.047   3.259 128.593  0.00  0.00    +0.000 OA
ATOM      9  C   UNL     1      -6.720   3.358 129.821  0.00  0.00    +0.000 C 
ENDROOT
BRANCH   9  10
ATOM     10  N   UNL     1      -6.530   2.009 130.391  0.00  0.00    +0.000 N 
ATOM     11  C   UNL     1      -7.421   1.227 131.093  0.00  0.00    +0.000 C 
ATOM     12  O   UNL     1      -8.502   1.673 131.476  0.00  0.00    +0.000 OA
ATOM     13  H   UNL     1      -5.582   1.651 130.383  0.00  0.00    +0.000 HD
BRANCH  11  14
ATOM     14  C   UNL     1      -6.920  -0.225 131.406  0.00  0.00    +0.000 C 
ATOM     15  S   UNL     1      -6.188  -1.060 129.962  0.00  0.00    +0.000 S 
ATOM     16  C   UNL     1      -5.251  -1.700 131.302  0.00  0.00    +0.000 C 
ATOM     17  S   UNL     1      -5.306  -0.246 132.280  0.00  0.00    +0.000 S 
ATOM     18  C   UNL     1      -4.566  -2.861 131.478  0.00  0.00    +0.000 C 
BRANCH  18  19
ATOM     19  C   UNL     1      -4.649  -3.915 130.404  0.00  0.00    +0.000 C 
ATOM     20  N   UNL     1      -5.447  -4.994 130.642  0.00  0.00    +0.000 N 
ATOM     21  O   UNL     1      -4.055  -3.868 129.333  0.00  0.00    +0.000 OA
ATOM     22  H   UNL     1      -5.980  -5.111 131.503  0.00  0.00    +0.000 HD
ATOM     23  H   UNL     1      -5.519  -5.708 129.929  0.00  0.00    +0.000 HD
ENDBRANCH  18  19
BRANCH  18  24
ATOM     24  C   UNL     1      -3.723  -3.087 132.688  0.00  0.00    +0.000 C 
ATOM     25  O   UNL     1      -2.657  -2.502 132.851  0.00  0.00    +0.000 OA
BRANCH  24  26
ATOM     26  O   UNL     1      -4.139  -3.949 133.638  0.00  0.00    +0.000 OA
ATOM     27  H   UNL     1      -4.265  -3.593 134.539  0.00  0.00    +0.000 HD
ENDBRANCH  24  26
ENDBRANCH  18  24
ENDBRANCH  11  14
ENDBRANCH   9  10
BRANCH   9  28
ATOM     28  O   UNL     1      -6.860   4.312 130.921  0.00  0.00    +0.000 OA
ATOM     29  C   UNL     1      -5.852   4.224 131.929  0.00  0.00    +0.000 C 
ENDBRANCH   9  28
BRANCH   5  30
ATOM     30  C   UNL     1      -8.350   4.657 125.786  0.00  0.00    +0.000 C 
ATOM     31  O   UNL     1      -8.832   5.775 125.916  0.00  0.00    +0.000 OA
BRANCH  30  32
ATOM     32  O   UNL     1      -9.049   3.712 125.127  0.00  0.00    +0.000 OA
ATOM     33  H   UNL     1      -9.922   3.976 124.775  0.00  0.00    +0.000 HD
ENDBRANCH  30  32
ENDBRANCH   5  30
BRANCH   4  34
ATOM     34  C   UNL     1      -5.907   4.240 124.187  0.00  0.00    +0.000 C 
BRANCH  34  35
ATOM     35  S   UNL     1      -6.455   2.790 123.222  0.00  0.00    +0.000 S 
BRANCH  35  36
ATOM     36  C   UNL     1      -7.434   3.425 121.966  0.00  0.00    +0.000 A 
ATOM     37  N   UNL     1      -8.734   3.280 121.852  0.00  0.00    +0.000 NA
ATOM     38  N   UNL     1      -9.051   3.722 120.588  0.00  0.00    +0.000 NA
ATOM     39  N   UNL     1      -7.965   4.109 119.931  0.00  0.00    +0.000 NA
ATOM     40  N   UNL     1      -6.950   3.922 120.793  0.00  0.00    +0.000 N 
ATOM     41  C   UNL     1      -5.595   4.190 120.405  0.00  0.00    +0.000 C 
ENDBRANCH  35  36
ENDBRANCH  34  35
ENDBRANCH   4  34
TORSDOF 11
ENDMDL
MODEL 7
REMARK VINA RESULT:      -7.1      5.853      8.531
REMARK  Name = Cefotetan
REMARK  13 active torsions:
REMARK  status: ('A' for Active; 'I' for Inactive)
REMARK    1  A    between atoms: C_5  and  C_6
REMARK    2  A    between atoms: C_6  and  S_7
REMARK    3  A    between atoms: S_7  and  C_8
REMARK    4  A    between atoms: N_12  and  C_13
REMARK    5  A    between atoms: C_14  and  C_35
REMARK    6  A    between atoms: C_18  and  N_19
REMARK    7  A    between atoms: C_18  and  O_33
REMARK    8  A    between atoms: C_20  and  C_22
REMARK    9  A    between atoms: C_26  and  C_27
REMARK   10  A    between atoms: C_26  and  C_30
REMARK   11  A    between atoms: C_30  and  O_31
REMARK   12  A    between atoms: O_33  and  C_34
REMARK   13  A    between atoms: C_35  and  O_36
REMARK                            x       y       z     vdW  Elec       q    Type
REMARK                         _______ _______ _______ _____ _____    ______ ____
ROOT
ATOM      1  C   UNL     1      -6.565   3.883 132.591  0.00  0.00    +0.000 C 
ATOM      2  S   UNL     1      -7.365   5.216 133.469  0.00  0.00    +0.000 S 
ATOM      3  C   UNL     1      -8.982   4.898 132.795  0.00  0.00    +0.000 C 
ATOM      4  C   UNL     1      -9.089   4.623 131.307  0.00  0.00    +0.000 C 
ATOM      5  C   UNL     1      -8.034   4.186 130.557  0.00  0.00    +0.000 C 
ATOM      6  N   UNL     1      -6.823   3.925 131.156  0.00  0.00    +0.000 N 
ATOM      7  C   UNL     1      -5.541   4.175 130.774  0.00  0.00    +0.000 C 
ATOM      8  O   UNL     1      -5.106   4.408 129.674  0.00  0.00    +0.000 OA
ATOM      9  C   UNL     1      -5.017   4.001 132.274  0.00  0.00    +0.000 C 
ENDROOT
BRANCH   9  10
ATOM     10  N   UNL     1      -4.215   5.121 132.810  0.00  0.00    +0.000 N 
ATOM     11  C   UNL     1      -2.950   5.535 132.454  0.00  0.00    +0.000 C 
ATOM     12  O   UNL     1      -2.246   4.866 131.698  0.00  0.00    +0.000 OA
ATOM     13  H   UNL     1      -4.581   5.574 133.640  0.00  0.00    +0.000 HD
BRANCH  11  14
ATOM     14  C   UNL     1      -2.477   6.867 133.130  0.00  0.00    +0.000 C 
ATOM     15  S   UNL     1      -0.721   7.245 132.825  0.00  0.00    +0.000 S 
ATOM     16  C   UNL     1      -1.458   8.837 132.891  0.00  0.00    +0.000 C 
ATOM     17  S   UNL     1      -2.995   8.359 132.195  0.00  0.00    +0.000 S 
ATOM     18  C   UNL     1      -0.974  10.065 133.211  0.00  0.00    +0.000 C 
BRANCH  18  19
ATOM     19  C   UNL     1       0.442  10.171 133.718  0.00  0.00    +0.000 C 
ATOM     20  N   UNL     1       1.326  10.887 132.969  0.00  0.00    +0.000 N 
ATOM     21  O   UNL     1       0.851   9.663 134.756  0.00  0.00    +0.000 OA
ATOM     22  H   UNL     1       1.071  11.347 132.096  0.00  0.00    +0.000 HD
ATOM     23  H   UNL     1       2.280  10.974 133.298  0.00  0.00    +0.000 HD
ENDBRANCH  18  19
BRANCH  18  24
ATOM     24  C   UNL     1      -1.803  11.294 133.040  0.00  0.00    +0.000 C 
ATOM     25  O   UNL     1      -2.654  11.618 133.863  0.00  0.00    +0.000 OA
BRANCH  24  26
ATOM     26  O   UNL     1      -1.616  12.079 131.960  0.00  0.00    +0.000 OA
ATOM     27  H   UNL     1      -2.227  11.955 131.208  0.00  0.00    +0.000 HD
ENDBRANCH  24  26
ENDBRANCH  18  24
ENDBRANCH  11  14
ENDBRANCH   9  10
BRANCH   9  28
ATOM     28  O   UNL     1      -4.277   2.757 132.485  0.00  0.00    +0.000 OA
ATOM     29  C   UNL     1      -3.917   2.491 133.841  0.00  0.00    +0.000 C 
ENDBRANCH   9  28
BRANCH   5  30
ATOM     30  C   UNL     1      -8.224   3.939 129.060  0.00  0.00    +0.000 C 
ATOM     31  O   UNL     1      -8.691   2.903 128.602  0.00  0.00    +0.000 OA
BRANCH  30  32
ATOM     32  O   UNL     1      -7.719   4.861 128.216  0.00  0.00    +0.000 OA
ATOM     33  H   UNL     1      -8.333   5.554 127.903  0.00  0.00    +0.000 HD
ENDBRANCH  30  32
ENDBRANCH   5  30
BRANCH   4  34
ATOM     34  C   UNL     1     -10.488   4.879 130.700  0.00  0.00    +0.000 C 
BRANCH  34  35
ATOM     35  S   UNL     1     -10.792   6.619 130.237  0.00  0.00    +0.000 S 
BRANCH  35  36
ATOM     36  C   UNL     1     -11.006   6.605 128.536  0.00  0.00    +0.000 A 
ATOM     37  N   UNL     1     -10.049   6.625 127.638  0.00  0.00    +0.000 NA
ATOM     38  N   UNL     1     -10.672   6.861 126.433  0.00  0.00    +0.000 NA
ATOM     39  N   UNL     1     -11.981   7.007 126.592  0.00  0.00    +0.000 NA
ATOM     40  N   UNL     1     -12.192   6.848 127.910  0.00  0.00    +0.000 N 
ATOM     41  C   UNL     1     -13.506   6.990 128.468  0.00  0.00    +0.000 C 
ENDBRANCH  35  36
ENDBRANCH  34  35
ENDBRANCH   4  34
TORSDOF 11
ENDMDL
MODEL 8
REMARK VINA RESULT:      -6.9      5.426      7.928
REMARK  Name = Cefotetan
REMARK  13 active torsions:
REMARK  status: ('A' for Active; 'I' for Inactive)
REMARK    1  A    between atoms: C_5  and  C_6
REMARK    2  A    between atoms: C_6  and  S_7
REMARK    3  A    between atoms: S_7  and  C_8
REMARK    4  A    between atoms: N_12  and  C_13
REMARK    5  A    between atoms: C_14  and  C_35
REMARK    6  A    between atoms: C_18  and  N_19
REMARK    7  A    between atoms: C_18  and  O_33
REMARK    8  A    between atoms: C_20  and  C_22
REMARK    9  A    between atoms: C_26  and  C_27
REMARK   10  A    between atoms: C_26  and  C_30
REMARK   11  A    between atoms: C_30  and  O_31
REMARK   12  A    between atoms: O_33  and  C_34
REMARK   13  A    between atoms: C_35  and  O_36
REMARK                            x       y       z     vdW  Elec       q    Type
REMARK                         _______ _______ _______ _____ _____    ______ ____
ROOT
ATOM      1  C   UNL     1      -8.141   0.834 131.646  0.00  0.00    +0.000 C 
ATOM      2  S   UNL     1      -7.335   0.783 130.054  0.00  0.00    +0.000 S 
ATOM      3  C   UNL     1      -7.603  -0.959 129.800  0.00  0.00    +0.000 C 
ATOM      4  C   UNL     1      -7.335  -1.896 130.963  0.00  0.00    +0.000 C 
ATOM      5  C   UNL     1      -7.325  -1.477 132.264  0.00  0.00    +0.000 C 
ATOM      6  N   UNL     1      -7.620  -0.168 132.569  0.00  0.00    +0.000 N 
ATOM      7  C   UNL     1      -7.079   0.707 133.460  0.00  0.00    +0.000 C 
ATOM      8  O   UNL     1      -6.409   0.482 134.437  0.00  0.00    +0.000 OA
ATOM      9  C   UNL     1      -7.710   1.953 132.682  0.00  0.00    +0.000 C 
ENDROOT
BRANCH   9  10
ATOM     10  N   UNL     1      -6.762   3.019 132.298  0.00  0.00    +0.000 N 
ATOM     11  C   UNL     1      -5.990   3.829 133.102  0.00  0.00    +0.000 C 
ATOM     12  O   UNL     1      -6.139   3.849 134.323  0.00  0.00    +0.000 OA
ATOM     13  H   UNL     1      -6.766   3.287 131.321  0.00  0.00    +0.000 HD
BRANCH  11  14
ATOM     14  C   UNL     1      -4.976   4.745 132.336  0.00  0.00    +0.000 C 
ATOM     15  S   UNL     1      -5.785   5.968 131.254  0.00  0.00    +0.000 S 
ATOM     16  C   UNL     1      -4.349   6.818 131.800  0.00  0.00    +0.000 C 
ATOM     17  S   UNL     1      -4.291   6.082 133.390  0.00  0.00    +0.000 S 
ATOM     18  C   UNL     1      -3.613   7.825 131.262  0.00  0.00    +0.000 C 
BRANCH  18  19
ATOM     19  C   UNL     1      -3.960   8.310 129.878  0.00  0.00    +0.000 C 
ATOM     20  N   UNL     1      -4.118   9.652 129.703  0.00  0.00    +0.000 N 
ATOM     21  O   UNL     1      -4.104   7.585 128.900  0.00  0.00    +0.000 OA
ATOM     22  H   UNL     1      -4.012  10.328 130.459  0.00  0.00    +0.000 HD
ATOM     23  H   UNL     1      -4.345   9.996 128.779  0.00  0.00    +0.000 HD
ENDBRANCH  18  19
BRANCH  18  24
ATOM     24  C   UNL     1      -2.502   8.466 132.026  0.00  0.00    +0.000 C 
ATOM     25  O   UNL     1      -2.567   9.632 132.402  0.00  0.00    +0.000 OA
BRANCH  24  26
ATOM     26  O   UNL     1      -1.398   7.751 132.320  0.00  0.00    +0.000 OA
ATOM     27  H   UNL     1      -0.973   7.265 131.587  0.00  0.00    +0.000 HD
ENDBRANCH  24  26
ENDBRANCH  18  24
ENDBRANCH  11  14
ENDBRANCH   9  10
BRANCH   9  28
ATOM     28  O   UNL     1      -8.835   2.564 133.390  0.00  0.00    +0.000 OA
ATOM     29  C   UNL     1      -9.358   3.747 132.784  0.00  0.00    +0.000 C 
ENDBRANCH   9  28
BRANCH   5  30
ATOM     30  C   UNL     1      -7.040  -2.484 133.378  0.00  0.00    +0.000 C 
ATOM     31  O   UNL     1      -7.908  -3.169 133.906  0.00  0.00    +0.000 OA
BRANCH  30  32
ATOM     32  O   UNL     1      -5.790  -2.504 133.883  0.00  0.00    +0.000 OA
ATOM     33  H   UNL     1      -5.596  -1.871 134.602  0.00  0.00    +0.000 HD
ENDBRANCH  30  32
ENDBRANCH   5  30
BRANCH   4  34
ATOM     34  C   UNL     1      -7.067  -3.365 130.563  0.00  0.00    +0.000 C 
BRANCH  34  35
ATOM     35  S   UNL     1      -5.461  -3.633 129.739  0.00  0.00    +0.000 S 
BRANCH  35  36
ATOM     36  C   UNL     1      -4.277  -3.320 130.939  0.00  0.00    +0.000 A 
ATOM     37  N   UNL     1      -3.949  -4.121 131.926  0.00  0.00    +0.000 NA
ATOM     38  N   UNL     1      -3.163  -3.371 132.771  0.00  0.00    +0.000 NA
ATOM     39  N   UNL     1      -3.030  -2.130 132.323  0.00  0.00    +0.000 NA
ATOM     40  N   UNL     1      -3.729  -2.095 131.175  0.00  0.00    +0.000 N 
ATOM     41  C   UNL     1      -3.854  -0.880 130.424  0.00  0.00    +0.000 C 
ENDBRANCH  35  36
ENDBRANCH  34  35
ENDBRANCH   4  34
TORSDOF 11
ENDMDL
MODEL 9
REMARK VINA RESULT:      -6.9      2.435      2.976
REMARK  Name = Cefotetan
REMARK  13 active torsions:
REMARK  status: ('A' for Active; 'I' for Inactive)
REMARK    1  A    between atoms: C_5  and  C_6
REMARK    2  A    between atoms: C_6  and  S_7
REMARK    3  A    between atoms: S_7  and  C_8
REMARK    4  A    between atoms: N_12  and  C_13
REMARK    5  A    between atoms: C_14  and  C_35
REMARK    6  A    between atoms: C_18  and  N_19
REMARK    7  A    between atoms: C_18  and  O_33
REMARK    8  A    between atoms: C_20  and  C_22
REMARK    9  A    between atoms: C_26  and  C_27
REMARK   10  A    between atoms: C_26  and  C_30
REMARK   11  A    between atoms: C_30  and  O_31
REMARK   12  A    between atoms: O_33  and  C_34
REMARK   13  A    between atoms: C_35  and  O_36
REMARK                            x       y       z     vdW  Elec       q    Type
REMARK                         _______ _______ _______ _____ _____    ______ ____
ROOT
ATOM      1  C   UNL     1      -4.985   2.063 126.237  0.00  0.00    +0.000 C 
ATOM      2  S   UNL     1      -5.777   1.175 127.568  0.00  0.00    +0.000 S 
ATOM      3  C   UNL     1      -6.853   0.233 126.507  0.00  0.00    +0.000 C 
ATOM      4  C   UNL     1      -7.560   0.965 125.382  0.00  0.00    +0.000 C 
ATOM      5  C   UNL     1      -7.112   2.153 124.875  0.00  0.00    +0.000 C 
ATOM      6  N   UNL     1      -5.944   2.707 125.346  0.00  0.00    +0.000 N 
ATOM      7  C   UNL     1      -5.594   3.988 125.639  0.00  0.00    +0.000 C 
ATOM      8  O   UNL     1      -6.100   5.019 125.272  0.00  0.00    +0.000 OA
ATOM      9  C   UNL     1      -4.368   3.492 126.537  0.00  0.00    +0.000 C 
ENDROOT
BRANCH   9  10
ATOM     10  N   UNL     1      -4.321   4.025 127.914  0.00  0.00    +0.000 N 
ATOM     11  C   UNL     1      -4.279   5.335 128.340  0.00  0.00    +0.000 C 
ATOM     12  O   UNL     1      -4.112   6.261 127.547  0.00  0.00    +0.000 OA
ATOM     13  H   UNL     1      -4.169   3.345 128.650  0.00  0.00    +0.000 HD
BRANCH  11  14
ATOM     14  C   UNL     1      -4.399   5.529 129.890  0.00  0.00    +0.000 C 
ATOM     15  S   UNL     1      -4.271   3.969 130.823  0.00  0.00    +0.000 S 
ATOM     16  C   UNL     1      -3.529   5.135 131.906  0.00  0.00    +0.000 C 
ATOM     17  S   UNL     1      -2.847   6.149 130.648  0.00  0.00    +0.000 S 
ATOM     18  C   UNL     1      -3.378   5.175 133.255  0.00  0.00    +0.000 C 
BRANCH  18  19
ATOM     19  C   UNL     1      -4.029   4.096 134.084  0.00  0.00    +0.000 C 
ATOM     20  N   UNL     1      -3.210   3.214 134.724  0.00  0.00    +0.000 N 
ATOM     21  O   UNL     1      -5.239   3.961 134.227  0.00  0.00    +0.000 OA
ATOM     22  H   UNL     1      -2.193   3.256 134.664  0.00  0.00    +0.000 HD
ATOM     23  H   UNL     1      -3.630   2.488 135.289  0.00  0.00    +0.000 HD
ENDBRANCH  18  19
BRANCH  18  24
ATOM     24  C   UNL     1      -2.564   6.238 133.913  0.00  0.00    +0.000 C 
ATOM     25  O   UNL     1      -2.983   7.383 134.044  0.00  0.00    +0.000 OA
BRANCH  24  26
ATOM     26  O   UNL     1      -1.337   5.940 134.386  0.00  0.00    +0.000 OA
ATOM     27  H   UNL     1      -1.282   5.609 135.303  0.00  0.00    +0.000 HD
ENDBRANCH  24  26
ENDBRANCH  18  24
ENDBRANCH  11  14
ENDBRANCH   9  10
BRANCH   9  28
ATOM     28  O   UNL     1      -3.066   3.714 125.908  0.00  0.00    +0.000 OA
ATOM     29  C   UNL     1      -1.949   3.202 126.635  0.00  0.00    +0.000 C 
ENDBRANCH   9  28
BRANCH   5  30
ATOM     30  C   UNL     1      -7.888   2.830 123.745  0.00  0.00    +0.000 C 
ATOM     31  O   UNL     1      -7.646   2.648 122.558  0.00  0.00    +0.000 OA
BRANCH  30  32
ATOM     32  O   UNL     1      -8.784   3.774 124.096  0.00  0.00    +0.000 OA
ATOM     33  H   UNL     1      -9.672   3.462 124.360  0.00  0.00    +0.000 HD
ENDBRANCH  30  32
ENDBRANCH   5  30
BRANCH   4  34
ATOM     34  C   UNL     1      -8.835   0.267 124.855  0.00  0.00    +0.000 C 
BRANCH  34  35
ATOM     35  S   UNL     1      -8.584  -0.676 123.311  0.00  0.00    +0.000 S 
BRANCH  35  36
ATOM     36  C   UNL     1      -7.291  -1.752 123.642  0.00  0.00    +0.000 A 
ATOM     37  N   UNL     1      -6.094  -1.708 123.105  0.00  0.00    +0.000 NA
ATOM     38  N   UNL     1      -5.482  -2.890 123.457  0.00  0.00    +0.000 NA
ATOM     39  N   UNL     1      -6.296  -3.653 124.176  0.00  0.00    +0.000 NA
ATOM     40  N   UNL     1      -7.430  -2.942 124.292  0.00  0.00    +0.000 N 
ATOM     41  C   UNL     1      -8.571  -3.481 124.974  0.00  0.00    +0.000 C 
ENDBRANCH  35  36
ENDBRANCH  34  35
ENDBRANCH   4  34
TORSDOF 11
ENDMDL
