MODEL 1
REMARK VINA RESULT:      -8.4      0.000      0.000
REMARK  Name = Ceforanide
REMARK  13 active torsions:
REMARK  status: ('A' for Active; 'I' for Inactive)
REMARK    1  A    between atoms: C_5  and  C_6
REMARK    2  A    between atoms: C_6  and  S_7
REMARK    3  A    between atoms: S_7  and  C_8
REMARK    4  A    between atoms: N_12  and  C_13
REMARK    5  A    between atoms: C_13  and  C_14
REMARK    6  A    between atoms: C_14  and  O_15
REMARK    7  A    between atoms: CA_17  and  C_34
REMARK    8  A    between atoms: CA_21  and  N_22
REMARK    9  A    between atoms: C_23  and  C_25
REMARK   10  A    between atoms: C_25  and  C_26
REMARK   11  A    between atoms: C_31  and  C_32
REMARK   12  A    between atoms: C_32  and  N_33
REMARK   13  A    between atoms: C_34  and  O_35
REMARK                            x       y       z     vdW  Elec       q    Type
REMARK                         _______ _______ _______ _____ _____    ______ ____
ROOT
ATOM      1  C   UNL     1      -8.974   1.185 126.333  0.00  0.00    +0.000 C 
ATOM      2  S   UNL     1      -7.444   0.524 127.028  0.00  0.00    +0.000 S 
ATOM      3  C   UNL     1      -7.347   1.834 128.300  0.00  0.00    +0.000 C 
ATOM      4  C   UNL     1      -7.423   3.256 127.758  0.00  0.00    +0.000 C 
ATOM      5  CA  UNL     1      -7.996   3.514 126.537  0.00  0.00    +0.000 C 
ATOM      6  N   UNL     1      -8.674   2.529 125.839  0.00  0.00    +0.000 N 
ATOM      7  C   UNL     1      -8.697   2.178 124.530  0.00  0.00    +0.000 C 
ATOM      8  O   UNL     1      -8.368   2.808 123.539  0.00  0.00    +0.000 OA
ATOM      9  CA  UNL     1      -9.344   0.822 124.865  0.00  0.00    +0.000 C 
ENDROOT
BRANCH   9  10
ATOM     10  N   UNL     1      -8.847  -0.436 124.254  0.00  0.00    +0.000 N 
ATOM     11  C   UNL     1      -9.394  -0.826 123.036  0.00  0.00    +0.000 C 
ATOM     12  O   UNL     1     -10.348  -0.228 122.547  0.00  0.00    +0.000 OA
ATOM     13  H   UNL     1      -8.122  -1.005 124.683  0.00  0.00    +0.000 HD
BRANCH  11  14
ATOM     14  C   UNL     1      -8.748  -2.046 122.426  0.00  0.00    +0.000 C 
BRANCH  14  15
ATOM     15  C   UNL     1      -7.447  -2.462 123.090  0.00  0.00    +0.000 A 
ATOM     16  C   UNL     1      -6.251  -1.970 122.526  0.00  0.00    +0.000 A 
ATOM     17  C   UNL     1      -5.014  -2.520 122.857  0.00  0.00    +0.000 A 
ATOM     18  C   UNL     1      -4.935  -3.482 123.854  0.00  0.00    +0.000 A 
ATOM     19  C   UNL     1      -6.097  -3.900 124.504  0.00  0.00    +0.000 A 
ATOM     20  C   UNL     1      -7.370  -3.384 124.159  0.00  0.00    +0.000 A 
BRANCH  20  21
ATOM     21  C   UNL     1      -8.552  -3.891 124.972  0.00  0.00    +0.000 C 
BRANCH  21  22
ATOM     22  N   UNL     1      -9.001  -2.998 126.019  0.00  0.00    +0.000 NA
ATOM     23  H   UNL     1      -8.579  -3.228 126.915  0.00  0.00    +0.000 HD
ATOM     24  H   UNL     1      -9.998  -2.854 126.089  0.00  0.00    +0.000 HD
ENDBRANCH  21  22
ENDBRANCH  20  21
ENDBRANCH  14  15
ENDBRANCH  11  14
ENDBRANCH   9  10
BRANCH   5  25
ATOM     25  C   UNL     1      -7.893   4.920 125.954  0.00  0.00    +0.000 C 
ATOM     26  OXT UNL     1      -6.876   5.357 125.431  0.00  0.00    +0.000 OA
BRANCH  25  27
ATOM     27  O   UNL     1      -8.960   5.727 126.100  0.00  0.00    +0.000 OA
ATOM     28  H   UNL     1      -9.828   5.297 126.216  0.00  0.00    +0.000 HD
ENDBRANCH  25  27
ENDBRANCH   5  25
BRANCH   4  29
ATOM     29  C   UNL     1      -6.771   4.394 128.618  0.00  0.00    +0.000 C 
BRANCH  29  30
ATOM     30  S   UNL     1      -7.655   4.942 130.146  0.00  0.00    +0.000 S 
BRANCH  30  31
ATOM     31  C   UNL     1      -9.378   5.012 129.759  0.00  0.00    +0.000 A 
ATOM     32  N   UNL     1     -10.161   3.985 130.022  0.00  0.00    +0.000 NA
ATOM     33  N   UNL     1     -11.450   4.410 129.862  0.00  0.00    +0.000 NA
ATOM     34  N   UNL     1     -11.484   5.686 129.528  0.00  0.00    +0.000 NA
ATOM     35  N   UNL     1     -10.190   6.107 129.477  0.00  0.00    +0.000 N 
BRANCH  35  36
ATOM     36  C   UNL     1     -10.055   7.524 129.149  0.00  0.00    +0.000 C 
BRANCH  36  37
ATOM     37  C   UNL     1     -10.864   8.208 128.095  0.00  0.00    +0.000 C 
ATOM     38  O   UNL     1     -10.733   7.966 126.902  0.00  0.00    +0.000 OA
BRANCH  37  39
ATOM     39  O   UNL     1     -11.763   9.113 128.460  0.00  0.00    +0.000 OA
ATOM     40  H   UNL     1     -11.428  10.024 128.426  0.00  0.00    +0.000 HD
ENDBRANCH  37  39
ENDBRANCH  36  37
ENDBRANCH  35  36
ENDBRANCH  30  31
ENDBRANCH  29  30
ENDBRANCH   4  29
TORSDOF 13
ENDMDL
MODEL 2
REMARK VINA RESULT:      -8.1      4.390      9.178
REMARK  Name = Ceforanide
REMARK  13 active torsions:
REMARK  status: ('A' for Active; 'I' for Inactive)
REMARK    1  A    between atoms: C_5  and  C_6
REMARK    2  A    between atoms: C_6  and  S_7
REMARK    3  A    between atoms: S_7  and  C_8
REMARK    4  A    between atoms: N_12  and  C_13
REMARK    5  A    between atoms: C_13  and  C_14
REMARK    6  A    between atoms: C_14  and  O_15
REMARK    7  A    between atoms: CA_17  and  C_34
REMARK    8  A    between atoms: CA_21  and  N_22
REMARK    9  A    between atoms: C_23  and  C_25
REMARK   10  A    between atoms: C_25  and  C_26
REMARK   11  A    between atoms: C_31  and  C_32
REMARK   12  A    between atoms: C_32  and  N_33
REMARK   13  A    between atoms: C_34  and  O_35
REMARK                            x       y       z     vdW  Elec       q    Type
REMARK                         _______ _______ _______ _____ _____    ______ ____
ROOT
ATOM      1  C   UNL     1      -7.340   4.330 131.095  0.00  0.00    +0.000 C 
ATOM      2  S   UNL     1      -7.614   3.460 129.536  0.00  0.00    +0.000 S 
ATOM      3  C   UNL     1      -5.889   2.857 129.463  0.00  0.00    +0.000 C 
ATOM      4  C   UNL     1      -4.828   3.944 129.588  0.00  0.00    +0.000 C 
ATOM      5  CA  UNL     1      -5.120   5.146 130.185  0.00  0.00    +0.000 C 
ATOM      6  N   UNL     1      -6.322   5.350 130.842  0.00  0.00    +0.000 N 
ATOM      7  C   UNL     1      -7.190   6.390 130.871  0.00  0.00    +0.000 C 
ATOM      8  O   UNL     1      -7.028   7.562 130.574  0.00  0.00    +0.000 OA
ATOM      9  CA  UNL     1      -8.295   5.501 131.472  0.00  0.00    +0.000 C 
ENDROOT
BRANCH   9  10
ATOM     10  N   UNL     1      -9.681   5.540 130.945  0.00  0.00    +0.000 N 
ATOM     11  C   UNL     1     -10.655   6.157 131.724  0.00  0.00    +0.000 C 
ATOM     12  O   UNL     1     -10.408   6.536 132.866  0.00  0.00    +0.000 OA
ATOM     13  H   UNL     1      -9.936   5.149 130.042  0.00  0.00    +0.000 HD
BRANCH  11  14
ATOM     14  C   UNL     1     -12.007   6.262 131.063  0.00  0.00    +0.000 C 
BRANCH  14  15
ATOM     15  C   UNL     1     -12.254   7.581 130.353  0.00  0.00    +0.000 A 
ATOM     16  C   UNL     1     -12.766   8.643 131.128  0.00  0.00    +0.000 A 
ATOM     17  C   UNL     1     -13.308   9.780 130.531  0.00  0.00    +0.000 A 
ATOM     18  C   UNL     1     -13.230   9.937 129.154  0.00  0.00    +0.000 A 
ATOM     19  C   UNL     1     -12.623   8.946 128.380  0.00  0.00    +0.000 A 
ATOM     20  C   UNL     1     -12.100   7.764 128.959  0.00  0.00    +0.000 A 
BRANCH  20  21
ATOM     21  C   UNL     1     -11.427   6.782 128.011  0.00  0.00    +0.000 C 
BRANCH  21  22
ATOM     22  N   UNL     1      -9.991   6.676 128.162  0.00  0.00    +0.000 NA
ATOM     23  H   UNL     1      -9.590   7.528 128.542  0.00  0.00    +0.000 HD
ATOM     24  H   UNL     1      -9.481   6.334 127.360  0.00  0.00    +0.000 HD
ENDBRANCH  21  22
ENDBRANCH  20  21
ENDBRANCH  14  15
ENDBRANCH  11  14
ENDBRANCH   9  10
BRANCH   5  25
ATOM     25  C   UNL     1      -4.087   6.268 130.132  0.00  0.00    +0.000 C 
ATOM     26  OXT UNL     1      -3.199   6.402 130.964  0.00  0.00    +0.000 OA
BRANCH  25  27
ATOM     27  O   UNL     1      -4.224   7.186 129.159  0.00  0.00    +0.000 OA
ATOM     28  H   UNL     1      -3.672   7.989 129.225  0.00  0.00    +0.000 HD
ENDBRANCH  25  27
ENDBRANCH   5  25
BRANCH   4  29
ATOM     29  C   UNL     1      -3.420   3.657 128.961  0.00  0.00    +0.000 C 
BRANCH  29  30
ATOM     30  S   UNL     1      -3.205   3.938 127.146  0.00  0.00    +0.000 S 
BRANCH  30  31
ATOM     31  C   UNL     1      -4.491   3.046 126.322  0.00  0.00    +0.000 A 
ATOM     32  N   UNL     1      -4.454   1.731 126.262  0.00  0.00    +0.000 NA
ATOM     33  N   UNL     1      -5.673   1.314 125.808  0.00  0.00    +0.000 NA
ATOM     34  N   UNL     1      -6.474   2.343 125.606  0.00  0.00    +0.000 NA
ATOM     35  N   UNL     1      -5.766   3.455 125.944  0.00  0.00    +0.000 N 
BRANCH  35  36
ATOM     36  C   UNL     1      -6.532   4.692 125.808  0.00  0.00    +0.000 C 
BRANCH  36  37
ATOM     37  C   UNL     1      -7.962   4.734 125.375  0.00  0.00    +0.000 C 
ATOM     38  O   UNL     1      -8.811   5.389 125.966  0.00  0.00    +0.000 OA
BRANCH  37  39
ATOM     39  O   UNL     1      -8.332   4.037 124.309  0.00  0.00    +0.000 OA
ATOM     40  H   UNL     1      -8.589   4.592 123.555  0.00  0.00    +0.000 HD
ENDBRANCH  37  39
ENDBRANCH  36  37
ENDBRANCH  35  36
ENDBRANCH  30  31
ENDBRANCH  29  30
ENDBRANCH   4  29
TORSDOF 13
ENDMDL
MODEL 3
REMARK VINA RESULT:      -7.8      1.494      1.851
REMARK  Name = Ceforanide
REMARK  13 active torsions:
REMARK  status: ('A' for Active; 'I' for Inactive)
REMARK    1  A    between atoms: C_5  and  C_6
REMARK    2  A    between atoms: C_6  and  S_7
REMARK    3  A    between atoms: S_7  and  C_8
REMARK    4  A    between atoms: N_12  and  C_13
REMARK    5  A    between atoms: C_13  and  C_14
REMARK    6  A    between atoms: C_14  and  O_15
REMARK    7  A    between atoms: CA_17  and  C_34
REMARK    8  A    between atoms: CA_21  and  N_22
REMARK    9  A    between atoms: C_23  and  C_25
REMARK   10  A    between atoms: C_25  and  C_26
REMARK   11  A    between atoms: C_31  and  C_32
REMARK   12  A    between atoms: C_32  and  N_33
REMARK   13  A    between atoms: C_34  and  O_35
REMARK                            x       y       z     vdW  Elec       q    Type
REMARK                         _______ _______ _______ _____ _____    ______ ____
ROOT
ATOM      1  C   UNL     1      -9.013   0.872 126.701  0.00  0.00    +0.000 C 
ATOM      2  S   UNL     1      -7.769  -0.126 127.546  0.00  0.00    +0.000 S 
ATOM      3  C   UNL     1      -7.911   0.840 129.093  0.00  0.00    +0.000 C 
ATOM      4  C   UNL     1      -7.738   2.345 128.922  0.00  0.00    +0.000 C 
ATOM      5  CA  UNL     1      -7.954   2.944 127.706  0.00  0.00    +0.000 C 
ATOM      6  N   UNL     1      -8.497   2.241 126.644  0.00  0.00    +0.000 N 
ATOM      7  C   UNL     1      -8.204   2.199 125.321  0.00  0.00    +0.000 C 
ATOM      8  O   UNL     1      -7.583   2.985 124.626  0.00  0.00    +0.000 OA
ATOM      9  CA  UNL     1      -9.014   0.901 125.144  0.00  0.00    +0.000 C 
ENDROOT
BRANCH   9  10
ATOM     10  N   UNL     1      -8.469  -0.243 124.371  0.00  0.00    +0.000 N 
ATOM     11  C   UNL     1      -9.176  -0.666 123.252  0.00  0.00    +0.000 C 
ATOM     12  O   UNL     1     -10.282  -0.202 122.986  0.00  0.00    +0.000 OA
ATOM     13  H   UNL     1      -7.601  -0.711 124.623  0.00  0.00    +0.000 HD
BRANCH  11  14
ATOM     14  C   UNL     1      -8.492  -1.750 122.455  0.00  0.00    +0.000 C 
BRANCH  14  15
ATOM     15  C   UNL     1      -7.304  -2.385 123.157  0.00  0.00    +0.000 A 
ATOM     16  C   UNL     1      -6.018  -2.008 122.714  0.00  0.00    +0.000 A 
ATOM     17  C   UNL     1      -4.887  -2.740 123.070  0.00  0.00    +0.000 A 
ATOM     18  C   UNL     1      -5.000  -3.783 123.978  0.00  0.00    +0.000 A 
ATOM     19  C   UNL     1      -6.249  -4.097 124.516  0.00  0.00    +0.000 A 
ATOM     20  C   UNL     1      -7.420  -3.394 124.141  0.00  0.00    +0.000 A 
BRANCH  20  21
ATOM     21  C   UNL     1      -8.711  -3.807 124.831  0.00  0.00    +0.000 C 
BRANCH  21  22
ATOM     22  N   UNL     1      -8.756  -3.541 126.253  0.00  0.00    +0.000 NA
ATOM     23  H   UNL     1      -8.311  -4.282 126.787  0.00  0.00    +0.000 HD
ATOM     24  H   UNL     1      -9.655  -3.280 126.632  0.00  0.00    +0.000 HD
ENDBRANCH  21  22
ENDBRANCH  20  21
ENDBRANCH  14  15
ENDBRANCH  11  14
ENDBRANCH   9  10
BRANCH   5  25
ATOM     25  C   UNL     1      -7.600   4.418 127.535  0.00  0.00    +0.000 C 
ATOM     26  OXT UNL     1      -6.456   4.819 127.367  0.00  0.00    +0.000 OA
BRANCH  25  27
ATOM     27  O   UNL     1      -8.601   5.310 127.652  0.00  0.00    +0.000 OA
ATOM     28  H   UNL     1      -9.160   5.245 128.450  0.00  0.00    +0.000 HD
ENDBRANCH  25  27
ENDBRANCH   5  25
BRANCH   4  29
ATOM     29  C   UNL     1      -7.251   3.163 130.168  0.00  0.00    +0.000 C 
BRANCH  29  30
ATOM     30  S   UNL     1      -8.527   3.773 131.359  0.00  0.00    +0.000 S 
BRANCH  30  31
ATOM     31  C   UNL     1      -8.884   5.451 130.931  0.00  0.00    +0.000 A 
ATOM     32  N   UNL     1      -7.907   6.280 130.620  0.00  0.00    +0.000 NA
ATOM     33  N   UNL     1      -8.483   7.402 130.095  0.00  0.00    +0.000 NA
ATOM     34  N   UNL     1      -9.795   7.277 130.051  0.00  0.00    +0.000 NA
ATOM     35  N   UNL     1     -10.083   6.045 130.550  0.00  0.00    +0.000 N 
BRANCH  35  36
ATOM     36  C   UNL     1     -11.512   5.734 130.539  0.00  0.00    +0.000 C 
BRANCH  36  37
ATOM     37  C   UNL     1     -12.582   6.775 130.601  0.00  0.00    +0.000 C 
ATOM     38  O   UNL     1     -13.062   7.165 131.658  0.00  0.00    +0.000 OA
BRANCH  37  39
ATOM     39  O   UNL     1     -13.034   7.303 129.471  0.00  0.00    +0.000 OA
ATOM     40  H   UNL     1     -12.415   7.931 129.065  0.00  0.00    +0.000 HD
ENDBRANCH  37  39
ENDBRANCH  36  37
ENDBRANCH  35  36
ENDBRANCH  30  31
ENDBRANCH  29  30
ENDBRANCH   4  29
TORSDOF 13
ENDMDL
MODEL 4
REMARK VINA RESULT:      -7.7      4.124      5.619
REMARK  Name = Ceforanide
REMARK  13 active torsions:
REMARK  status: ('A' for Active; 'I' for Inactive)
REMARK    1  A    between atoms: C_5  and  C_6
REMARK    2  A    between atoms: C_6  and  S_7
REMARK    3  A    between atoms: S_7  and  C_8
REMARK    4  A    between atoms: N_12  and  C_13
REMARK    5  A    between atoms: C_13  and  C_14
REMARK    6  A    between atoms: C_14  and  O_15
REMARK    7  A    between atoms: CA_17  and  C_34
REMARK    8  A    between atoms: CA_21  and  N_22
REMARK    9  A    between atoms: C_23  and  C_25
REMARK   10  A    between atoms: C_25  and  C_26
REMARK   11  A    between atoms: C_31  and  C_32
REMARK   12  A    between atoms: C_32  and  N_33
REMARK   13  A    between atoms: C_34  and  O_35
REMARK                            x       y       z     vdW  Elec       q    Type
REMARK                         _______ _______ _______ _____ _____    ______ ____
ROOT
ATOM      1  C   UNL     1      -6.152   2.410 130.498  0.00  0.00    +0.000 C 
ATOM      2  S   UNL     1      -7.022   2.642 128.933  0.00  0.00    +0.000 S 
ATOM      3  C   UNL     1      -7.643   4.293 129.417  0.00  0.00    +0.000 C 
ATOM      4  C   UNL     1      -8.383   4.331 130.749  0.00  0.00    +0.000 C 
ATOM      5  CA  UNL     1      -8.171   3.362 131.699  0.00  0.00    +0.000 C 
ATOM      6  N   UNL     1      -7.163   2.423 131.557  0.00  0.00    +0.000 N 
ATOM      7  C   UNL     1      -7.110   1.088 131.783  0.00  0.00    +0.000 C 
ATOM      8  O   UNL     1      -7.830   0.374 132.461  0.00  0.00    +0.000 OA
ATOM      9  CA  UNL     1      -5.817   0.960 130.956  0.00  0.00    +0.000 C 
ENDROOT
BRANCH   9  10
ATOM     10  N   UNL     1      -5.651  -0.124 129.957  0.00  0.00    +0.000 N 
ATOM     11  C   UNL     1      -5.164  -1.349 130.403  0.00  0.00    +0.000 C 
ATOM     12  O   UNL     1      -4.759  -1.490 131.553  0.00  0.00    +0.000 OA
ATOM     13  H   UNL     1      -5.890  -0.007 128.976  0.00  0.00    +0.000 HD
BRANCH  11  14
ATOM     14  C   UNL     1      -5.142  -2.430 129.350  0.00  0.00    +0.000 C 
BRANCH  14  15
ATOM     15  C   UNL     1      -6.437  -2.568 128.569  0.00  0.00    +0.000 A 
ATOM     16  C   UNL     1      -7.533  -3.153 129.239  0.00  0.00    +0.000 A 
ATOM     17  C   UNL     1      -8.653  -3.599 128.541  0.00  0.00    +0.000 A 
ATOM     18  C   UNL     1      -8.758  -3.354 127.179  0.00  0.00    +0.000 A 
ATOM     19  C   UNL     1      -7.732  -2.674 126.519  0.00  0.00    +0.000 A 
ATOM     20  C   UNL     1      -6.566  -2.244 127.199  0.00  0.00    +0.000 A 
BRANCH  20  21
ATOM     21  C   UNL     1      -5.542  -1.478 126.375  0.00  0.00    +0.000 C 
BRANCH  21  22
ATOM     22  N   UNL     1      -5.240  -0.148 126.860  0.00  0.00    +0.000 NA
ATOM     23  H   UNL     1      -4.732   0.397 126.169  0.00  0.00    +0.000 HD
ATOM     24  H   UNL     1      -4.822  -0.091 127.778  0.00  0.00    +0.000 HD
ENDBRANCH  21  22
ENDBRANCH  20  21
ENDBRANCH  14  15
ENDBRANCH  11  14
ENDBRANCH   9  10
BRANCH   5  25
ATOM     25  C   UNL     1      -9.058   3.337 132.940  0.00  0.00    +0.000 C 
ATOM     26  OXT UNL     1      -8.789   3.941 133.970  0.00  0.00    +0.000 OA
BRANCH  25  27
ATOM     27  O   UNL     1     -10.146   2.546 132.904  0.00  0.00    +0.000 OA
ATOM     28  H   UNL     1     -10.674   2.555 132.083  0.00  0.00    +0.000 HD
ENDBRANCH  25  27
ENDBRANCH   5  25
BRANCH   4  29
ATOM     29  C   UNL     1      -9.429   5.479 130.963  0.00  0.00    +0.000 C 
BRANCH  29  30
ATOM     30  S   UNL     1     -11.168   5.183 130.409  0.00  0.00    +0.000 S 
BRANCH  30  31
ATOM     31  C   UNL     1     -11.860   6.755 129.989  0.00  0.00    +0.000 A 
ATOM     32  N   UNL     1     -12.654   7.379 130.835  0.00  0.00    +0.000 NA
ATOM     33  N   UNL     1     -12.822   8.651 130.366  0.00  0.00    +0.000 NA
ATOM     34  N   UNL     1     -12.129   8.836 129.259  0.00  0.00    +0.000 NA
ATOM     35  N   UNL     1     -11.488   7.663 129.003  0.00  0.00    +0.000 N 
BRANCH  35  36
ATOM     36  C   UNL     1     -10.641   7.714 127.813  0.00  0.00    +0.000 C 
BRANCH  36  37
ATOM     37  C   UNL     1     -11.147   7.460 126.429  0.00  0.00    +0.000 C 
ATOM     38  O   UNL     1     -10.732   8.071 125.453  0.00  0.00    +0.000 OA
BRANCH  37  39
ATOM     39  O   UNL     1     -12.080   6.536 126.245  0.00  0.00    +0.000 OA
ATOM     40  H   UNL     1     -12.830   6.846 125.712  0.00  0.00    +0.000 HD
ENDBRANCH  37  39
ENDBRANCH  36  37
ENDBRANCH  35  36
ENDBRANCH  30  31
ENDBRANCH  29  30
ENDBRANCH   4  29
TORSDOF 13
ENDMDL
MODEL 5
REMARK VINA RESULT:      -7.6      3.323      4.419
REMARK  Name = Ceforanide
REMARK  13 active torsions:
REMARK  status: ('A' for Active; 'I' for Inactive)
REMARK    1  A    between atoms: C_5  and  C_6
REMARK    2  A    between atoms: C_6  and  S_7
REMARK    3  A    between atoms: S_7  and  C_8
REMARK    4  A    between atoms: N_12  and  C_13
REMARK    5  A    between atoms: C_13  and  C_14
REMARK    6  A    between atoms: C_14  and  O_15
REMARK    7  A    between atoms: CA_17  and  C_34
REMARK    8  A    between atoms: CA_21  and  N_22
REMARK    9  A    between atoms: C_23  and  C_25
REMARK   10  A    between atoms: C_25  and  C_26
REMARK   11  A    between atoms: C_31  and  C_32
REMARK   12  A    between atoms: C_32  and  N_33
REMARK   13  A    between atoms: C_34  and  O_35
REMARK                            x       y       z     vdW  Elec       q    Type
REMARK                         _______ _______ _______ _____ _____    ______ ____
ROOT
ATOM      1  C   UNL     1      -6.404   2.027 128.912  0.00  0.00    +0.000 C 
ATOM      2  S   UNL     1      -7.524   2.898 127.794  0.00  0.00    +0.000 S 
ATOM      3  C   UNL     1      -8.087   4.045 129.103  0.00  0.00    +0.000 C 
ATOM      4  C   UNL     1      -8.599   3.366 130.368  0.00  0.00    +0.000 C 
ATOM      5  CA  UNL     1      -8.217   2.085 130.683  0.00  0.00    +0.000 C 
ATOM      6  N   UNL     1      -7.229   1.432 129.966  0.00  0.00    +0.000 N 
ATOM      7  C   UNL     1      -7.114   0.165 129.500  0.00  0.00    +0.000 C 
ATOM      8  O   UNL     1      -7.699  -0.852 129.831  0.00  0.00    +0.000 OA
ATOM      9  CA  UNL     1      -5.972   0.576 128.552  0.00  0.00    +0.000 C 
ENDROOT
BRANCH   9  10
ATOM     10  N   UNL     1      -5.951   0.127 127.137  0.00  0.00    +0.000 N 
ATOM     11  C   UNL     1      -5.474  -1.152 126.869  0.00  0.00    +0.000 C 
ATOM     12  O   UNL     1      -4.962  -1.837 127.750  0.00  0.00    +0.000 OA
ATOM     13  H   UNL     1      -6.283   0.709 126.372  0.00  0.00    +0.000 HD
BRANCH  11  14
ATOM     14  C   UNL     1      -5.602  -1.574 125.426  0.00  0.00    +0.000 C 
BRANCH  14  15
ATOM     15  C   UNL     1      -7.012  -1.955 125.009  0.00  0.00    +0.000 A 
ATOM     16  C   UNL     1      -7.539  -3.151 125.541  0.00  0.00    +0.000 A 
ATOM     17  C   UNL     1      -8.679  -3.743 125.001  0.00  0.00    +0.000 A 
ATOM     18  C   UNL     1      -9.388  -3.087 124.005  0.00  0.00    +0.000 A 
ATOM     19  C   UNL     1      -8.944  -1.846 123.545  0.00  0.00    +0.000 A 
ATOM     20  C   UNL     1      -7.768  -1.241 124.050  0.00  0.00    +0.000 A 
BRANCH  20  21
ATOM     21  C   UNL     1      -7.416   0.130 123.495  0.00  0.00    +0.000 C 
BRANCH  21  22
ATOM     22  N   UNL     1      -7.513   1.217 124.446  0.00  0.00    +0.000 NA
ATOM     23  H   UNL     1      -7.478   2.123 123.986  0.00  0.00    +0.000 HD
ATOM     24  H   UNL     1      -6.899   1.169 125.246  0.00  0.00    +0.000 HD
ENDBRANCH  21  22
ENDBRANCH  20  21
ENDBRANCH  14  15
ENDBRANCH  11  14
ENDBRANCH   9  10
BRANCH   5  25
ATOM     25  C   UNL     1      -8.887   1.381 131.859  0.00  0.00    +0.000 C 
ATOM     26  OXT UNL     1      -8.484   1.467 133.011  0.00  0.00    +0.000 OA
BRANCH  25  27
ATOM     27  O   UNL     1      -9.926   0.572 131.582  0.00  0.00    +0.000 OA
ATOM     28  H   UNL     1      -9.722  -0.277 131.145  0.00  0.00    +0.000 HD
ENDBRANCH  25  27
ENDBRANCH   5  25
BRANCH   4  29
ATOM     29  C   UNL     1      -9.617   4.163 131.255  0.00  0.00    +0.000 C 
BRANCH  29  30
ATOM     30  S   UNL     1      -9.496   6.007 131.273  0.00  0.00    +0.000 S 
BRANCH  30  31
ATOM     31  C   UNL     1     -11.111   6.643 130.939  0.00  0.00    +0.000 A 
ATOM     32  N   UNL     1     -12.084   6.478 131.813  0.00  0.00    +0.000 NA
ATOM     33  N   UNL     1     -13.120   7.276 131.418  0.00  0.00    +0.000 NA
ATOM     34  N   UNL     1     -12.801   7.951 130.330  0.00  0.00    +0.000 NA
ATOM     35  N   UNL     1     -11.528   7.593 130.012  0.00  0.00    +0.000 N 
BRANCH  35  36
ATOM     36  C   UNL     1     -11.008   8.286 128.835  0.00  0.00    +0.000 C 
BRANCH  36  37
ATOM     37  C   UNL     1     -10.591   7.586 127.582  0.00  0.00    +0.000 C 
ATOM     38  O   UNL     1      -9.965   6.534 127.591  0.00  0.00    +0.000 OA
BRANCH  37  39
ATOM     39  O   UNL     1     -10.911   8.120 126.411  0.00  0.00    +0.000 OA
ATOM     40  H   UNL     1     -11.864   8.278 126.306  0.00  0.00    +0.000 HD
ENDBRANCH  37  39
ENDBRANCH  36  37
ENDBRANCH  35  36
ENDBRANCH  30  31
ENDBRANCH  29  30
ENDBRANCH   4  29
TORSDOF 13
ENDMDL
MODEL 6
REMARK VINA RESULT:      -7.4      2.208      3.289
REMARK  Name = Ceforanide
REMARK  13 active torsions:
REMARK  status: ('A' for Active; 'I' for Inactive)
REMARK    1  A    between atoms: C_5  and  C_6
REMARK    2  A    between atoms: C_6  and  S_7
REMARK    3  A    between atoms: S_7  and  C_8
REMARK    4  A    between atoms: N_12  and  C_13
REMARK    5  A    between atoms: C_13  and  C_14
REMARK    6  A    between atoms: C_14  and  O_15
REMARK    7  A    between atoms: CA_17  and  C_34
REMARK    8  A    between atoms: CA_21  and  N_22
REMARK    9  A    between atoms: C_23  and  C_25
REMARK   10  A    between atoms: C_25  and  C_26
REMARK   11  A    between atoms: C_31  and  C_32
REMARK   12  A    between atoms: C_32  and  N_33
REMARK   13  A    between atoms: C_34  and  O_35
REMARK                            x       y       z     vdW  Elec       q    Type
REMARK                         _______ _______ _______ _____ _____    ______ ____
ROOT
ATOM      1  C   UNL     1      -7.849   2.948 127.093  0.00  0.00    +0.000 C 
ATOM      2  S   UNL     1      -8.250   1.420 127.968  0.00  0.00    +0.000 S 
ATOM      3  C   UNL     1      -8.841   2.315 129.450  0.00  0.00    +0.000 C 
ATOM      4  C   UNL     1      -7.851   3.322 130.024  0.00  0.00    +0.000 C 
ATOM      5  CA  UNL     1      -6.855   3.853 129.242  0.00  0.00    +0.000 C 
ATOM      6  N   UNL     1      -6.818   3.632 127.875  0.00  0.00    +0.000 N 
ATOM      7  C   UNL     1      -5.810   3.342 127.016  0.00  0.00    +0.000 C 
ATOM      8  O   UNL     1      -4.606   3.487 127.136  0.00  0.00    +0.000 OA
ATOM      9  CA  UNL     1      -6.810   2.892 125.935  0.00  0.00    +0.000 C 
ENDROOT
BRANCH   9  10
ATOM     10  N   UNL     1      -6.602   1.637 125.172  0.00  0.00    +0.000 N 
ATOM     11  C   UNL     1      -7.317   1.468 123.991  0.00  0.00    +0.000 C 
ATOM     12  O   UNL     1      -8.190   2.264 123.658  0.00  0.00    +0.000 OA
ATOM     13  H   UNL     1      -5.952   0.914 125.472  0.00  0.00    +0.000 HD
BRANCH  11  14
ATOM     14  C   UNL     1      -6.955   0.224 123.216  0.00  0.00    +0.000 C 
BRANCH  14  15
ATOM     15  C   UNL     1      -7.701  -1.024 123.656  0.00  0.00    +0.000 A 
ATOM     16  C   UNL     1      -7.032  -1.894 124.542  0.00  0.00    +0.000 A 
ATOM     17  C   UNL     1      -7.490  -3.192 124.765  0.00  0.00    +0.000 A 
ATOM     18  C   UNL     1      -8.694  -3.601 124.210  0.00  0.00    +0.000 A 
ATOM     19  C   UNL     1      -9.428  -2.713 123.422  0.00  0.00    +0.000 A 
ATOM     20  C   UNL     1      -8.966  -1.402 123.149  0.00  0.00    +0.000 A 
BRANCH  20  21
ATOM     21  C   UNL     1      -9.879  -0.520 122.311  0.00  0.00    +0.000 C 
BRANCH  21  22
ATOM     22  N   UNL     1     -10.619   0.475 123.057  0.00  0.00    +0.000 NA
ATOM     23  H   UNL     1     -10.136   1.368 123.073  0.00  0.00    +0.000 HD
ATOM     24  H   UNL     1     -10.946   0.197 123.972  0.00  0.00    +0.000 HD
ENDBRANCH  21  22
ENDBRANCH  20  21
ENDBRANCH  14  15
ENDBRANCH  11  14
ENDBRANCH   9  10
BRANCH   5  25
ATOM     25  C   UNL     1      -5.782   4.717 129.897  0.00  0.00    +0.000 C 
ATOM     26  OXT UNL     1      -4.818   4.254 130.492  0.00  0.00    +0.000 OA
BRANCH  25  27
ATOM     27  O   UNL     1      -5.964   6.050 129.872  0.00  0.00    +0.000 OA
ATOM     28  H   UNL     1      -6.751   6.381 129.398  0.00  0.00    +0.000 HD
ENDBRANCH  25  27
ENDBRANCH   5  25
BRANCH   4  29
ATOM     29  C   UNL     1      -7.979   3.676 131.546  0.00  0.00    +0.000 C 
BRANCH  29  30
ATOM     30  S   UNL     1      -9.451   4.654 132.088  0.00  0.00    +0.000 S 
BRANCH  30  31
ATOM     31  C   UNL     1      -9.498   6.121 131.102  0.00  0.00    +0.000 A 
ATOM     32  N   UNL     1      -8.426   6.880 130.988  0.00  0.00    +0.000 NA
ATOM     33  N   UNL     1      -8.672   7.775 129.985  0.00  0.00    +0.000 NA
ATOM     34  N   UNL     1      -9.865   7.573 129.459  0.00  0.00    +0.000 NA
ATOM     35  N   UNL     1     -10.407   6.518 130.126  0.00  0.00    +0.000 N 
BRANCH  35  36
ATOM     36  C   UNL     1     -11.731   6.141 129.635  0.00  0.00    +0.000 C 
BRANCH  36  37
ATOM     37  C   UNL     1     -12.425   6.843 128.513  0.00  0.00    +0.000 C 
ATOM     38  O   UNL     1     -12.189   6.601 127.336  0.00  0.00    +0.000 OA
BRANCH  37  39
ATOM     39  O   UNL     1     -13.335   7.765 128.796  0.00  0.00    +0.000 OA
ATOM     40  H   UNL     1     -14.180   7.394 129.100  0.00  0.00    +0.000 HD
ENDBRANCH  37  39
ENDBRANCH  36  37
ENDBRANCH  35  36
ENDBRANCH  30  31
ENDBRANCH  29  30
ENDBRANCH   4  29
TORSDOF 13
ENDMDL
MODEL 7
REMARK VINA RESULT:      -7.4      2.898      3.474
REMARK  Name = Ceforanide
REMARK  13 active torsions:
REMARK  status: ('A' for Active; 'I' for Inactive)
REMARK    1  A    between atoms: C_5  and  C_6
REMARK    2  A    between atoms: C_6  and  S_7
REMARK    3  A    between atoms: S_7  and  C_8
REMARK    4  A    between atoms: N_12  and  C_13
REMARK    5  A    between atoms: C_13  and  C_14
REMARK    6  A    between atoms: C_14  and  O_15
REMARK    7  A    between atoms: CA_17  and  C_34
REMARK    8  A    between atoms: CA_21  and  N_22
REMARK    9  A    between atoms: C_23  and  C_25
REMARK   10  A    between atoms: C_25  and  C_26
REMARK   11  A    between atoms: C_31  and  C_32
REMARK   12  A    between atoms: C_32  and  N_33
REMARK   13  A    between atoms: C_34  and  O_35
REMARK                            x       y       z     vdW  Elec       q    Type
REMARK                         _______ _______ _______ _____ _____    ______ ____
ROOT
ATOM      1  C   UNL     1      -8.668   0.855 127.320  0.00  0.00    +0.000 C 
ATOM      2  S   UNL     1      -7.162  -0.024 127.790  0.00  0.00    +0.000 S 
ATOM      3  C   UNL     1      -7.029   0.867 129.382  0.00  0.00    +0.000 C 
ATOM      4  C   UNL     1      -7.058   2.386 129.267  0.00  0.00    +0.000 C 
ATOM      5  CA  UNL     1      -7.618   2.999 128.173  0.00  0.00    +0.000 C 
ATOM      6  N   UNL     1      -8.324   2.275 127.227  0.00  0.00    +0.000 N 
ATOM      7  C   UNL     1      -8.353   2.311 125.872  0.00  0.00    +0.000 C 
ATOM      8  O   UNL     1      -7.999   3.186 125.100  0.00  0.00    +0.000 OA
ATOM      9  CA  UNL     1      -9.043   0.936 125.811  0.00  0.00    +0.000 C 
ENDROOT
BRANCH   9  10
ATOM     10  N   UNL     1      -8.584  -0.111 124.865  0.00  0.00    +0.000 N 
ATOM     11  C   UNL     1      -9.212  -0.187 123.626  0.00  0.00    +0.000 C 
ATOM     12  O   UNL     1     -10.200   0.496 123.372  0.00  0.00    +0.000 OA
ATOM     13  H   UNL     1      -7.828  -0.754 125.085  0.00  0.00    +0.000 HD
BRANCH  11  14
ATOM     14  C   UNL     1      -8.604  -1.195 122.682  0.00  0.00    +0.000 C 
BRANCH  14  15
ATOM     15  C   UNL     1      -7.548  -2.085 123.313  0.00  0.00    +0.000 A 
ATOM     16  C   UNL     1      -6.198  -1.779 123.034  0.00  0.00    +0.000 A 
ATOM     17  C   UNL     1      -5.179  -2.691 123.304  0.00  0.00    +0.000 A 
ATOM     18  C   UNL     1      -5.471  -3.869 123.976  0.00  0.00    +0.000 A 
ATOM     19  C   UNL     1      -6.786  -4.136 124.361  0.00  0.00    +0.000 A 
ATOM     20  C   UNL     1      -7.845  -3.244 124.065  0.00  0.00    +0.000 A 
BRANCH  20  21
ATOM     21  C   UNL     1      -9.224  -3.632 124.577  0.00  0.00    +0.000 C 
BRANCH  21  22
ATOM     22  N   UNL     1      -9.679  -2.886 125.731  0.00  0.00    +0.000 NA
ATOM     23  H   UNL     1      -8.982  -2.877 126.471  0.00  0.00    +0.000 HD
ATOM     24  H   UNL     1     -10.602  -3.109 126.074  0.00  0.00    +0.000 HD
ENDBRANCH  21  22
ENDBRANCH  20  21
ENDBRANCH  14  15
ENDBRANCH  11  14
ENDBRANCH   9  10
BRANCH   5  25
ATOM     25  C   UNL     1      -7.468   4.508 128.013  0.00  0.00    +0.000 C 
ATOM     26  OXT UNL     1      -8.241   5.316 128.510  0.00  0.00    +0.000 OA
BRANCH  25  27
ATOM     27  O   UNL     1      -6.474   4.948 127.220  0.00  0.00    +0.000 OA
ATOM     28  H   UNL     1      -5.677   4.388 127.156  0.00  0.00    +0.000 HD
ENDBRANCH  25  27
ENDBRANCH   5  25
BRANCH   4  29
ATOM     29  C   UNL     1      -6.374   3.212 130.412  0.00  0.00    +0.000 C 
BRANCH  29  30
ATOM     30  S   UNL     1      -4.532   3.368 130.388  0.00  0.00    +0.000 S 
BRANCH  30  31
ATOM     31  C   UNL     1      -4.143   4.851 129.506  0.00  0.00    +0.000 A 
ATOM     32  N   UNL     1      -3.674   4.789 128.277  0.00  0.00    +0.000 NA
ATOM     33  N   UNL     1      -3.711   6.056 127.767  0.00  0.00    +0.000 NA
ATOM     34  N   UNL     1      -4.215   6.899 128.648  0.00  0.00    +0.000 NA
ATOM     35  N   UNL     1      -4.522   6.167 129.753  0.00  0.00    +0.000 N 
BRANCH  35  36
ATOM     36  C   UNL     1      -5.129   6.957 130.821  0.00  0.00    +0.000 C 
BRANCH  36  37
ATOM     37  C   UNL     1      -6.563   6.834 131.226  0.00  0.00    +0.000 C 
ATOM     38  O   UNL     1      -6.915   6.236 132.234  0.00  0.00    +0.000 OA
BRANCH  37  39
ATOM     39  O   UNL     1      -7.496   7.393 130.467  0.00  0.00    +0.000 OA
ATOM     40  H   UNL     1      -7.526   8.362 130.543  0.00  0.00    +0.000 HD
ENDBRANCH  37  39
ENDBRANCH  36  37
ENDBRANCH  35  36
ENDBRANCH  30  31
ENDBRANCH  29  30
ENDBRANCH   4  29
TORSDOF 13
ENDMDL
MODEL 8
REMARK VINA RESULT:      -7.4      4.261      5.642
REMARK  Name = Ceforanide
REMARK  13 active torsions:
REMARK  status: ('A' for Active; 'I' for Inactive)
REMARK    1  A    between atoms: C_5  and  C_6
REMARK    2  A    between atoms: C_6  and  S_7
REMARK    3  A    between atoms: S_7  and  C_8
REMARK    4  A    between atoms: N_12  and  C_13
REMARK    5  A    between atoms: C_13  and  C_14
REMARK    6  A    between atoms: C_14  and  O_15
REMARK    7  A    between atoms: CA_17  and  C_34
REMARK    8  A    between atoms: CA_21  and  N_22
REMARK    9  A    between atoms: C_23  and  C_25
REMARK   10  A    between atoms: C_25  and  C_26
REMARK   11  A    between atoms: C_31  and  C_32
REMARK   12  A    between atoms: C_32  and  N_33
REMARK   13  A    between atoms: C_34  and  O_35
REMARK                            x       y       z     vdW  Elec       q    Type
REMARK                         _______ _______ _______ _____ _____    ______ ____
ROOT
ATOM      1  C   UNL     1      -6.032   1.961 130.789  0.00  0.00    +0.000 C 
ATOM      2  S   UNL     1      -6.786   2.309 129.185  0.00  0.00    +0.000 S 
ATOM      3  C   UNL     1      -7.074   4.067 129.598  0.00  0.00    +0.000 C 
ATOM      4  C   UNL     1      -7.834   4.300 130.899  0.00  0.00    +0.000 C 
ATOM      5  CA  UNL     1      -7.855   3.343 131.883  0.00  0.00    +0.000 C 
ATOM      6  N   UNL     1      -7.054   2.215 131.806  0.00  0.00    +0.000 N 
ATOM      7  C   UNL     1      -7.280   0.906 132.072  0.00  0.00    +0.000 C 
ATOM      8  O   UNL     1      -8.151   0.376 132.741  0.00  0.00    +0.000 OA
ATOM      9  CA  UNL     1      -6.013   0.491 131.300  0.00  0.00    +0.000 C 
ENDROOT
BRANCH   9  10
ATOM     10  N   UNL     1      -6.038  -0.639 130.339  0.00  0.00    +0.000 N 
ATOM     11  C   UNL     1      -4.970  -1.530 130.357  0.00  0.00    +0.000 C 
ATOM     12  O   UNL     1      -3.976  -1.317 131.047  0.00  0.00    +0.000 OA
ATOM     13  H   UNL     1      -6.804  -0.789 129.688  0.00  0.00    +0.000 HD
BRANCH  11  14
ATOM     14  C   UNL     1      -5.131  -2.715 129.437  0.00  0.00    +0.000 C 
BRANCH  14  15
ATOM     15  C   UNL     1      -6.436  -2.728 128.659  0.00  0.00    +0.000 A 
ATOM     16  C   UNL     1      -7.528  -3.403 129.245  0.00  0.00    +0.000 A 
ATOM     17  C   UNL     1      -8.658  -3.734 128.500  0.00  0.00    +0.000 A 
ATOM     18  C   UNL     1      -8.776  -3.284 127.193  0.00  0.00    +0.000 A 
ATOM     19  C   UNL     1      -7.754  -2.516 126.633  0.00  0.00    +0.000 A 
ATOM     20  C   UNL     1      -6.578  -2.199 127.356  0.00  0.00    +0.000 A 
BRANCH  20  21
ATOM     21  C   UNL     1      -5.559  -1.320 126.646  0.00  0.00    +0.000 C 
BRANCH  21  22
ATOM     22  N   UNL     1      -5.538  -1.454 125.204  0.00  0.00    +0.000 NA
ATOM     23  H   UNL     1      -6.446  -1.253 124.795  0.00  0.00    +0.000 HD
ATOM     24  H   UNL     1      -5.131  -2.303 124.839  0.00  0.00    +0.000 HD
ENDBRANCH  21  22
ENDBRANCH  20  21
ENDBRANCH  14  15
ENDBRANCH  11  14
ENDBRANCH   9  10
BRANCH   5  25
ATOM     25  C   UNL     1      -8.768   3.541 133.088  0.00  0.00    +0.000 C 
ATOM     26  OXT UNL     1      -8.431   4.153 134.093  0.00  0.00    +0.000 OA
BRANCH  25  27
ATOM     27  O   UNL     1      -9.972   2.940 133.055  0.00  0.00    +0.000 OA
ATOM     28  H   UNL     1     -10.073   2.184 132.445  0.00  0.00    +0.000 HD
ENDBRANCH  25  27
ENDBRANCH   5  25
BRANCH   4  29
ATOM     29  C   UNL     1      -8.633   5.642 131.039  0.00  0.00    +0.000 C 
BRANCH  29  30
ATOM     30  S   UNL     1     -10.387   5.673 130.458  0.00  0.00    +0.000 S 
BRANCH  30  31
ATOM     31  C   UNL     1     -10.387   6.348 128.824  0.00  0.00    +0.000 A 
ATOM     32  N   UNL     1      -9.489   5.955 127.943  0.00  0.00    +0.000 NA
ATOM     33  N   UNL     1      -9.882   6.435 126.726  0.00  0.00    +0.000 NA
ATOM     34  N   UNL     1     -11.017   7.098 126.829  0.00  0.00    +0.000 NA
ATOM     35  N   UNL     1     -11.379   7.043 128.140  0.00  0.00    +0.000 N 
BRANCH  35  36
ATOM     36  C   UNL     1     -12.649   7.710 128.419  0.00  0.00    +0.000 C 
BRANCH  36  37
ATOM     37  C   UNL     1     -12.783   8.877 129.343  0.00  0.00    +0.000 C 
ATOM     38  O   UNL     1     -12.794   8.755 130.562  0.00  0.00    +0.000 OA
BRANCH  37  39
ATOM     39  O   UNL     1     -12.894  10.094 128.831  0.00  0.00    +0.000 OA
ATOM     40  H   UNL     1     -12.155  10.337 128.248  0.00  0.00    +0.000 HD
ENDBRANCH  37  39
ENDBRANCH  36  37
ENDBRANCH  35  36
ENDBRANCH  30  31
ENDBRANCH  29  30
ENDBRANCH   4  29
TORSDOF 13
ENDMDL
MODEL 9
REMARK VINA RESULT:      -7.4      2.648      4.064
REMARK  Name = Ceforanide
REMARK  13 active torsions:
REMARK  status: ('A' for Active; 'I' for Inactive)
REMARK    1  A    between atoms: C_5  and  C_6
REMARK    2  A    between atoms: C_6  and  S_7
REMARK    3  A    between atoms: S_7  and  C_8
REMARK    4  A    between atoms: N_12  and  C_13
REMARK    5  A    between atoms: C_13  and  C_14
REMARK    6  A    between atoms: C_14  and  O_15
REMARK    7  A    between atoms: CA_17  and  C_34
REMARK    8  A    between atoms: CA_21  and  N_22
REMARK    9  A    between atoms: C_23  and  C_25
REMARK   10  A    between atoms: C_25  and  C_26
REMARK   11  A    between atoms: C_31  and  C_32
REMARK   12  A    between atoms: C_32  and  N_33
REMARK   13  A    between atoms: C_34  and  O_35
REMARK                            x       y       z     vdW  Elec       q    Type
REMARK                         _______ _______ _______ _____ _____    ______ ____
ROOT
ATOM      1  C   UNL     1      -9.103   0.984 126.356  0.00  0.00    +0.000 C 
ATOM      2  S   UNL     1      -7.796   0.147 127.279  0.00  0.00    +0.000 S 
ATOM      3  C   UNL     1      -7.884   1.339 128.663  0.00  0.00    +0.000 C 
ATOM      4  C   UNL     1      -7.755   2.802 128.254  0.00  0.00    +0.000 C 
ATOM      5  CA  UNL     1      -8.043   3.202 126.973  0.00  0.00    +0.000 C 
ATOM      6  N   UNL     1      -8.622   2.335 126.062  0.00  0.00    +0.000 N 
ATOM      7  C   UNL     1      -8.394   2.092 124.748  0.00  0.00    +0.000 C 
ATOM      8  O   UNL     1      -7.826   2.771 123.908  0.00  0.00    +0.000 OA
ATOM      9  CA  UNL     1      -9.181   0.770 124.815  0.00  0.00    +0.000 C 
ENDROOT
BRANCH   9  10
ATOM     10  N   UNL     1      -8.648  -0.471 124.200  0.00  0.00    +0.000 N 
ATOM     11  C   UNL     1      -9.244  -0.922 123.027  0.00  0.00    +0.000 C 
ATOM     12  O   UNL     1     -10.260  -0.392 122.587  0.00  0.00    +0.000 OA
ATOM     13  H   UNL     1      -7.865  -0.986 124.595  0.00  0.00    +0.000 HD
BRANCH  11  14
ATOM     14  C   UNL     1      -8.565  -2.117 122.404  0.00  0.00    +0.000 C 
BRANCH  14  15
ATOM     15  C   UNL     1      -7.302  -2.561 123.120  0.00  0.00    +0.000 A 
ATOM     16  C   UNL     1      -6.073  -2.088 122.611  0.00  0.00    +0.000 A 
ATOM     17  C   UNL     1      -4.862  -2.664 122.991  0.00  0.00    +0.000 A 
ATOM     18  C   UNL     1      -4.844  -3.633 123.984  0.00  0.00    +0.000 A 
ATOM     19  C   UNL     1      -6.041  -4.033 124.581  0.00  0.00    +0.000 A 
ATOM     20  C   UNL     1      -7.288  -3.491 124.185  0.00  0.00    +0.000 A 
BRANCH  20  21
ATOM     21  C   UNL     1      -8.513  -3.980 124.943  0.00  0.00    +0.000 C 
BRANCH  21  22
ATOM     22  N   UNL     1      -9.039  -3.049 125.918  0.00  0.00    +0.000 NA
ATOM     23  H   UNL     1      -8.854  -3.357 126.869  0.00  0.00    +0.000 HD
ATOM     24  H   UNL     1      -9.997  -2.758 125.789  0.00  0.00    +0.000 HD
ENDBRANCH  21  22
ENDBRANCH  20  21
ENDBRANCH  14  15
ENDBRANCH  11  14
ENDBRANCH   9  10
BRANCH   5  25
ATOM     25  C   UNL     1      -7.733   4.637 126.559  0.00  0.00    +0.000 C 
ATOM     26  OXT UNL     1      -8.591   5.500 126.433  0.00  0.00    +0.000 OA
BRANCH  25  27
ATOM     27  O   UNL     1      -6.456   4.926 126.248  0.00  0.00    +0.000 OA
ATOM     28  H   UNL     1      -5.889   5.261 126.968  0.00  0.00    +0.000 HD
ENDBRANCH  25  27
ENDBRANCH   5  25
BRANCH   4  29
ATOM     29  C   UNL     1      -7.226   3.810 129.332  0.00  0.00    +0.000 C 
BRANCH  29  30
ATOM     30  S   UNL     1      -5.408   3.851 129.665  0.00  0.00    +0.000 S 
BRANCH  30  31
ATOM     31  C   UNL     1      -4.854   5.501 129.352  0.00  0.00    +0.000 A 
ATOM     32  N   UNL     1      -5.370   6.513 130.020  0.00  0.00    +0.000 NA
ATOM     33  N   UNL     1      -4.589   7.604 129.765  0.00  0.00    +0.000 NA
ATOM     34  N   UNL     1      -3.586   7.285 128.970  0.00  0.00    +0.000 NA
ATOM     35  N   UNL     1      -3.708   5.956 128.708  0.00  0.00    +0.000 N 
BRANCH  35  36
ATOM     36  C   UNL     1      -2.640   5.432 127.857  0.00  0.00    +0.000 C 
BRANCH  36  37
ATOM     37  C   UNL     1      -2.733   4.134 127.122  0.00  0.00    +0.000 C 
ATOM     38  O   UNL     1      -1.921   3.230 127.276  0.00  0.00    +0.000 OA
BRANCH  37  39
ATOM     39  O   UNL     1      -3.731   3.948 126.270  0.00  0.00    +0.000 OA
ATOM     40  H   UNL     1      -4.590   4.250 126.609  0.00  0.00    +0.000 HD
ENDBRANCH  37  39
ENDBRANCH  36  37
ENDBRANCH  35  36
ENDBRANCH  30  31
ENDBRANCH  29  30
ENDBRANCH   4  29
TORSDOF 13
ENDMDL
