MODEL 1
REMARK VINA RESULT:      -8.8      0.000      0.000
REMARK  Name = Cefpiramide
REMARK  14 active torsions:
REMARK  status: ('A' for Active; 'I' for Inactive)
REMARK    1  A    between atoms: C_5  and  C_6
REMARK    2  A    between atoms: C_6  and  S_7
REMARK    3  A    between atoms: S_7  and  C_8
REMARK    4  A    between atoms: N_12  and  C_13
REMARK    5  A    between atoms: CA_14  and  C_42
REMARK    6  A    between atoms: CA_18  and  N_20
REMARK    7  A    between atoms: C_21  and  CA_23
REMARK    8  A    between atoms: CA_23  and  N_24
REMARK    9  A    between atoms: CA_23  and  C_35
REMARK   10  A    between atoms: C_25  and  C_27
REMARK   11  A    between atoms: C_28  and  O_29
REMARK   12  A    between atoms: C_31  and  C_32
REMARK   13  A    between atoms: C_38  and  O_39
REMARK   14  A    between atoms: C_42  and  O_43
REMARK                            x       y       z     vdW  Elec       q    Type
REMARK                         _______ _______ _______ _____ _____    ______ ____
ROOT
ATOM      1  N   UNL     1      -6.777   2.987 125.277  0.00  0.00    +0.000 N 
ATOM      2  C   UNL     1      -7.916   3.308 124.564  0.00  0.00    +0.000 C 
ATOM      3  O   UNL     1      -8.664   4.179 125.010  0.00  0.00    +0.000 OA
ATOM      4  H   UNL     1      -5.961   2.808 124.708  0.00  0.00    +0.000 HD
ENDROOT
BRANCH   1  13
ATOM      5  C   UNL     1      -7.335   2.982 127.841  0.00  0.00    +0.000 C 
ATOM      6  S   UNL     1      -8.273   1.447 127.675  0.00  0.00    +0.000 S 
ATOM      7  C   UNL     1      -8.378   1.243 129.478  0.00  0.00    +0.000 C 
ATOM      8  C   UNL     1      -7.025   1.238 130.177  0.00  0.00    +0.000 C 
ATOM      9  CA  UNL     1      -5.939   1.873 129.641  0.00  0.00    +0.000 C 
ATOM     10  N   UNL     1      -6.069   2.661 128.512  0.00  0.00    +0.000 N 
ATOM     11  C   UNL     1      -5.329   2.735 127.382  0.00  0.00    +0.000 C 
ATOM     12  O   UNL     1      -4.205   2.334 127.143  0.00  0.00    +0.000 OA
ATOM     13  CA  UNL     1      -6.478   3.472 126.634  0.00  0.00    +0.000 C 
BRANCH   9  14
ATOM     14  C   UNL     1      -4.586   1.774 130.338  0.00  0.00    +0.000 C 
ATOM     15  OXT UNL     1      -4.203   2.573 131.182  0.00  0.00    +0.000 OA
BRANCH  14  16
ATOM     16  O   UNL     1      -3.750   0.807 129.914  0.00  0.00    +0.000 OA
ATOM     17  H   UNL     1      -3.852  -0.079 130.309  0.00  0.00    +0.000 HD
ENDBRANCH  14  16
ENDBRANCH   9  14
BRANCH   8  18
ATOM     18  C   UNL     1      -6.957   0.474 131.521  0.00  0.00    +0.000 C 
BRANCH  18  19
ATOM     19  S   UNL     1      -7.256  -1.319 131.386  0.00  0.00    +0.000 S 
BRANCH  19  20
ATOM     20  C   UNL     1      -6.024  -1.907 130.340  0.00  0.00    +0.000 A 
ATOM     21  N   UNL     1      -4.735  -1.911 130.593  0.00  0.00    +0.000 NA
ATOM     22  N   UNL     1      -4.120  -2.231 129.403  0.00  0.00    +0.000 NA
ATOM     23  N   UNL     1      -5.012  -2.398 128.435  0.00  0.00    +0.000 NA
ATOM     24  N   UNL     1      -6.205  -2.193 129.020  0.00  0.00    +0.000 N 
ATOM     25  C   UNL     1      -7.417  -2.248 128.255  0.00  0.00    +0.000 C 
ENDBRANCH  19  20
ENDBRANCH  18  19
ENDBRANCH   8  18
ENDBRANCH   1  13
BRANCH   2  26
ATOM     26  CA  UNL     1      -8.238   2.474 123.225  0.00  0.00    +0.000 C 
BRANCH  26  27
ATOM     27  C   UNL     1      -7.665   3.114 121.933  0.00  0.00    +0.000 A 
ATOM     28  C   UNL     1      -6.281   3.145 121.717  0.00  0.00    +0.000 A 
ATOM     29  C   UNL     1      -5.690   4.082 120.886  0.00  0.00    +0.000 A 
ATOM     30  C   UNL     1      -6.462   4.599 119.877  0.00  0.00    +0.000 A 
ATOM     31  C   UNL     1      -7.809   4.259 119.801  0.00  0.00    +0.000 A 
ATOM     32  C   UNL     1      -8.441   3.617 120.885  0.00  0.00    +0.000 A 
BRANCH  30  33
ATOM     33  O   UNL     1      -5.904   5.382 118.915  0.00  0.00    +0.000 OA
ATOM     34  H   UNL     1      -4.934   5.345 119.004  0.00  0.00    +0.000 HD
ENDBRANCH  30  33
ENDBRANCH  26  27
BRANCH  26  35
ATOM     35  N   UNL     1      -7.744   1.085 123.252  0.00  0.00    +0.000 N 
ATOM     36  C   UNL     1      -8.470  -0.027 123.645  0.00  0.00    +0.000 C 
ATOM     37  O   UNL     1      -9.630  -0.050 124.016  0.00  0.00    +0.000 OA
ATOM     38  H   UNL     1      -7.000   0.896 122.585  0.00  0.00    +0.000 HD
BRANCH  36  39
ATOM     39  C   UNL     1      -7.707  -1.289 123.689  0.00  0.00    +0.000 A 
ATOM     40  C   UNL     1      -8.157  -2.415 124.371  0.00  0.00    +0.000 A 
ATOM     41  C   UNL     1      -7.382  -3.570 124.389  0.00  0.00    +0.000 A 
ATOM     42  C   UNL     1      -6.119  -3.537 123.808  0.00  0.00    +0.000 A 
ATOM     43  C   UNL     1      -5.141  -4.649 124.065  0.00  0.00    +0.000 C 
ATOM     44  N   UNL     1      -5.699  -2.486 123.063  0.00  0.00    +0.000 NA
ATOM     45  C   UNL     1      -6.529  -1.413 122.968  0.00  0.00    +0.000 A 
BRANCH  40  46
ATOM     46  O   UNL     1      -9.349  -2.473 125.041  0.00  0.00    +0.000 OA
ATOM     47  H   UNL     1      -9.867  -1.666 124.856  0.00  0.00    +0.000 HD
ENDBRANCH  40  46
ENDBRANCH  36  39
ENDBRANCH  26  35
ENDBRANCH   2  26
TORSDOF 12
ENDMDL
MODEL 2
REMARK VINA RESULT:      -8.7      2.892      4.276
REMARK  Name = Cefpiramide
REMARK  14 active torsions:
REMARK  status: ('A' for Active; 'I' for Inactive)
REMARK    1  A    between atoms: C_5  and  C_6
REMARK    2  A    between atoms: C_6  and  S_7
REMARK    3  A    between atoms: S_7  and  C_8
REMARK    4  A    between atoms: N_12  and  C_13
REMARK    5  A    between atoms: CA_14  and  C_42
REMARK    6  A    between atoms: CA_18  and  N_20
REMARK    7  A    between atoms: C_21  and  CA_23
REMARK    8  A    between atoms: CA_23  and  N_24
REMARK    9  A    between atoms: CA_23  and  C_35
REMARK   10  A    between atoms: C_25  and  C_27
REMARK   11  A    between atoms: C_28  and  O_29
REMARK   12  A    between atoms: C_31  and  C_32
REMARK   13  A    between atoms: C_38  and  O_39
REMARK   14  A    between atoms: C_42  and  O_43
REMARK                            x       y       z     vdW  Elec       q    Type
REMARK                         _______ _______ _______ _____ _____    ______ ____
ROOT
ATOM      1  N   UNL     1      -7.409   2.211 125.916  0.00  0.00    +0.000 N 
ATOM      2  C   UNL     1      -8.085   2.711 124.820  0.00  0.00    +0.000 C 
ATOM      3  O   UNL     1      -9.032   3.476 125.012  0.00  0.00    +0.000 OA
ATOM      4  H   UNL     1      -6.406   2.146 125.797  0.00  0.00    +0.000 HD
ENDROOT
BRANCH   1  13
ATOM      5  C   UNL     1      -6.882   1.996 128.476  0.00  0.00    +0.000 C 
ATOM      6  S   UNL     1      -5.106   1.927 128.147  0.00  0.00    +0.000 S 
ATOM      7  C   UNL     1      -4.708   2.124 129.909  0.00  0.00    +0.000 C 
ATOM      8  C   UNL     1      -5.317   3.367 130.543  0.00  0.00    +0.000 C 
ATOM      9  CA  UNL     1      -6.460   3.935 130.052  0.00  0.00    +0.000 C 
ATOM     10  N   UNL     1      -7.178   3.318 129.044  0.00  0.00    +0.000 N 
ATOM     11  C   UNL     1      -7.721   3.804 127.905  0.00  0.00    +0.000 C 
ATOM     12  O   UNL     1      -7.963   4.947 127.568  0.00  0.00    +0.000 OA
ATOM     13  CA  UNL     1      -7.848   2.370 127.312  0.00  0.00    +0.000 C 
BRANCH   9  14
ATOM     14  C   UNL     1      -6.988   5.224 130.672  0.00  0.00    +0.000 C 
ATOM     15  OXT UNL     1      -7.765   5.248 131.617  0.00  0.00    +0.000 OA
BRANCH  14  16
ATOM     16  O   UNL     1      -6.645   6.379 130.068  0.00  0.00    +0.000 OA
ATOM     17  H   UNL     1      -6.880   7.209 130.522  0.00  0.00    +0.000 HD
ENDBRANCH  14  16
ENDBRANCH   9  14
BRANCH   8  18
ATOM     18  C   UNL     1      -4.568   3.941 131.769  0.00  0.00    +0.000 C 
BRANCH  18  19
ATOM     19  S   UNL     1      -2.970   4.726 131.377  0.00  0.00    +0.000 S 
BRANCH  19  20
ATOM     20  C   UNL     1      -3.358   6.072 130.380  0.00  0.00    +0.000 A 
ATOM     21  N   UNL     1      -3.937   7.183 130.776  0.00  0.00    +0.000 NA
ATOM     22  N   UNL     1      -4.274   7.860 129.626  0.00  0.00    +0.000 NA
ATOM     23  N   UNL     1      -3.930   7.169 128.546  0.00  0.00    +0.000 NA
ATOM     24  N   UNL     1      -3.358   6.047 129.017  0.00  0.00    +0.000 N 
ATOM     25  C   UNL     1      -2.896   5.027 128.122  0.00  0.00    +0.000 C 
ENDBRANCH  19  20
ENDBRANCH  18  19
ENDBRANCH   8  18
ENDBRANCH   1  13
BRANCH   2  26
ATOM     26  CA  UNL     1      -7.644   2.210 123.356  0.00  0.00    +0.000 C 
BRANCH  26  27
ATOM     27  C   UNL     1      -6.567   3.103 122.684  0.00  0.00    +0.000 A 
ATOM     28  C   UNL     1      -5.614   3.766 123.468  0.00  0.00    +0.000 A 
ATOM     29  C   UNL     1      -4.969   4.909 123.025  0.00  0.00    +0.000 A 
ATOM     30  C   UNL     1      -4.842   5.072 121.670  0.00  0.00    +0.000 A 
ATOM     31  C   UNL     1      -5.453   4.165 120.810  0.00  0.00    +0.000 A 
ATOM     32  C   UNL     1      -6.409   3.253 121.303  0.00  0.00    +0.000 A 
BRANCH  30  33
ATOM     33  O   UNL     1      -4.067   6.068 121.165  0.00  0.00    +0.000 OA
ATOM     34  H   UNL     1      -4.530   6.472 120.409  0.00  0.00    +0.000 HD
ENDBRANCH  30  33
ENDBRANCH  26  27
BRANCH  26  35
ATOM     35  N   UNL     1      -7.114   0.834 123.329  0.00  0.00    +0.000 N 
ATOM     36  C   UNL     1      -7.864  -0.326 123.428  0.00  0.00    +0.000 C 
ATOM     37  O   UNL     1      -9.074  -0.408 123.538  0.00  0.00    +0.000 OA
ATOM     38  H   UNL     1      -6.240   0.736 122.819  0.00  0.00    +0.000 HD
BRANCH  36  39
ATOM     39  C   UNL     1      -7.080  -1.575 123.490  0.00  0.00    +0.000 A 
ATOM     40  C   UNL     1      -7.341  -2.580 124.415  0.00  0.00    +0.000 A 
ATOM     41  C   UNL     1      -6.555  -3.726 124.433  0.00  0.00    +0.000 A 
ATOM     42  C   UNL     1      -5.452  -3.794 123.588  0.00  0.00    +0.000 A 
ATOM     43  C   UNL     1      -4.415  -4.865 123.784  0.00  0.00    +0.000 C 
ATOM     44  N   UNL     1      -5.233  -2.873 122.620  0.00  0.00    +0.000 NA
ATOM     45  C   UNL     1      -6.089  -1.818 122.552  0.00  0.00    +0.000 A 
BRANCH  40  46
ATOM     46  O   UNL     1      -8.354  -2.524 125.334  0.00  0.00    +0.000 OA
ATOM     47  H   UNL     1      -9.193  -2.310 124.883  0.00  0.00    +0.000 HD
ENDBRANCH  40  46
ENDBRANCH  36  39
ENDBRANCH  26  35
ENDBRANCH   2  26
TORSDOF 12
ENDMDL
MODEL 3
REMARK VINA RESULT:      -8.7      3.381      6.621
REMARK  Name = Cefpiramide
REMARK  14 active torsions:
REMARK  status: ('A' for Active; 'I' for Inactive)
REMARK    1  A    between atoms: C_5  and  C_6
REMARK    2  A    between atoms: C_6  and  S_7
REMARK    3  A    between atoms: S_7  and  C_8
REMARK    4  A    between atoms: N_12  and  C_13
REMARK    5  A    between atoms: CA_14  and  C_42
REMARK    6  A    between atoms: CA_18  and  N_20
REMARK    7  A    between atoms: C_21  and  CA_23
REMARK    8  A    between atoms: CA_23  and  N_24
REMARK    9  A    between atoms: CA_23  and  C_35
REMARK   10  A    between atoms: C_25  and  C_27
REMARK   11  A    between atoms: C_28  and  O_29
REMARK   12  A    between atoms: C_31  and  C_32
REMARK   13  A    between atoms: C_38  and  O_39
REMARK   14  A    between atoms: C_42  and  O_43
REMARK                            x       y       z     vdW  Elec       q    Type
REMARK                         _______ _______ _______ _____ _____    ______ ____
ROOT
ATOM      1  N   UNL     1      -7.008   1.849 127.389  0.00  0.00    +0.000 N 
ATOM      2  C   UNL     1      -7.846   1.392 126.390  0.00  0.00    +0.000 C 
ATOM      3  O   UNL     1      -9.059   1.554 126.522  0.00  0.00    +0.000 OA
ATOM      4  H   UNL     1      -6.147   2.265 127.058  0.00  0.00    +0.000 HD
ENDROOT
BRANCH   1  13
ATOM      5  C   UNL     1      -6.494   2.328 129.917  0.00  0.00    +0.000 C 
ATOM      6  S   UNL     1      -4.714   2.238 129.614  0.00  0.00    +0.000 S 
ATOM      7  C   UNL     1      -4.337   2.901 131.263  0.00  0.00    +0.000 C 
ATOM      8  C   UNL     1      -4.994   4.244 131.553  0.00  0.00    +0.000 C 
ATOM      9  CA  UNL     1      -6.151   4.624 130.932  0.00  0.00    +0.000 C 
ATOM     10  N   UNL     1      -6.840   3.740 130.121  0.00  0.00    +0.000 N 
ATOM     11  C   UNL     1      -7.391   3.893 128.895  0.00  0.00    +0.000 C 
ATOM     12  O   UNL     1      -7.669   4.900 128.272  0.00  0.00    +0.000 OA
ATOM     13  CA  UNL     1      -7.463   2.350 128.696  0.00  0.00    +0.000 C 
BRANCH   9  14
ATOM     14  C   UNL     1      -6.729   6.010 131.195  0.00  0.00    +0.000 C 
ATOM     15  OXT UNL     1      -7.491   6.258 132.120  0.00  0.00    +0.000 OA
BRANCH  14  16
ATOM     16  O   UNL     1      -6.449   6.971 130.292  0.00  0.00    +0.000 OA
ATOM     17  H   UNL     1      -5.997   7.772 130.616  0.00  0.00    +0.000 HD
ENDBRANCH  14  16
ENDBRANCH   9  14
BRANCH   8  18
ATOM     18  C   UNL     1      -4.274   5.144 132.586  0.00  0.00    +0.000 C 
BRANCH  18  19
ATOM     19  S   UNL     1      -2.690   5.837 132.008  0.00  0.00    +0.000 S 
BRANCH  19  20
ATOM     20  C   UNL     1      -3.107   6.947 130.763  0.00  0.00    +0.000 A 
ATOM     21  N   UNL     1      -3.643   8.133 130.935  0.00  0.00    +0.000 NA
ATOM     22  N   UNL     1      -4.030   8.555 129.683  0.00  0.00    +0.000 NA
ATOM     23  N   UNL     1      -3.757   7.637 128.764  0.00  0.00    +0.000 NA
ATOM     24  N   UNL     1      -3.181   6.628 129.439  0.00  0.00    +0.000 N 
ATOM     25  C   UNL     1      -2.787   5.425 128.766  0.00  0.00    +0.000 C 
ENDBRANCH  19  20
ENDBRANCH  18  19
ENDBRANCH   8  18
ENDBRANCH   1  13
BRANCH   2  26
ATOM     26  CA  UNL     1      -7.192   0.609 125.145  0.00  0.00    +0.000 C 
BRANCH  26  27
ATOM     27  C   UNL     1      -7.895  -0.733 124.809  0.00  0.00    +0.000 A 
ATOM     28  C   UNL     1      -7.889  -1.221 123.495  0.00  0.00    +0.000 A 
ATOM     29  C   UNL     1      -8.857  -2.098 123.036  0.00  0.00    +0.000 A 
ATOM     30  C   UNL     1      -9.467  -2.900 123.965  0.00  0.00    +0.000 A 
ATOM     31  C   UNL     1      -9.183  -2.724 125.316  0.00  0.00    +0.000 A 
ATOM     32  C   UNL     1      -8.495  -1.573 125.751  0.00  0.00    +0.000 A 
BRANCH  30  33
ATOM     33  O   UNL     1     -10.290  -3.909 123.571  0.00  0.00    +0.000 OA
ATOM     34  H   UNL     1     -10.663  -4.336 124.363  0.00  0.00    +0.000 HD
ENDBRANCH  30  33
ENDBRANCH  26  27
BRANCH  26  35
ATOM     35  N   UNL     1      -7.169   1.388 123.894  0.00  0.00    +0.000 N 
ATOM     36  C   UNL     1      -6.548   2.612 123.712  0.00  0.00    +0.000 C 
ATOM     37  O   UNL     1      -5.910   3.240 124.539  0.00  0.00    +0.000 OA
ATOM     38  H   UNL     1      -7.257   0.824 123.053  0.00  0.00    +0.000 HD
BRANCH  36  39
ATOM     39  C   UNL     1      -6.770   3.238 122.394  0.00  0.00    +0.000 A 
ATOM     40  C   UNL     1      -8.028   3.327 121.808  0.00  0.00    +0.000 A 
ATOM     41  C   UNL     1      -8.168   3.914 120.555  0.00  0.00    +0.000 A 
ATOM     42  C   UNL     1      -7.024   4.305 119.868  0.00  0.00    +0.000 A 
ATOM     43  C   UNL     1      -7.103   4.659 118.409  0.00  0.00    +0.000 C 
ATOM     44  N   UNL     1      -5.803   4.312 120.453  0.00  0.00    +0.000 NA
ATOM     45  C   UNL     1      -5.714   3.837 121.725  0.00  0.00    +0.000 A 
BRANCH  40  46
ATOM     46  O   UNL     1      -9.176   2.872 122.397  0.00  0.00    +0.000 OA
ATOM     47  H   UNL     1      -9.207   1.898 122.343  0.00  0.00    +0.000 HD
ENDBRANCH  40  46
ENDBRANCH  36  39
ENDBRANCH  26  35
ENDBRANCH   2  26
TORSDOF 12
ENDMDL
MODEL 4
REMARK VINA RESULT:      -8.3      6.089      8.753
REMARK  Name = Cefpiramide
REMARK  14 active torsions:
REMARK  status: ('A' for Active; 'I' for Inactive)
REMARK    1  A    between atoms: C_5  and  C_6
REMARK    2  A    between atoms: C_6  and  S_7
REMARK    3  A    between atoms: S_7  and  C_8
REMARK    4  A    between atoms: N_12  and  C_13
REMARK    5  A    between atoms: CA_14  and  C_42
REMARK    6  A    between atoms: CA_18  and  N_20
REMARK    7  A    between atoms: C_21  and  CA_23
REMARK    8  A    between atoms: CA_23  and  N_24
REMARK    9  A    between atoms: CA_23  and  C_35
REMARK   10  A    between atoms: C_25  and  C_27
REMARK   11  A    between atoms: C_28  and  O_29
REMARK   12  A    between atoms: C_31  and  C_32
REMARK   13  A    between atoms: C_38  and  O_39
REMARK   14  A    between atoms: C_42  and  O_43
REMARK                            x       y       z     vdW  Elec       q    Type
REMARK                         _______ _______ _______ _____ _____    ______ ____
ROOT
ATOM      1  N   UNL     1      -8.418   3.265 132.081  0.00  0.00    +0.000 N 
ATOM      2  C   UNL     1      -8.359   4.225 133.073  0.00  0.00    +0.000 C 
ATOM      3  O   UNL     1      -8.541   3.876 134.240  0.00  0.00    +0.000 OA
ATOM      4  H   UNL     1      -7.730   3.377 131.346  0.00  0.00    +0.000 HD
ENDROOT
BRANCH   1  13
ATOM      5  C   UNL     1      -8.888   0.883 131.087  0.00  0.00    +0.000 C 
ATOM      6  S   UNL     1      -7.856   1.236 129.646  0.00  0.00    +0.000 S 
ATOM      7  C   UNL     1      -7.887  -0.503 129.119  0.00  0.00    +0.000 C 
ATOM      8  C   UNL     1      -7.403  -1.478 130.183  0.00  0.00    +0.000 C 
ATOM      9  CA  UNL     1      -7.489  -1.185 131.516  0.00  0.00    +0.000 C 
ATOM     10  N   UNL     1      -8.148  -0.048 131.947  0.00  0.00    +0.000 N 
ATOM     11  C   UNL     1      -7.806   0.895 132.855  0.00  0.00    +0.000 C 
ATOM     12  O   UNL     1      -6.963   0.881 133.732  0.00  0.00    +0.000 OA
ATOM     13  CA  UNL     1      -8.870   1.879 132.285  0.00  0.00    +0.000 C 
BRANCH   9  14
ATOM     14  C   UNL     1      -6.918  -2.159 132.541  0.00  0.00    +0.000 C 
ATOM     15  OXT UNL     1      -7.519  -3.150 132.935  0.00  0.00    +0.000 OA
BRANCH  14  16
ATOM     16  O   UNL     1      -5.735  -1.836 133.099  0.00  0.00    +0.000 OA
ATOM     17  H   UNL     1      -5.066  -2.542 133.171  0.00  0.00    +0.000 HD
ENDBRANCH  14  16
ENDBRANCH   9  14
BRANCH   8  18
ATOM     18  C   UNL     1      -6.811  -2.811 129.665  0.00  0.00    +0.000 C 
BRANCH  18  19
ATOM     19  S   UNL     1      -5.162  -2.659 128.904  0.00  0.00    +0.000 S 
BRANCH  19  20
ATOM     20  C   UNL     1      -4.085  -2.355 130.210  0.00  0.00    +0.000 A 
ATOM     21  N   UNL     1      -3.622  -3.250 131.052  0.00  0.00    +0.000 NA
ATOM     22  N   UNL     1      -3.012  -2.537 132.060  0.00  0.00    +0.000 NA
ATOM     23  N   UNL     1      -3.119  -1.231 131.853  0.00  0.00    +0.000 NA
ATOM     24  N   UNL     1      -3.794  -1.115 130.696  0.00  0.00    +0.000 N 
ATOM     25  C   UNL     1      -4.137   0.175 130.173  0.00  0.00    +0.000 C 
ENDBRANCH  19  20
ENDBRANCH  18  19
ENDBRANCH   8  18
ENDBRANCH   1  13
BRANCH   2  26
ATOM     26  CA  UNL     1      -8.127   5.757 132.639  0.00  0.00    +0.000 C 
BRANCH  26  27
ATOM     27  C   UNL     1      -6.669   6.076 132.215  0.00  0.00    +0.000 A 
ATOM     28  C   UNL     1      -5.594   5.523 132.922  0.00  0.00    +0.000 A 
ATOM     29  C   UNL     1      -4.341   6.113 132.929  0.00  0.00    +0.000 A 
ATOM     30  C   UNL     1      -4.006   6.886 131.847  0.00  0.00    +0.000 A 
ATOM     31  C   UNL     1      -4.958   7.137 130.864  0.00  0.00    +0.000 A 
ATOM     32  C   UNL     1      -6.315   6.838 131.097  0.00  0.00    +0.000 A 
BRANCH  30  33
ATOM     33  O   UNL     1      -2.736   7.346 131.695  0.00  0.00    +0.000 OA
ATOM     34  H   UNL     1      -2.376   7.569 132.573  0.00  0.00    +0.000 HD
ENDBRANCH  30  33
ENDBRANCH  26  27
BRANCH  26  35
ATOM     35  N   UNL     1      -8.987   6.201 131.527  0.00  0.00    +0.000 N 
ATOM     36  C   UNL     1     -10.345   6.462 131.606  0.00  0.00    +0.000 C 
ATOM     37  O   UNL     1     -11.049   6.385 132.597  0.00  0.00    +0.000 OA
ATOM     38  H   UNL     1      -8.495   6.715 130.801  0.00  0.00    +0.000 HD
BRANCH  36  39
ATOM     39  C   UNL     1     -10.997   6.783 130.322  0.00  0.00    +0.000 A 
ATOM     40  C   UNL     1     -12.343   7.120 130.226  0.00  0.00    +0.000 A 
ATOM     41  C   UNL     1     -12.901   7.395 128.983  0.00  0.00    +0.000 A 
ATOM     42  C   UNL     1     -12.121   7.221 127.846  0.00  0.00    +0.000 A 
ATOM     43  C   UNL     1     -12.760   7.212 126.485  0.00  0.00    +0.000 C 
ATOM     44  N   UNL     1     -10.789   6.983 127.919  0.00  0.00    +0.000 NA
ATOM     45  C   UNL     1     -10.246   6.832 129.157  0.00  0.00    +0.000 A 
BRANCH  40  46
ATOM     46  O   UNL     1     -13.182   7.213 131.303  0.00  0.00    +0.000 OA
ATOM     47  H   UNL     1     -13.811   7.947 131.165  0.00  0.00    +0.000 HD
ENDBRANCH  40  46
ENDBRANCH  36  39
ENDBRANCH  26  35
ENDBRANCH   2  26
TORSDOF 12
ENDMDL
MODEL 5
REMARK VINA RESULT:      -8.2      4.450      9.021
REMARK  Name = Cefpiramide
REMARK  14 active torsions:
REMARK  status: ('A' for Active; 'I' for Inactive)
REMARK    1  A    between atoms: C_5  and  C_6
REMARK    2  A    between atoms: C_6  and  S_7
REMARK    3  A    between atoms: S_7  and  C_8
REMARK    4  A    between atoms: N_12  and  C_13
REMARK    5  A    between atoms: CA_14  and  C_42
REMARK    6  A    between atoms: CA_18  and  N_20
REMARK    7  A    between atoms: C_21  and  CA_23
REMARK    8  A    between atoms: CA_23  and  N_24
REMARK    9  A    between atoms: CA_23  and  C_35
REMARK   10  A    between atoms: C_25  and  C_27
REMARK   11  A    between atoms: C_28  and  O_29
REMARK   12  A    between atoms: C_31  and  C_32
REMARK   13  A    between atoms: C_38  and  O_39
REMARK   14  A    between atoms: C_42  and  O_43
REMARK                            x       y       z     vdW  Elec       q    Type
REMARK                         _______ _______ _______ _____ _____    ______ ____
ROOT
ATOM      1  N   UNL     1      -7.572   3.003 131.356  0.00  0.00    +0.000 N 
ATOM      2  C   UNL     1      -7.902   3.658 132.527  0.00  0.00    +0.000 C 
ATOM      3  O   UNL     1      -8.172   2.984 133.522  0.00  0.00    +0.000 OA
ATOM      4  H   UNL     1      -6.828   3.439 130.827  0.00  0.00    +0.000 HD
ENDROOT
BRANCH   1  13
ATOM      5  C   UNL     1      -8.382   1.011 129.854  0.00  0.00    +0.000 C 
ATOM      6  S   UNL     1      -8.488   2.090 128.409  0.00  0.00    +0.000 S 
ATOM      7  C   UNL     1      -8.712   0.675 127.291  0.00  0.00    +0.000 C 
ATOM      8  C   UNL     1      -7.606  -0.366 127.385  0.00  0.00    +0.000 C 
ATOM      9  CA  UNL     1      -6.872  -0.531 128.527  0.00  0.00    +0.000 C 
ATOM     10  N   UNL     1      -7.204   0.151 129.683  0.00  0.00    +0.000 N 
ATOM     11  C   UNL     1      -6.444   0.836 130.569  0.00  0.00    +0.000 C 
ATOM     12  O   UNL     1      -5.241   0.829 130.752  0.00  0.00    +0.000 OA
ATOM     13  CA  UNL     1      -7.700   1.552 131.147  0.00  0.00    +0.000 C 
BRANCH   9  14
ATOM     14  C   UNL     1      -5.722  -1.532 128.548  0.00  0.00    +0.000 C 
ATOM     15  OXT UNL     1      -5.871  -2.723 128.783  0.00  0.00    +0.000 OA
BRANCH  14  16
ATOM     16  O   UNL     1      -4.478  -1.038 128.394  0.00  0.00    +0.000 OA
ATOM     17  H   UNL     1      -4.313  -0.475 127.615  0.00  0.00    +0.000 HD
ENDBRANCH  14  16
ENDBRANCH   9  14
BRANCH   8  18
ATOM     18  C   UNL     1      -7.366  -1.220 126.117  0.00  0.00    +0.000 C 
BRANCH  18  19
ATOM     19  S   UNL     1      -7.141  -0.253 124.588  0.00  0.00    +0.000 S 
BRANCH  19  20
ATOM     20  C   UNL     1      -8.672  -0.280 123.804  0.00  0.00    +0.000 A 
ATOM     21  N   UNL     1      -9.236  -1.328 123.249  0.00  0.00    +0.000 NA
ATOM     22  N   UNL     1     -10.311  -0.844 122.538  0.00  0.00    +0.000 NA
ATOM     23  N   UNL     1     -10.392   0.477 122.637  0.00  0.00    +0.000 NA
ATOM     24  N   UNL     1      -9.365   0.832 123.428  0.00  0.00    +0.000 N 
ATOM     25  C   UNL     1      -9.109   2.212 123.723  0.00  0.00    +0.000 C 
ENDBRANCH  19  20
ENDBRANCH  18  19
ENDBRANCH   8  18
ENDBRANCH   1  13
BRANCH   2  26
ATOM     26  CA  UNL     1      -7.985   5.265 132.505  0.00  0.00    +0.000 C 
BRANCH  26  27
ATOM     27  C   UNL     1      -6.613   5.963 132.306  0.00  0.00    +0.000 A 
ATOM     28  C   UNL     1      -6.429   6.865 131.250  0.00  0.00    +0.000 A 
ATOM     29  C   UNL     1      -5.176   7.135 130.727  0.00  0.00    +0.000 A 
ATOM     30  C   UNL     1      -4.100   6.968 131.561  0.00  0.00    +0.000 A 
ATOM     31  C   UNL     1      -4.293   6.434 132.831  0.00  0.00    +0.000 A 
ATOM     32  C   UNL     1      -5.519   5.823 133.165  0.00  0.00    +0.000 A 
BRANCH  30  33
ATOM     33  O   UNL     1      -2.862   7.385 131.182  0.00  0.00    +0.000 OA
ATOM     34  H   UNL     1      -2.673   8.238 131.614  0.00  0.00    +0.000 HD
ENDBRANCH  30  33
ENDBRANCH  26  27
BRANCH  26  35
ATOM     35  N   UNL     1      -8.878   5.804 131.463  0.00  0.00    +0.000 N 
ATOM     36  C   UNL     1     -10.143   6.326 131.669  0.00  0.00    +0.000 C 
ATOM     37  O   UNL     1     -10.723   6.441 132.735  0.00  0.00    +0.000 OA
ATOM     38  H   UNL     1      -8.391   6.172 130.650  0.00  0.00    +0.000 HD
BRANCH  36  39
ATOM     39  C   UNL     1     -10.877   6.694 130.443  0.00  0.00    +0.000 A 
ATOM     40  C   UNL     1     -12.221   7.050 130.450  0.00  0.00    +0.000 A 
ATOM     41  C   UNL     1     -12.860   7.370 129.257  0.00  0.00    +0.000 A 
ATOM     42  C   UNL     1     -12.161   7.223 128.064  0.00  0.00    +0.000 A 
ATOM     43  C   UNL     1     -12.891   7.265 126.751  0.00  0.00    +0.000 C 
ATOM     44  N   UNL     1     -10.831   6.968 128.039  0.00  0.00    +0.000 NA
ATOM     45  C   UNL     1     -10.207   6.772 129.232  0.00  0.00    +0.000 A 
BRANCH  40  46
ATOM     46  O   UNL     1     -12.984   7.118 131.584  0.00  0.00    +0.000 OA
ATOM     47  H   UNL     1     -13.477   7.961 131.597  0.00  0.00    +0.000 HD
ENDBRANCH  40  46
ENDBRANCH  36  39
ENDBRANCH  26  35
ENDBRANCH   2  26
TORSDOF 12
ENDMDL
MODEL 6
REMARK VINA RESULT:      -8.2      4.774      9.717
REMARK  Name = Cefpiramide
REMARK  14 active torsions:
REMARK  status: ('A' for Active; 'I' for Inactive)
REMARK    1  A    between atoms: C_5  and  C_6
REMARK    2  A    between atoms: C_6  and  S_7
REMARK    3  A    between atoms: S_7  and  C_8
REMARK    4  A    between atoms: N_12  and  C_13
REMARK    5  A    between atoms: CA_14  and  C_42
REMARK    6  A    between atoms: CA_18  and  N_20
REMARK    7  A    between atoms: C_21  and  CA_23
REMARK    8  A    between atoms: CA_23  and  N_24
REMARK    9  A    between atoms: CA_23  and  C_35
REMARK   10  A    between atoms: C_25  and  C_27
REMARK   11  A    between atoms: C_28  and  O_29
REMARK   12  A    between atoms: C_31  and  C_32
REMARK   13  A    between atoms: C_38  and  O_39
REMARK   14  A    between atoms: C_42  and  O_43
REMARK                            x       y       z     vdW  Elec       q    Type
REMARK                         _______ _______ _______ _____ _____    ______ ____
ROOT
ATOM      1  N   UNL     1      -7.936   3.448 130.186  0.00  0.00    +0.000 N 
ATOM      2  C   UNL     1      -8.643   3.579 131.366  0.00  0.00    +0.000 C 
ATOM      3  O   UNL     1      -9.297   2.616 131.769  0.00  0.00    +0.000 OA
ATOM      4  H   UNL     1      -7.028   3.894 130.190  0.00  0.00    +0.000 HD
ENDROOT
BRANCH   1  13
ATOM      5  C   UNL     1      -8.353   2.550 127.757  0.00  0.00    +0.000 C 
ATOM      6  S   UNL     1      -8.000   4.176 127.051  0.00  0.00    +0.000 S 
ATOM      7  C   UNL     1      -7.946   3.502 125.365  0.00  0.00    +0.000 C 
ATOM      8  C   UNL     1      -6.951   2.363 125.188  0.00  0.00    +0.000 C 
ATOM      9  CA  UNL     1      -6.581   1.565 126.236  0.00  0.00    +0.000 C 
ATOM     10  N   UNL     1      -7.207   1.680 127.464  0.00  0.00    +0.000 N 
ATOM     11  C   UNL     1      -6.709   1.735 128.721  0.00  0.00    +0.000 C 
ATOM     12  O   UNL     1      -5.610   1.438 129.151  0.00  0.00    +0.000 OA
ATOM     13  CA  UNL     1      -8.051   2.305 129.266  0.00  0.00    +0.000 C 
BRANCH   9  14
ATOM     14  C   UNL     1      -5.523   0.488 126.028  0.00  0.00    +0.000 C 
ATOM     15  OXT UNL     1      -5.784  -0.653 125.673  0.00  0.00    +0.000 OA
BRANCH  14  16
ATOM     16  O   UNL     1      -4.255   0.806 126.353  0.00  0.00    +0.000 OA
ATOM     17  H   UNL     1      -3.872   0.373 127.139  0.00  0.00    +0.000 HD
ENDBRANCH  14  16
ENDBRANCH   9  14
BRANCH   8  18
ATOM     18  C   UNL     1      -6.388   2.167 123.760  0.00  0.00    +0.000 C 
BRANCH  18  19
ATOM     19  S   UNL     1      -7.257   3.118 122.470  0.00  0.00    +0.000 S 
BRANCH  19  20
ATOM     20  C   UNL     1      -6.042   4.070 121.713  0.00  0.00    +0.000 A 
ATOM     21  N   UNL     1      -5.036   4.661 122.317  0.00  0.00    +0.000 NA
ATOM     22  N   UNL     1      -4.476   5.501 121.381  0.00  0.00    +0.000 NA
ATOM     23  N   UNL     1      -5.139   5.445 120.232  0.00  0.00    +0.000 NA
ATOM     24  N   UNL     1      -6.121   4.551 120.439  0.00  0.00    +0.000 N 
ATOM     25  C   UNL     1      -7.079   4.262 119.412  0.00  0.00    +0.000 C 
ENDBRANCH  19  20
ENDBRANCH  18  19
ENDBRANCH   8  18
ENDBRANCH   1  13
BRANCH   2  26
ATOM     26  CA  UNL     1      -8.631   5.006 132.109  0.00  0.00    +0.000 C 
BRANCH  26  27
ATOM     27  C   UNL     1      -7.255   5.724 132.068  0.00  0.00    +0.000 A 
ATOM     28  C   UNL     1      -7.062   6.828 131.227  0.00  0.00    +0.000 A 
ATOM     29  C   UNL     1      -5.804   7.196 130.779  0.00  0.00    +0.000 A 
ATOM     30  C   UNL     1      -4.734   6.852 131.564  0.00  0.00    +0.000 A 
ATOM     31  C   UNL     1      -4.937   6.064 132.693  0.00  0.00    +0.000 A 
ATOM     32  C   UNL     1      -6.167   5.402 132.884  0.00  0.00    +0.000 A 
BRANCH  30  33
ATOM     33  O   UNL     1      -3.493   7.334 131.288  0.00  0.00    +0.000 OA
ATOM     34  H   UNL     1      -2.924   6.593 131.010  0.00  0.00    +0.000 HD
ENDBRANCH  30  33
ENDBRANCH  26  27
BRANCH  26  35
ATOM     35  N   UNL     1      -9.614   5.967 131.576  0.00  0.00    +0.000 N 
ATOM     36  C   UNL     1     -10.427   5.768 130.474  0.00  0.00    +0.000 C 
ATOM     37  O   UNL     1     -10.480   4.773 129.773  0.00  0.00    +0.000 OA
ATOM     38  H   UNL     1      -9.986   6.609 132.272  0.00  0.00    +0.000 HD
BRANCH  36  39
ATOM     39  C   UNL     1     -11.243   6.933 130.078  0.00  0.00    +0.000 A 
ATOM     40  C   UNL     1     -11.030   7.633 128.896  0.00  0.00    +0.000 A 
ATOM     41  C   UNL     1     -11.822   8.733 128.589  0.00  0.00    +0.000 A 
ATOM     42  C   UNL     1     -12.748   9.173 129.529  0.00  0.00    +0.000 A 
ATOM     43  C   UNL     1     -13.403  10.517 129.372  0.00  0.00    +0.000 C 
ATOM     44  N   UNL     1     -13.036   8.457 130.642  0.00  0.00    +0.000 NA
ATOM     45  C   UNL     1     -12.321   7.320 130.859  0.00  0.00    +0.000 A 
BRANCH  40  46
ATOM     46  O   UNL     1     -10.069   7.302 127.979  0.00  0.00    +0.000 OA
ATOM     47  H   UNL     1     -10.461   7.292 127.084  0.00  0.00    +0.000 HD
ENDBRANCH  40  46
ENDBRANCH  36  39
ENDBRANCH  26  35
ENDBRANCH   2  26
TORSDOF 12
ENDMDL
MODEL 7
REMARK VINA RESULT:      -8.2      4.719      8.980
REMARK  Name = Cefpiramide
REMARK  14 active torsions:
REMARK  status: ('A' for Active; 'I' for Inactive)
REMARK    1  A    between atoms: C_5  and  C_6
REMARK    2  A    between atoms: C_6  and  S_7
REMARK    3  A    between atoms: S_7  and  C_8
REMARK    4  A    between atoms: N_12  and  C_13
REMARK    5  A    between atoms: CA_14  and  C_42
REMARK    6  A    between atoms: CA_18  and  N_20
REMARK    7  A    between atoms: C_21  and  CA_23
REMARK    8  A    between atoms: CA_23  and  N_24
REMARK    9  A    between atoms: CA_23  and  C_35
REMARK   10  A    between atoms: C_25  and  C_27
REMARK   11  A    between atoms: C_28  and  O_29
REMARK   12  A    between atoms: C_31  and  C_32
REMARK   13  A    between atoms: C_38  and  O_39
REMARK   14  A    between atoms: C_42  and  O_43
REMARK                            x       y       z     vdW  Elec       q    Type
REMARK                         _______ _______ _______ _____ _____    ______ ____
ROOT
ATOM      1  N   UNL     1      -7.980   2.992 130.903  0.00  0.00    +0.000 N 
ATOM      2  C   UNL     1      -8.669   3.444 132.012  0.00  0.00    +0.000 C 
ATOM      3  O   UNL     1      -9.435   2.667 132.584  0.00  0.00    +0.000 OA
ATOM      4  H   UNL     1      -7.024   3.319 130.841  0.00  0.00    +0.000 HD
ENDROOT
BRANCH   1  13
ATOM      5  C   UNL     1      -8.355   1.652 128.679  0.00  0.00    +0.000 C 
ATOM      6  S   UNL     1      -7.650   2.999 127.701  0.00  0.00    +0.000 S 
ATOM      7  C   UNL     1      -7.583   1.963 126.209  0.00  0.00    +0.000 C 
ATOM      8  C   UNL     1      -6.806   0.667 126.393  0.00  0.00    +0.000 C 
ATOM      9  CA  UNL     1      -6.679   0.075 127.619  0.00  0.00    +0.000 C 
ATOM     10  N   UNL     1      -7.371   0.563 128.713  0.00  0.00    +0.000 N 
ATOM     11  C   UNL     1      -6.976   0.816 129.982  0.00  0.00    +0.000 C 
ATOM     12  O   UNL     1      -5.991   0.448 130.593  0.00  0.00    +0.000 OA
ATOM     13  CA  UNL     1      -8.229   1.706 130.232  0.00  0.00    +0.000 C 
BRANCH   9  14
ATOM     14  C   UNL     1      -5.825  -1.180 127.767  0.00  0.00    +0.000 C 
ATOM     15  OXT UNL     1      -6.241  -2.307 127.538  0.00  0.00    +0.000 OA
BRANCH  14  16
ATOM     16  O   UNL     1      -4.586  -1.020 128.272  0.00  0.00    +0.000 OA
ATOM     17  H   UNL     1      -3.840  -1.352 127.740  0.00  0.00    +0.000 HD
ENDBRANCH  14  16
ENDBRANCH   9  14
BRANCH   8  18
ATOM     18  C   UNL     1      -6.174   0.066 125.114  0.00  0.00    +0.000 C 
BRANCH  18  19
ATOM     19  S   UNL     1      -7.372  -0.352 123.806  0.00  0.00    +0.000 S 
BRANCH  19  20
ATOM     20  C   UNL     1      -8.339  -1.615 124.461  0.00  0.00    +0.000 A 
ATOM     21  N   UNL     1      -9.485  -1.464 125.085  0.00  0.00    +0.000 NA
ATOM     22  N   UNL     1      -9.770  -2.689 125.646  0.00  0.00    +0.000 NA
ATOM     23  N   UNL     1      -8.808  -3.567 125.391  0.00  0.00    +0.000 NA
ATOM     24  N   UNL     1      -7.909  -2.894 124.651  0.00  0.00    +0.000 N 
ATOM     25  C   UNL     1      -6.694  -3.524 124.221  0.00  0.00    +0.000 C 
ENDBRANCH  19  20
ENDBRANCH  18  19
ENDBRANCH   8  18
ENDBRANCH   1  13
BRANCH   2  26
ATOM     26  CA  UNL     1      -8.487   4.982 132.450  0.00  0.00    +0.000 C 
BRANCH  26  27
ATOM     27  C   UNL     1      -7.096   5.574 132.098  0.00  0.00    +0.000 A 
ATOM     28  C   UNL     1      -5.949   5.114 132.757  0.00  0.00    +0.000 A 
ATOM     29  C   UNL     1      -4.805   5.888 132.860  0.00  0.00    +0.000 A 
ATOM     30  C   UNL     1      -4.594   6.829 131.886  0.00  0.00    +0.000 A 
ATOM     31  C   UNL     1      -5.572   7.046 130.919  0.00  0.00    +0.000 A 
ATOM     32  C   UNL     1      -6.865   6.511 131.086  0.00  0.00    +0.000 A 
BRANCH  30  33
ATOM     33  O   UNL     1      -3.412   7.497 131.816  0.00  0.00    +0.000 OA
ATOM     34  H   UNL     1      -2.684   6.856 131.903  0.00  0.00    +0.000 HD
ENDBRANCH  30  33
ENDBRANCH  26  27
BRANCH  26  35
ATOM     35  N   UNL     1      -9.485   5.894 131.862  0.00  0.00    +0.000 N 
ATOM     36  C   UNL     1     -10.034   5.788 130.595  0.00  0.00    +0.000 C 
ATOM     37  O   UNL     1      -9.800   4.927 129.766  0.00  0.00    +0.000 OA
ATOM     38  H   UNL     1     -10.076   6.358 132.547  0.00  0.00    +0.000 HD
BRANCH  36  39
ATOM     39  C   UNL     1     -10.927   6.896 130.205  0.00  0.00    +0.000 A 
ATOM     40  C   UNL     1     -12.106   7.185 130.884  0.00  0.00    +0.000 A 
ATOM     41  C   UNL     1     -12.914   8.232 130.455  0.00  0.00    +0.000 A 
ATOM     42  C   UNL     1     -12.573   8.904 129.286  0.00  0.00    +0.000 A 
ATOM     43  C   UNL     1     -13.562   9.827 128.630  0.00  0.00    +0.000 C 
ATOM     44  N   UNL     1     -11.387   8.702 128.662  0.00  0.00    +0.000 NA
ATOM     45  C   UNL     1     -10.565   7.747 129.173  0.00  0.00    +0.000 A 
BRANCH  40  46
ATOM     46  O   UNL     1     -12.540   6.495 131.983  0.00  0.00    +0.000 OA
ATOM     47  H   UNL     1     -12.695   7.118 132.720  0.00  0.00    +0.000 HD
ENDBRANCH  40  46
ENDBRANCH  36  39
ENDBRANCH  26  35
ENDBRANCH   2  26
TORSDOF 12
ENDMDL
MODEL 8
REMARK VINA RESULT:      -8.1      4.596      9.872
REMARK  Name = Cefpiramide
REMARK  14 active torsions:
REMARK  status: ('A' for Active; 'I' for Inactive)
REMARK    1  A    between atoms: C_5  and  C_6
REMARK    2  A    between atoms: C_6  and  S_7
REMARK    3  A    between atoms: S_7  and  C_8
REMARK    4  A    between atoms: N_12  and  C_13
REMARK    5  A    between atoms: CA_14  and  C_42
REMARK    6  A    between atoms: CA_18  and  N_20
REMARK    7  A    between atoms: C_21  and  CA_23
REMARK    8  A    between atoms: CA_23  and  N_24
REMARK    9  A    between atoms: CA_23  and  C_35
REMARK   10  A    between atoms: C_25  and  C_27
REMARK   11  A    between atoms: C_28  and  O_29
REMARK   12  A    between atoms: C_31  and  C_32
REMARK   13  A    between atoms: C_38  and  O_39
REMARK   14  A    between atoms: C_42  and  O_43
REMARK                            x       y       z     vdW  Elec       q    Type
REMARK                         _______ _______ _______ _____ _____    ______ ____
ROOT
ATOM      1  N   UNL     1      -2.743   4.890 129.401  0.00  0.00    +0.000 N 
ATOM      2  C   UNL     1      -2.055   5.848 130.120  0.00  0.00    +0.000 C 
ATOM      3  O   UNL     1      -1.455   6.729 129.502  0.00  0.00    +0.000 OA
ATOM      4  H   UNL     1      -3.630   4.618 129.806  0.00  0.00    +0.000 HD
ENDROOT
BRANCH   1  13
ATOM      5  C   UNL     1      -3.161   3.403 127.281  0.00  0.00    +0.000 C 
ATOM      6  S   UNL     1      -4.319   2.357 128.193  0.00  0.00    +0.000 S 
ATOM      7  C   UNL     1      -4.878   1.540 126.669  0.00  0.00    +0.000 C 
ATOM      8  C   UNL     1      -5.393   2.501 125.607  0.00  0.00    +0.000 C 
ATOM      9  CA  UNL     1      -4.966   3.799 125.548  0.00  0.00    +0.000 C 
ATOM     10  N   UNL     1      -3.945   4.244 126.367  0.00  0.00    +0.000 N 
ATOM     11  C   UNL     1      -3.823   5.361 127.121  0.00  0.00    +0.000 C 
ATOM     12  O   UNL     1      -4.445   6.406 127.093  0.00  0.00    +0.000 OA
ATOM     13  CA  UNL     1      -2.663   4.724 127.941  0.00  0.00    +0.000 C 
BRANCH   9  14
ATOM     14  C   UNL     1      -5.570   4.746 124.516  0.00  0.00    +0.000 C 
ATOM     15  OXT UNL     1      -5.322   4.684 123.319  0.00  0.00    +0.000 OA
BRANCH  14  16
ATOM     16  O   UNL     1      -6.332   5.753 124.983  0.00  0.00    +0.000 OA
ATOM     17  H   UNL     1      -6.023   6.214 125.785  0.00  0.00    +0.000 HD
ENDBRANCH  14  16
ENDBRANCH   9  14
BRANCH   8  18
ATOM     18  C   UNL     1      -6.423   1.922 124.608  0.00  0.00    +0.000 C 
BRANCH  18  19
ATOM     19  S   UNL     1      -8.101   1.716 125.288  0.00  0.00    +0.000 S 
BRANCH  19  20
ATOM     20  C   UNL     1      -8.518   3.250 125.943  0.00  0.00    +0.000 A 
ATOM     21  N   UNL     1      -8.835   4.322 125.254  0.00  0.00    +0.000 NA
ATOM     22  N   UNL     1      -8.845   5.361 126.158  0.00  0.00    +0.000 NA
ATOM     23  N   UNL     1      -8.518   4.939 127.373  0.00  0.00    +0.000 NA
ATOM     24  N   UNL     1      -8.310   3.617 127.239  0.00  0.00    +0.000 N 
ATOM     25  C   UNL     1      -7.891   2.823 128.358  0.00  0.00    +0.000 C 
ENDBRANCH  19  20
ENDBRANCH  18  19
ENDBRANCH   8  18
ENDBRANCH   1  13
BRANCH   2  26
ATOM     26  CA  UNL     1      -2.016   5.718 131.724  0.00  0.00    +0.000 C 
BRANCH  26  27
ATOM     27  C   UNL     1      -1.548   7.009 132.447  0.00  0.00    +0.000 A 
ATOM     28  C   UNL     1      -2.476   8.005 132.779  0.00  0.00    +0.000 A 
ATOM     29  C   UNL     1      -2.100   9.325 132.962  0.00  0.00    +0.000 A 
ATOM     30  C   UNL     1      -0.809   9.558 133.361  0.00  0.00    +0.000 A 
ATOM     31  C   UNL     1       0.084   8.495 133.450  0.00  0.00    +0.000 A 
ATOM     32  C   UNL     1      -0.242   7.245 132.885  0.00  0.00    +0.000 A 
BRANCH  30  33
ATOM     33  O   UNL     1      -0.418  10.806 133.736  0.00  0.00    +0.000 OA
ATOM     34  H   UNL     1       0.031  10.747 134.599  0.00  0.00    +0.000 HD
ENDBRANCH  30  33
ENDBRANCH  26  27
BRANCH  26  35
ATOM     35  N   UNL     1      -3.310   5.352 132.326  0.00  0.00    +0.000 N 
ATOM     36  C   UNL     1      -3.867   4.085 132.344  0.00  0.00    +0.000 C 
ATOM     37  O   UNL     1      -3.383   3.066 131.883  0.00  0.00    +0.000 OA
ATOM     38  H   UNL     1      -3.596   5.955 133.093  0.00  0.00    +0.000 HD
BRANCH  36  39
ATOM     39  C   UNL     1      -5.228   4.006 132.910  0.00  0.00    +0.000 A 
ATOM     40  C   UNL     1      -5.693   2.889 133.596  0.00  0.00    +0.000 A 
ATOM     41  C   UNL     1      -6.992   2.871 134.091  0.00  0.00    +0.000 A 
ATOM     42  C   UNL     1      -7.835   3.935 133.794  0.00  0.00    +0.000 A 
ATOM     43  C   UNL     1      -9.314   3.821 134.045  0.00  0.00    +0.000 C 
ATOM     44  N   UNL     1      -7.381   5.069 133.209  0.00  0.00    +0.000 NA
ATOM     45  C   UNL     1      -6.073   5.103 132.838  0.00  0.00    +0.000 A 
BRANCH  40  46
ATOM     46  O   UNL     1      -4.937   1.773 133.834  0.00  0.00    +0.000 OA
ATOM     47  H   UNL     1      -4.322   1.630 133.089  0.00  0.00    +0.000 HD
ENDBRANCH  40  46
ENDBRANCH  36  39
ENDBRANCH  26  35
ENDBRANCH   2  26
TORSDOF 12
ENDMDL
MODEL 9
REMARK VINA RESULT:      -8.0      4.212      9.147
REMARK  Name = Cefpiramide
REMARK  14 active torsions:
REMARK  status: ('A' for Active; 'I' for Inactive)
REMARK    1  A    between atoms: C_5  and  C_6
REMARK    2  A    between atoms: C_6  and  S_7
REMARK    3  A    between atoms: S_7  and  C_8
REMARK    4  A    between atoms: N_12  and  C_13
REMARK    5  A    between atoms: CA_14  and  C_42
REMARK    6  A    between atoms: CA_18  and  N_20
REMARK    7  A    between atoms: C_21  and  CA_23
REMARK    8  A    between atoms: CA_23  and  N_24
REMARK    9  A    between atoms: CA_23  and  C_35
REMARK   10  A    between atoms: C_25  and  C_27
REMARK   11  A    between atoms: C_28  and  O_29
REMARK   12  A    between atoms: C_31  and  C_32
REMARK   13  A    between atoms: C_38  and  O_39
REMARK   14  A    between atoms: C_42  and  O_43
REMARK                            x       y       z     vdW  Elec       q    Type
REMARK                         _______ _______ _______ _____ _____    ______ ____
ROOT
ATOM      1  N   UNL     1      -5.175   4.997 128.213  0.00  0.00    +0.000 N 
ATOM      2  C   UNL     1      -4.527   4.705 129.397  0.00  0.00    +0.000 C 
ATOM      3  O   UNL     1      -3.409   4.191 129.344  0.00  0.00    +0.000 OA
ATOM      4  H   UNL     1      -5.687   5.870 128.218  0.00  0.00    +0.000 HD
ENDROOT
BRANCH   1  13
ATOM      5  C   UNL     1      -4.855   3.078 126.453  0.00  0.00    +0.000 C 
ATOM      6  S   UNL     1      -6.055   2.035 127.312  0.00  0.00    +0.000 S 
ATOM      7  C   UNL     1      -6.105   0.851 125.934  0.00  0.00    +0.000 C 
ATOM      8  C   UNL     1      -6.463   1.479 124.594  0.00  0.00    +0.000 C 
ATOM      9  CA  UNL     1      -6.209   2.797 124.330  0.00  0.00    +0.000 C 
ATOM     10  N   UNL     1      -5.491   3.570 125.224  0.00  0.00    +0.000 N 
ATOM     11  C   UNL     1      -5.708   4.815 125.708  0.00  0.00    +0.000 C 
ATOM     12  O   UNL     1      -6.436   5.704 125.308  0.00  0.00    +0.000 OA
ATOM     13  CA  UNL     1      -4.714   4.570 126.881  0.00  0.00    +0.000 C 
BRANCH   9  14
ATOM     14  C   UNL     1      -6.657   3.401 123.004  0.00  0.00    +0.000 C 
ATOM     15  OXT UNL     1      -5.910   3.553 122.047  0.00  0.00    +0.000 OA
BRANCH  14  16
ATOM     16  O   UNL     1      -7.918   3.872 122.941  0.00  0.00    +0.000 OA
ATOM     17  H   UNL     1      -8.034   4.841 122.946  0.00  0.00    +0.000 HD
ENDBRANCH  14  16
ENDBRANCH   9  14
BRANCH   8  18
ATOM     18  C   UNL     1      -7.127   0.540 123.559  0.00  0.00    +0.000 C 
BRANCH  18  19
ATOM     19  S   UNL     1      -8.945   0.462 123.668  0.00  0.00    +0.000 S 
BRANCH  19  20
ATOM     20  C   UNL     1      -9.291  -1.051 124.409  0.00  0.00    +0.000 A 
ATOM     21  N   UNL     1      -9.686  -1.231 125.649  0.00  0.00    +0.000 NA
ATOM     22  N   UNL     1      -9.599  -2.586 125.878  0.00  0.00    +0.000 NA
ATOM     23  N   UNL     1      -9.138  -3.222 124.808  0.00  0.00    +0.000 NA
ATOM     24  N   UNL     1      -8.942  -2.262 123.888  0.00  0.00    +0.000 N 
ATOM     25  C   UNL     1      -8.399  -2.580 122.599  0.00  0.00    +0.000 C 
ENDBRANCH  19  20
ENDBRANCH  18  19
ENDBRANCH   8  18
ENDBRANCH   1  13
BRANCH   2  26
ATOM     26  CA  UNL     1      -5.301   4.985 130.780  0.00  0.00    +0.000 C 
BRANCH  26  27
ATOM     27  C   UNL     1      -4.588   6.009 131.702  0.00  0.00    +0.000 A 
ATOM     28  C   UNL     1      -4.110   7.217 131.177  0.00  0.00    +0.000 A 
ATOM     29  C   UNL     1      -3.083   7.923 131.780  0.00  0.00    +0.000 A 
ATOM     30  C   UNL     1      -2.916   7.755 133.130  0.00  0.00    +0.000 A 
ATOM     31  C   UNL     1      -3.690   6.816 133.806  0.00  0.00    +0.000 A 
ATOM     32  C   UNL     1      -4.438   5.863 133.085  0.00  0.00    +0.000 A 
BRANCH  30  33
ATOM     33  O   UNL     1      -2.054   8.547 133.822  0.00  0.00    +0.000 OA
ATOM     34  H   UNL     1      -2.521   8.920 134.592  0.00  0.00    +0.000 HD
ENDBRANCH  30  33
ENDBRANCH  26  27
BRANCH  26  35
ATOM     35  N   UNL     1      -6.680   5.478 130.605  0.00  0.00    +0.000 N 
ATOM     36  C   UNL     1      -7.776   5.109 131.366  0.00  0.00    +0.000 C 
ATOM     37  O   UNL     1      -7.786   4.335 132.308  0.00  0.00    +0.000 OA
ATOM     38  H   UNL     1      -6.740   6.404 130.191  0.00  0.00    +0.000 HD
BRANCH  36  39
ATOM     39  C   UNL     1      -9.067   5.659 130.913  0.00  0.00    +0.000 A 
ATOM     40  C   UNL     1     -10.006   6.193 131.790  0.00  0.00    +0.000 A 
ATOM     41  C   UNL     1     -11.213   6.680 131.302  0.00  0.00    +0.000 A 
ATOM     42  C   UNL     1     -11.498   6.526 129.950  0.00  0.00    +0.000 A 
ATOM     43  C   UNL     1     -12.893   6.760 129.440  0.00  0.00    +0.000 C 
ATOM     44  N   UNL     1     -10.567   6.096 129.065  0.00  0.00    +0.000 NA
ATOM     45  C   UNL     1      -9.353   5.732 129.559  0.00  0.00    +0.000 A 
BRANCH  40  46
ATOM     46  O   UNL     1      -9.818   6.282 133.143  0.00  0.00    +0.000 OA
ATOM     47  H   UNL     1      -9.577   7.198 133.380  0.00  0.00    +0.000 HD
ENDBRANCH  40  46
ENDBRANCH  36  39
ENDBRANCH  26  35
ENDBRANCH   2  26
TORSDOF 12
ENDMDL
