MODEL 1
REMARK VINA RESULT:      -9.2      0.000      0.000
REMARK  Name = Cefpirome
REMARK  8 active torsions:
REMARK  status: ('A' for Active; 'I' for Inactive)
REMARK    1  A    between atoms: C_5  and  C_6
REMARK    2  A    between atoms: C_6  and  N_7
REMARK    3  A    between atoms: CA_16  and  C_34
REMARK    4  A    between atoms: CA_20  and  N_21
REMARK    5  A    between atoms: C_22  and  C_24
REMARK    6  A    between atoms: C_24  and  C_28
REMARK    7  A    between atoms: N_25  and  O_26
REMARK    8  A    between atoms: O_26  and  C_27
REMARK                            x       y       z     vdW  Elec       q    Type
REMARK                         _______ _______ _______ _____ _____    ______ ____
ROOT
ATOM      1  C   UNL     1      -6.928   2.585 127.110  0.00  0.00    +0.000 C 
ATOM      2  S   UNL     1      -7.896   1.086 127.425  0.00  0.00    +0.000 S 
ATOM      3  C   UNL     1      -7.083   0.223 126.060  0.00  0.00    +0.000 C 
ATOM      4  C   UNL     1      -7.204   0.920 124.722  0.00  0.00    +0.000 C 
ATOM      5  CA  UNL     1      -7.307   2.278 124.628  0.00  0.00    +0.000 C 
ATOM      6  N   UNL     1      -7.248   3.057 125.771  0.00  0.00    +0.000 N 
ATOM      7  C   UNL     1      -8.020   4.108 126.188  0.00  0.00    +0.000 C 
ATOM      8  O   UNL     1      -8.877   4.788 125.685  0.00  0.00    +0.000 OA
ATOM      9  CA  UNL     1      -7.480   3.930 127.640  0.00  0.00    +0.000 C 
ENDROOT
BRANCH   9  10
ATOM     10  N   UNL     1      -8.441   3.897 128.777  0.00  0.00    +0.000 N 
ATOM     11  C   UNL     1      -8.481   4.907 129.729  0.00  0.00    +0.000 C 
ATOM     12  O   UNL     1      -7.623   5.781 129.764  0.00  0.00    +0.000 OA
ATOM     13  H   UNL     1      -9.173   3.193 128.817  0.00  0.00    +0.000 HD
BRANCH  11  14
ATOM     14  C   UNL     1      -9.600   4.870 130.804  0.00  0.00    +0.000 C 
ATOM     15  N   UNL     1      -9.530   4.207 131.939  0.00  0.00    +0.000 NA
BRANCH  14  16
ATOM     16  C   UNL     1     -10.819   5.689 130.605  0.00  0.00    +0.000 A 
ATOM     17  C   UNL     1     -11.365   6.483 131.600  0.00  0.00    +0.000 A 
ATOM     18  S   UNL     1     -12.745   7.316 131.028  0.00  0.00    +0.000 S 
ATOM     19  C   UNL     1     -12.552   6.573 129.492  0.00  0.00    +0.000 A 
ATOM     20  N   UNL     1     -13.416   6.838 128.501  0.00  0.00    +0.000 N 
ATOM     21  N   UNL     1     -11.524   5.759 129.393  0.00  0.00    +0.000 NA
ATOM     22  H   UNL     1     -14.185   7.484 128.616  0.00  0.00    +0.000 HD
ATOM     23  H   UNL     1     -13.295   6.418 127.589  0.00  0.00    +0.000 HD
ENDBRANCH  14  16
BRANCH  15  24
ATOM     24  O   UNL     1      -8.345   3.472 132.066  0.00  0.00    +0.000 OA
ATOM     25  C   UNL     1      -8.580   2.176 132.598  0.00  0.00    +0.000 C 
ENDBRANCH  15  24
ENDBRANCH  11  14
ENDBRANCH   9  10
BRANCH   5  26
ATOM     26  C   UNL     1      -7.438   2.998 123.187  0.00  0.00    +0.000 C 
ATOM     27  O   UNL     1      -8.604   3.176 122.763  0.00  0.00    +0.000 OA
ATOM     28  OXT UNL     1      -6.336   3.404 122.707  0.00  0.00    +0.000 OA
ENDBRANCH   5  26
BRANCH   4  29
ATOM     29  C   UNL     1      -7.208   0.055 123.453  0.00  0.00    +0.000 C 
BRANCH  29  30
ATOM     30  N   UNL     1      -7.572  -1.370 123.693  0.00  0.00    +0.000 N 
ATOM     31  C   UNL     1      -6.629  -2.325 123.809  0.00  0.00    +0.000 A 
ATOM     32  C   UNL     1      -5.171  -2.135 123.560  0.00  0.00    +0.000 C 
ATOM     33  C   UNL     1      -4.570  -3.513 123.837  0.00  0.00    +0.000 C 
ATOM     34  C   UNL     1      -5.709  -4.483 124.223  0.00  0.00    +0.000 C 
ATOM     35  C   UNL     1      -6.945  -3.631 124.154  0.00  0.00    +0.000 A 
ATOM     36  C   UNL     1      -8.267  -3.964 124.400  0.00  0.00    +0.000 A 
ATOM     37  C   UNL     1      -9.245  -2.982 124.219  0.00  0.00    +0.000 A 
ATOM     38  C   UNL     1      -8.879  -1.709 123.789  0.00  0.00    +0.000 A 
ENDBRANCH  29  30
ENDBRANCH   4  29
TORSDOF 7
ENDMDL
MODEL 2
REMARK VINA RESULT:      -8.7      1.786      2.922
REMARK  Name = Cefpirome
REMARK  8 active torsions:
REMARK  status: ('A' for Active; 'I' for Inactive)
REMARK    1  A    between atoms: C_5  and  C_6
REMARK    2  A    between atoms: C_6  and  N_7
REMARK    3  A    between atoms: CA_16  and  C_34
REMARK    4  A    between atoms: CA_20  and  N_21
REMARK    5  A    between atoms: C_22  and  C_24
REMARK    6  A    between atoms: C_24  and  C_28
REMARK    7  A    between atoms: N_25  and  O_26
REMARK    8  A    between atoms: O_26  and  C_27
REMARK                            x       y       z     vdW  Elec       q    Type
REMARK                         _______ _______ _______ _____ _____    ______ ____
ROOT
ATOM      1  C   UNL     1      -6.654   2.760 126.925  0.00  0.00    +0.000 C 
ATOM      2  S   UNL     1      -7.505   1.235 127.405  0.00  0.00    +0.000 S 
ATOM      3  C   UNL     1      -6.777   0.341 126.013  0.00  0.00    +0.000 C 
ATOM      4  C   UNL     1      -7.059   0.957 124.659  0.00  0.00    +0.000 C 
ATOM      5  CA  UNL     1      -7.245   2.300 124.508  0.00  0.00    +0.000 C 
ATOM      6  N   UNL     1      -7.123   3.142 125.601  0.00  0.00    +0.000 N 
ATOM      7  C   UNL     1      -7.909   4.175 126.037  0.00  0.00    +0.000 C 
ATOM      8  O   UNL     1      -8.845   4.783 125.585  0.00  0.00    +0.000 OA
ATOM      9  CA  UNL     1      -7.228   4.104 127.439  0.00  0.00    +0.000 C 
ENDROOT
BRANCH   9  10
ATOM     10  N   UNL     1      -8.076   4.085 128.662  0.00  0.00    +0.000 N 
ATOM     11  C   UNL     1      -7.857   4.961 129.716  0.00  0.00    +0.000 C 
ATOM     12  O   UNL     1      -6.861   5.674 129.752  0.00  0.00    +0.000 OA
ATOM     13  H   UNL     1      -8.912   3.508 128.705  0.00  0.00    +0.000 HD
BRANCH  11  14
ATOM     14  C   UNL     1      -8.866   4.971 130.895  0.00  0.00    +0.000 C 
ATOM     15  N   UNL     1     -10.166   5.135 130.770  0.00  0.00    +0.000 NA
BRANCH  14  16
ATOM     16  C   UNL     1      -8.375   4.706 132.268  0.00  0.00    +0.000 A 
ATOM     17  C   UNL     1      -7.622   3.592 132.599  0.00  0.00    +0.000 A 
ATOM     18  S   UNL     1      -7.196   3.611 134.255  0.00  0.00    +0.000 S 
ATOM     19  C   UNL     1      -8.041   5.093 134.450  0.00  0.00    +0.000 A 
ATOM     20  N   UNL     1      -8.093   5.686 135.652  0.00  0.00    +0.000 N 
ATOM     21  N   UNL     1      -8.604   5.561 133.358  0.00  0.00    +0.000 NA
ATOM     22  H   UNL     1      -7.631   5.299 136.464  0.00  0.00    +0.000 HD
ATOM     23  H   UNL     1      -8.573   6.570 135.768  0.00  0.00    +0.000 HD
ENDBRANCH  14  16
BRANCH  15  24
ATOM     24  O   UNL     1     -10.560   5.363 129.446  0.00  0.00    +0.000 OA
ATOM     25  C   UNL     1     -11.142   6.648 129.279  0.00  0.00    +0.000 C 
ENDBRANCH  15  24
ENDBRANCH  11  14
ENDBRANCH   9  10
BRANCH   5  26
ATOM     26  C   UNL     1      -7.548   2.934 123.053  0.00  0.00    +0.000 C 
ATOM     27  O   UNL     1      -8.757   3.077 122.755  0.00  0.00    +0.000 OA
ATOM     28  OXT UNL     1      -6.514   3.320 122.429  0.00  0.00    +0.000 OA
ENDBRANCH   5  26
BRANCH   4  29
ATOM     29  C   UNL     1      -7.133   0.025 123.441  0.00  0.00    +0.000 C 
BRANCH  29  30
ATOM     30  N   UNL     1      -7.516  -1.376 123.773  0.00  0.00    +0.000 N 
ATOM     31  C   UNL     1      -6.599  -2.363 123.813  0.00  0.00    +0.000 A 
ATOM     32  C   UNL     1      -5.174  -2.238 123.390  0.00  0.00    +0.000 C 
ATOM     33  C   UNL     1      -4.593  -3.628 123.645  0.00  0.00    +0.000 C 
ATOM     34  C   UNL     1      -5.711  -4.540 124.196  0.00  0.00    +0.000 C 
ATOM     35  C   UNL     1      -6.917  -3.644 124.240  0.00  0.00    +0.000 A 
ATOM     36  C   UNL     1      -8.212  -3.918 124.650  0.00  0.00    +0.000 A 
ATOM     37  C   UNL     1      -9.170  -2.906 124.548  0.00  0.00    +0.000 A 
ATOM     38  C   UNL     1      -8.813  -1.662 124.033  0.00  0.00    +0.000 A 
ENDBRANCH  29  30
ENDBRANCH   4  29
TORSDOF 7
ENDMDL
MODEL 3
REMARK VINA RESULT:      -8.6      4.521      7.680
REMARK  Name = Cefpirome
REMARK  8 active torsions:
REMARK  status: ('A' for Active; 'I' for Inactive)
REMARK    1  A    between atoms: C_5  and  C_6
REMARK    2  A    between atoms: C_6  and  N_7
REMARK    3  A    between atoms: CA_16  and  C_34
REMARK    4  A    between atoms: CA_20  and  N_21
REMARK    5  A    between atoms: C_22  and  C_24
REMARK    6  A    between atoms: C_24  and  C_28
REMARK    7  A    between atoms: N_25  and  O_26
REMARK    8  A    between atoms: O_26  and  C_27
REMARK                            x       y       z     vdW  Elec       q    Type
REMARK                         _______ _______ _______ _____ _____    ______ ____
ROOT
ATOM      1  C   UNL     1      -6.169   0.941 126.337  0.00  0.00    +0.000 C 
ATOM      2  S   UNL     1      -7.386  -0.132 125.530  0.00  0.00    +0.000 S 
ATOM      3  C   UNL     1      -7.306   0.848 124.013  0.00  0.00    +0.000 C 
ATOM      4  C   UNL     1      -7.617   2.317 124.202  0.00  0.00    +0.000 C 
ATOM      5  CA  UNL     1      -7.350   2.961 125.375  0.00  0.00    +0.000 C 
ATOM      6  N   UNL     1      -6.728   2.283 126.410  0.00  0.00    +0.000 N 
ATOM      7  C   UNL     1      -7.002   2.234 127.751  0.00  0.00    +0.000 C 
ATOM      8  O   UNL     1      -7.737   2.834 128.492  0.00  0.00    +0.000 OA
ATOM      9  CA  UNL     1      -6.126   0.951 127.885  0.00  0.00    +0.000 C 
ENDROOT
BRANCH   9  10
ATOM     10  N   UNL     1      -6.666  -0.230 128.612  0.00  0.00    +0.000 N 
ATOM     11  C   UNL     1      -5.909  -1.376 128.808  0.00  0.00    +0.000 C 
ATOM     12  O   UNL     1      -4.827  -1.525 128.253  0.00  0.00    +0.000 OA
ATOM     13  H   UNL     1      -7.563  -0.180 129.088  0.00  0.00    +0.000 HD
BRANCH  11  14
ATOM     14  C   UNL     1      -6.493  -2.510 129.693  0.00  0.00    +0.000 C 
ATOM     15  N   UNL     1      -7.516  -3.270 129.362  0.00  0.00    +0.000 NA
BRANCH  14  16
ATOM     16  C   UNL     1      -5.831  -2.837 130.977  0.00  0.00    +0.000 A 
ATOM     17  C   UNL     1      -6.412  -2.596 132.210  0.00  0.00    +0.000 A 
ATOM     18  S   UNL     1      -5.395  -3.121 133.480  0.00  0.00    +0.000 S 
ATOM     19  C   UNL     1      -4.229  -3.634 132.328  0.00  0.00    +0.000 A 
ATOM     20  N   UNL     1      -3.076  -4.184 132.734  0.00  0.00    +0.000 N 
ATOM     21  N   UNL     1      -4.566  -3.440 131.072  0.00  0.00    +0.000 NA
ATOM     22  H   UNL     1      -2.864  -4.330 133.713  0.00  0.00    +0.000 HD
ATOM     23  H   UNL     1      -2.395  -4.507 132.059  0.00  0.00    +0.000 HD
ENDBRANCH  14  16
BRANCH  15  24
ATOM     24  O   UNL     1      -8.080  -2.916 128.130  0.00  0.00    +0.000 OA
ATOM     25  C   UNL     1      -8.993  -3.899 127.663  0.00  0.00    +0.000 C 
ENDBRANCH  15  24
ENDBRANCH  11  14
ENDBRANCH   9  10
BRANCH   5  26
ATOM     26  C   UNL     1      -7.695   4.529 125.554  0.00  0.00    +0.000 C 
ATOM     27  O   UNL     1      -8.887   4.804 125.824  0.00  0.00    +0.000 OA
ATOM     28  OXT UNL     1      -6.682   5.293 125.510  0.00  0.00    +0.000 OA
ENDBRANCH   5  26
BRANCH   4  29
ATOM     29  C   UNL     1      -8.252   3.079 123.029  0.00  0.00    +0.000 C 
BRANCH  29  30
ATOM     30  N   UNL     1      -7.278   3.491 121.979  0.00  0.00    +0.000 N 
ATOM     31  C   UNL     1      -7.687   3.845 120.744  0.00  0.00    +0.000 A 
ATOM     32  C   UNL     1      -9.079   3.721 120.226  0.00  0.00    +0.000 C 
ATOM     33  C   UNL     1      -8.988   4.261 118.799  0.00  0.00    +0.000 C 
ATOM     34  C   UNL     1      -7.525   4.669 118.515  0.00  0.00    +0.000 C 
ATOM     35  C   UNL     1      -6.808   4.347 119.796  0.00  0.00    +0.000 A 
ATOM     36  C   UNL     1      -5.471   4.504 120.128  0.00  0.00    +0.000 A 
ATOM     37  C   UNL     1      -5.046   4.078 121.390  0.00  0.00    +0.000 A 
ATOM     38  C   UNL     1      -5.957   3.503 122.272  0.00  0.00    +0.000 A 
ENDBRANCH  29  30
ENDBRANCH   4  29
TORSDOF 7
ENDMDL
MODEL 4
REMARK VINA RESULT:      -8.4      2.691      3.282
REMARK  Name = Cefpirome
REMARK  8 active torsions:
REMARK  status: ('A' for Active; 'I' for Inactive)
REMARK    1  A    between atoms: C_5  and  C_6
REMARK    2  A    between atoms: C_6  and  N_7
REMARK    3  A    between atoms: CA_16  and  C_34
REMARK    4  A    between atoms: CA_20  and  N_21
REMARK    5  A    between atoms: C_22  and  C_24
REMARK    6  A    between atoms: C_24  and  C_28
REMARK    7  A    between atoms: N_25  and  O_26
REMARK    8  A    between atoms: O_26  and  C_27
REMARK                            x       y       z     vdW  Elec       q    Type
REMARK                         _______ _______ _______ _____ _____    ______ ____
ROOT
ATOM      1  C   UNL     1      -5.830   2.773 130.105  0.00  0.00    +0.000 C 
ATOM      2  S   UNL     1      -7.151   1.561 130.359  0.00  0.00    +0.000 S 
ATOM      3  C   UNL     1      -6.143   0.247 129.633  0.00  0.00    +0.000 C 
ATOM      4  C   UNL     1      -5.659   0.538 128.228  0.00  0.00    +0.000 C 
ATOM      5  CA  UNL     1      -5.426   1.812 127.800  0.00  0.00    +0.000 C 
ATOM      6  N   UNL     1      -5.578   2.874 128.674  0.00  0.00    +0.000 N 
ATOM      7  C   UNL     1      -6.195   4.088 128.523  0.00  0.00    +0.000 C 
ATOM      8  O   UNL     1      -6.666   4.694 127.595  0.00  0.00    +0.000 OA
ATOM      9  CA  UNL     1      -6.218   4.272 130.071  0.00  0.00    +0.000 C 
ENDROOT
BRANCH   9  10
ATOM     10  N   UNL     1      -7.482   4.687 130.738  0.00  0.00    +0.000 N 
ATOM     11  C   UNL     1      -7.777   6.022 130.980  0.00  0.00    +0.000 C 
ATOM     12  O   UNL     1      -6.940   6.899 130.801  0.00  0.00    +0.000 OA
ATOM     13  H   UNL     1      -8.216   4.009 130.926  0.00  0.00    +0.000 HD
BRANCH  11  14
ATOM     14  C   UNL     1      -9.173   6.382 131.554  0.00  0.00    +0.000 C 
ATOM     15  N   UNL     1      -9.514   6.276 132.821  0.00  0.00    +0.000 NA
BRANCH  14  16
ATOM     16  C   UNL     1     -10.197   6.960 130.653  0.00  0.00    +0.000 A 
ATOM     17  C   UNL     1     -11.554   6.912 130.922  0.00  0.00    +0.000 A 
ATOM     18  S   UNL     1     -12.450   7.700 129.696  0.00  0.00    +0.000 S 
ATOM     19  C   UNL     1     -10.990   8.056 128.865  0.00  0.00    +0.000 A 
ATOM     20  N   UNL     1     -11.022   8.722 127.702  0.00  0.00    +0.000 N 
ATOM     21  N   UNL     1      -9.896   7.628 129.455  0.00  0.00    +0.000 NA
ATOM     22  H   UNL     1     -11.887   9.047 127.291  0.00  0.00    +0.000 HD
ATOM     23  H   UNL     1     -10.163   8.952 127.218  0.00  0.00    +0.000 HD
ENDBRANCH  14  16
BRANCH  15  24
ATOM     24  O   UNL     1      -8.494   5.740 133.616  0.00  0.00    +0.000 OA
ATOM     25  C   UNL     1      -8.822   4.445 134.099  0.00  0.00    +0.000 C 
ENDBRANCH  15  24
ENDBRANCH  11  14
ENDBRANCH   9  10
BRANCH   5  26
ATOM     26  C   UNL     1      -4.912   2.097 126.294  0.00  0.00    +0.000 C 
ATOM     27  O   UNL     1      -5.803   2.217 125.421  0.00  0.00    +0.000 OA
ATOM     28  OXT UNL     1      -3.661   2.279 126.198  0.00  0.00    +0.000 OA
ENDBRANCH   5  26
BRANCH   4  29
ATOM     29  C   UNL     1      -5.433  -0.649 127.280  0.00  0.00    +0.000 C 
BRANCH  29  30
ATOM     30  N   UNL     1      -6.691  -1.276 126.784  0.00  0.00    +0.000 N 
ATOM     31  C   UNL     1      -7.305  -2.259 127.473  0.00  0.00    +0.000 A 
ATOM     32  C   UNL     1      -6.755  -2.942 128.679  0.00  0.00    +0.000 C 
ATOM     33  C   UNL     1      -7.841  -3.950 129.054  0.00  0.00    +0.000 C 
ATOM     34  C   UNL     1      -8.995  -3.841 128.033  0.00  0.00    +0.000 C 
ATOM     35  C   UNL     1      -8.538  -2.765 127.089  0.00  0.00    +0.000 A 
ATOM     36  C   UNL     1      -9.167  -2.239 125.971  0.00  0.00    +0.000 A 
ATOM     37  C   UNL     1      -8.496  -1.262 125.229  0.00  0.00    +0.000 A 
ATOM     38  C   UNL     1      -7.222  -0.851 125.614  0.00  0.00    +0.000 A 
ENDBRANCH  29  30
ENDBRANCH   4  29
TORSDOF 7
ENDMDL
MODEL 5
REMARK VINA RESULT:      -8.3      3.674      4.758
REMARK  Name = Cefpirome
REMARK  8 active torsions:
REMARK  status: ('A' for Active; 'I' for Inactive)
REMARK    1  A    between atoms: C_5  and  C_6
REMARK    2  A    between atoms: C_6  and  N_7
REMARK    3  A    between atoms: CA_16  and  C_34
REMARK    4  A    between atoms: CA_20  and  N_21
REMARK    5  A    between atoms: C_22  and  C_24
REMARK    6  A    between atoms: C_24  and  C_28
REMARK    7  A    between atoms: N_25  and  O_26
REMARK    8  A    between atoms: O_26  and  C_27
REMARK                            x       y       z     vdW  Elec       q    Type
REMARK                         _______ _______ _______ _____ _____    ______ ____
ROOT
ATOM      1  C   UNL     1      -4.793   2.843 125.966  0.00  0.00    +0.000 C 
ATOM      2  S   UNL     1      -5.660   1.680 127.051  0.00  0.00    +0.000 S 
ATOM      3  C   UNL     1      -5.971   0.557 125.669  0.00  0.00    +0.000 C 
ATOM      4  C   UNL     1      -6.712   1.186 124.509  0.00  0.00    +0.000 C 
ATOM      5  CA  UNL     1      -6.593   2.514 124.218  0.00  0.00    +0.000 C 
ATOM      6  N   UNL     1      -5.736   3.310 124.959  0.00  0.00    +0.000 N 
ATOM      7  C   UNL     1      -5.907   4.551 125.511  0.00  0.00    +0.000 C 
ATOM      8  O   UNL     1      -6.750   5.408 125.437  0.00  0.00    +0.000 OA
ATOM      9  CA  UNL     1      -4.670   4.314 126.431  0.00  0.00    +0.000 C 
ENDROOT
BRANCH   9  10
ATOM     10  N   UNL     1      -4.777   4.603 127.888  0.00  0.00    +0.000 N 
ATOM     11  C   UNL     1      -4.416   5.835 128.416  0.00  0.00    +0.000 C 
ATOM     12  O   UNL     1      -3.845   6.677 127.733  0.00  0.00    +0.000 OA
ATOM     13  H   UNL     1      -5.231   3.945 128.515  0.00  0.00    +0.000 HD
BRANCH  11  14
ATOM     14  C   UNL     1      -4.685   6.105 129.921  0.00  0.00    +0.000 C 
ATOM     15  N   UNL     1      -5.819   5.850 130.539  0.00  0.00    +0.000 NA
BRANCH  14  16
ATOM     16  C   UNL     1      -3.584   6.616 130.771  0.00  0.00    +0.000 A 
ATOM     17  C   UNL     1      -3.680   7.784 131.508  0.00  0.00    +0.000 A 
ATOM     18  S   UNL     1      -2.247   8.065 132.399  0.00  0.00    +0.000 S 
ATOM     19  C   UNL     1      -1.569   6.626 131.752  0.00  0.00    +0.000 A 
ATOM     20  N   UNL     1      -0.327   6.253 132.093  0.00  0.00    +0.000 N 
ATOM     21  N   UNL     1      -2.351   5.963 130.929  0.00  0.00    +0.000 NA
ATOM     22  H   UNL     1       0.235   6.786 132.744  0.00  0.00    +0.000 HD
ATOM     23  H   UNL     1       0.070   5.396 131.730  0.00  0.00    +0.000 HD
ENDBRANCH  14  16
BRANCH  15  24
ATOM     24  O   UNL     1      -6.807   5.353 129.679  0.00  0.00    +0.000 OA
ATOM     25  C   UNL     1      -8.025   5.096 130.363  0.00  0.00    +0.000 C 
ENDBRANCH  15  24
ENDBRANCH  11  14
ENDBRANCH   9  10
BRANCH   5  26
ATOM     26  C   UNL     1      -7.397   3.163 122.976  0.00  0.00    +0.000 C 
ATOM     27  O   UNL     1      -8.600   3.445 123.185  0.00  0.00    +0.000 OA
ATOM     28  OXT UNL     1      -6.674   3.416 121.965  0.00  0.00    +0.000 OA
ENDBRANCH   5  26
BRANCH   4  29
ATOM     29  C   UNL     1      -7.615   0.286 123.653  0.00  0.00    +0.000 C 
BRANCH  29  30
ATOM     30  N   UNL     1      -7.827  -1.075 124.222  0.00  0.00    +0.000 N 
ATOM     31  C   UNL     1      -6.940  -2.068 124.017  0.00  0.00    +0.000 A 
ATOM     32  C   UNL     1      -5.765  -2.002 123.101  0.00  0.00    +0.000 C 
ATOM     33  C   UNL     1      -5.107  -3.373 123.251  0.00  0.00    +0.000 C 
ATOM     34  C   UNL     1      -5.936  -4.216 124.244  0.00  0.00    +0.000 C 
ATOM     35  C   UNL     1      -7.061  -3.301 124.640  0.00  0.00    +0.000 A 
ATOM     36  C   UNL     1      -8.118  -3.519 125.510  0.00  0.00    +0.000 A 
ATOM     37  C   UNL     1      -9.066  -2.505 125.671  0.00  0.00    +0.000 A 
ATOM     38  C   UNL     1      -8.940  -1.317 124.955  0.00  0.00    +0.000 A 
ENDBRANCH  29  30
ENDBRANCH   4  29
TORSDOF 7
ENDMDL
MODEL 6
REMARK VINA RESULT:      -8.3      4.225      7.174
REMARK  Name = Cefpirome
REMARK  8 active torsions:
REMARK  status: ('A' for Active; 'I' for Inactive)
REMARK    1  A    between atoms: C_5  and  C_6
REMARK    2  A    between atoms: C_6  and  N_7
REMARK    3  A    between atoms: CA_16  and  C_34
REMARK    4  A    between atoms: CA_20  and  N_21
REMARK    5  A    between atoms: C_22  and  C_24
REMARK    6  A    between atoms: C_24  and  C_28
REMARK    7  A    between atoms: N_25  and  O_26
REMARK    8  A    between atoms: O_26  and  C_27
REMARK                            x       y       z     vdW  Elec       q    Type
REMARK                         _______ _______ _______ _____ _____    ______ ____
ROOT
ATOM      1  C   UNL     1      -6.233   1.368 126.699  0.00  0.00    +0.000 C 
ATOM      2  S   UNL     1      -7.462   0.226 126.017  0.00  0.00    +0.000 S 
ATOM      3  C   UNL     1      -7.369   1.025 124.398  0.00  0.00    +0.000 C 
ATOM      4  C   UNL     1      -7.662   2.510 124.418  0.00  0.00    +0.000 C 
ATOM      5  CA  UNL     1      -7.387   3.280 125.511  0.00  0.00    +0.000 C 
ATOM      6  N   UNL     1      -6.774   2.717 126.617  0.00  0.00    +0.000 N 
ATOM      7  C   UNL     1      -7.049   2.825 127.954  0.00  0.00    +0.000 C 
ATOM      8  O   UNL     1      -7.777   3.514 128.622  0.00  0.00    +0.000 OA
ATOM      9  CA  UNL     1      -6.189   1.554 128.235  0.00  0.00    +0.000 C 
ENDROOT
BRANCH   9  10
ATOM     10  N   UNL     1      -6.745   0.471 129.091  0.00  0.00    +0.000 N 
ATOM     11  C   UNL     1      -6.159   0.122 130.301  0.00  0.00    +0.000 C 
ATOM     12  O   UNL     1      -5.073   0.580 130.635  0.00  0.00    +0.000 OA
ATOM     13  H   UNL     1      -7.638   0.039 128.868  0.00  0.00    +0.000 HD
BRANCH  11  14
ATOM     14  C   UNL     1      -6.875  -0.921 131.199  0.00  0.00    +0.000 C 
ATOM     15  N   UNL     1      -8.148  -0.881 131.530  0.00  0.00    +0.000 NA
BRANCH  14  16
ATOM     16  C   UNL     1      -6.119  -2.103 131.675  0.00  0.00    +0.000 A 
ATOM     17  C   UNL     1      -6.729  -3.287 132.056  0.00  0.00    +0.000 A 
ATOM     18  S   UNL     1      -5.567  -4.453 132.520  0.00  0.00    +0.000 S 
ATOM     19  C   UNL     1      -4.313  -3.323 132.201  0.00  0.00    +0.000 A 
ATOM     20  N   UNL     1      -3.032  -3.664 132.398  0.00  0.00    +0.000 N 
ATOM     21  N   UNL     1      -4.718  -2.150 131.768  0.00  0.00    +0.000 NA
ATOM     22  H   UNL     1      -2.763  -4.586 132.718  0.00  0.00    +0.000 HD
ATOM     23  H   UNL     1      -2.288  -3.010 132.193  0.00  0.00    +0.000 HD
ENDBRANCH  14  16
BRANCH  15  24
ATOM     24  O   UNL     1      -8.803   0.252 131.031  0.00  0.00    +0.000 OA
ATOM     25  C   UNL     1      -9.469   0.974 132.057  0.00  0.00    +0.000 C 
ENDBRANCH  15  24
ENDBRANCH  11  14
ENDBRANCH   9  10
BRANCH   5  26
ATOM     26  C   UNL     1      -7.712   4.863 125.509  0.00  0.00    +0.000 C 
ATOM     27  O   UNL     1      -8.878   5.187 125.833  0.00  0.00    +0.000 OA
ATOM     28  OXT UNL     1      -6.704   5.601 125.288  0.00  0.00    +0.000 OA
ENDBRANCH   5  26
BRANCH   4  29
ATOM     29  C   UNL     1      -8.287   3.142 123.165  0.00  0.00    +0.000 C 
BRANCH  29  30
ATOM     30  N   UNL     1      -7.295   3.508 122.114  0.00  0.00    +0.000 N 
ATOM     31  C   UNL     1      -7.684   3.832 120.866  0.00  0.00    +0.000 A 
ATOM     32  C   UNL     1      -9.073   3.716 120.335  0.00  0.00    +0.000 C 
ATOM     33  C   UNL     1      -8.957   4.213 118.894  0.00  0.00    +0.000 C 
ATOM     34  C   UNL     1      -7.485   4.589 118.616  0.00  0.00    +0.000 C 
ATOM     35  C   UNL     1      -6.787   4.293 119.914  0.00  0.00    +0.000 A 
ATOM     36  C   UNL     1      -5.452   4.437 120.256  0.00  0.00    +0.000 A 
ATOM     37  C   UNL     1      -5.047   4.041 121.534  0.00  0.00    +0.000 A 
ATOM     38  C   UNL     1      -5.977   3.506 122.422  0.00  0.00    +0.000 A 
ENDBRANCH  29  30
ENDBRANCH   4  29
TORSDOF 7
ENDMDL
MODEL 7
REMARK VINA RESULT:      -8.1      3.848      5.129
REMARK  Name = Cefpirome
REMARK  8 active torsions:
REMARK  status: ('A' for Active; 'I' for Inactive)
REMARK    1  A    between atoms: C_5  and  C_6
REMARK    2  A    between atoms: C_6  and  N_7
REMARK    3  A    between atoms: CA_16  and  C_34
REMARK    4  A    between atoms: CA_20  and  N_21
REMARK    5  A    between atoms: C_22  and  C_24
REMARK    6  A    between atoms: C_24  and  C_28
REMARK    7  A    between atoms: N_25  and  O_26
REMARK    8  A    between atoms: O_26  and  C_27
REMARK                            x       y       z     vdW  Elec       q    Type
REMARK                         _______ _______ _______ _____ _____    ______ ____
ROOT
ATOM      1  C   UNL     1      -4.530   3.044 126.226  0.00  0.00    +0.000 C 
ATOM      2  S   UNL     1      -5.310   1.852 127.344  0.00  0.00    +0.000 S 
ATOM      3  C   UNL     1      -5.634   0.715 125.976  0.00  0.00    +0.000 C 
ATOM      4  C   UNL     1      -6.442   1.315 124.845  0.00  0.00    +0.000 C 
ATOM      5  CA  UNL     1      -6.383   2.646 124.550  0.00  0.00    +0.000 C 
ATOM      6  N   UNL     1      -5.528   3.474 125.257  0.00  0.00    +0.000 N 
ATOM      7  C   UNL     1      -5.723   4.709 125.815  0.00  0.00    +0.000 C 
ATOM      8  O   UNL     1      -6.599   5.534 125.773  0.00  0.00    +0.000 OA
ATOM      9  CA  UNL     1      -4.443   4.520 126.686  0.00  0.00    +0.000 C 
ENDROOT
BRANCH   9  10
ATOM     10  N   UNL     1      -4.504   4.807 128.145  0.00  0.00    +0.000 N 
ATOM     11  C   UNL     1      -4.250   6.074 128.651  0.00  0.00    +0.000 C 
ATOM     12  O   UNL     1      -3.809   6.967 127.937  0.00  0.00    +0.000 OA
ATOM     13  H   UNL     1      -4.850   4.109 128.797  0.00  0.00    +0.000 HD
BRANCH  11  14
ATOM     14  C   UNL     1      -4.467   6.326 130.167  0.00  0.00    +0.000 C 
ATOM     15  N   UNL     1      -5.610   6.167 130.799  0.00  0.00    +0.000 NA
BRANCH  14  16
ATOM     16  C   UNL     1      -3.307   6.700 131.010  0.00  0.00    +0.000 A 
ATOM     17  C   UNL     1      -2.155   5.937 131.092  0.00  0.00    +0.000 A 
ATOM     18  S   UNL     1      -1.006   6.671 132.125  0.00  0.00    +0.000 S 
ATOM     19  C   UNL     1      -2.102   7.960 132.420  0.00  0.00    +0.000 A 
ATOM     20  N   UNL     1      -1.760   8.961 133.243  0.00  0.00    +0.000 N 
ATOM     21  N   UNL     1      -3.252   7.868 131.789  0.00  0.00    +0.000 NA
ATOM     22  H   UNL     1      -0.856   9.000 133.697  0.00  0.00    +0.000 HD
ATOM     23  H   UNL     1      -2.394   9.733 133.405  0.00  0.00    +0.000 HD
ENDBRANCH  14  16
BRANCH  15  24
ATOM     24  O   UNL     1      -6.656   5.795 129.945  0.00  0.00    +0.000 OA
ATOM     25  C   UNL     1      -7.829   5.442 130.664  0.00  0.00    +0.000 C 
ENDBRANCH  15  24
ENDBRANCH  11  14
ENDBRANCH   9  10
BRANCH   5  26
ATOM     26  C   UNL     1      -7.258   3.263 123.340  0.00  0.00    +0.000 C 
ATOM     27  O   UNL     1      -6.684   3.344 122.229  0.00  0.00    +0.000 OA
ATOM     28  OXT UNL     1      -8.471   3.489 123.638  0.00  0.00    +0.000 OA
ENDBRANCH   5  26
BRANCH   4  29
ATOM     29  C   UNL     1      -7.344   0.381 124.025  0.00  0.00    +0.000 C 
BRANCH  29  30
ATOM     30  N   UNL     1      -6.988  -1.061 124.144  0.00  0.00    +0.000 N 
ATOM     31  C   UNL     1      -7.777  -1.926 124.811  0.00  0.00    +0.000 A 
ATOM     32  C   UNL     1      -8.969  -1.556 125.627  0.00  0.00    +0.000 C 
ATOM     33  C   UNL     1      -9.486  -2.897 126.147  0.00  0.00    +0.000 C 
ATOM     34  C   UNL     1      -8.560  -4.021 125.632  0.00  0.00    +0.000 C 
ATOM     35  C   UNL     1      -7.523  -3.290 124.825  0.00  0.00    +0.000 A 
ATOM     36  C   UNL     1      -6.435  -3.783 124.123  0.00  0.00    +0.000 A 
ATOM     37  C   UNL     1      -5.588  -2.873 123.484  0.00  0.00    +0.000 A 
ATOM     38  C   UNL     1      -5.844  -1.507 123.573  0.00  0.00    +0.000 A 
ENDBRANCH  29  30
ENDBRANCH   4  29
TORSDOF 7
ENDMDL
MODEL 8
REMARK VINA RESULT:      -8.0      3.410      4.358
REMARK  Name = Cefpirome
REMARK  8 active torsions:
REMARK  status: ('A' for Active; 'I' for Inactive)
REMARK    1  A    between atoms: C_5  and  C_6
REMARK    2  A    between atoms: C_6  and  N_7
REMARK    3  A    between atoms: CA_16  and  C_34
REMARK    4  A    between atoms: CA_20  and  N_21
REMARK    5  A    between atoms: C_22  and  C_24
REMARK    6  A    between atoms: C_24  and  C_28
REMARK    7  A    between atoms: N_25  and  O_26
REMARK    8  A    between atoms: O_26  and  C_27
REMARK                            x       y       z     vdW  Elec       q    Type
REMARK                         _______ _______ _______ _____ _____    ______ ____
ROOT
ATOM      1  C   UNL     1      -8.492   1.782 129.993  0.00  0.00    +0.000 C 
ATOM      2  S   UNL     1      -8.104   2.111 128.255  0.00  0.00    +0.000 S 
ATOM      3  C   UNL     1      -7.972   0.343 127.905  0.00  0.00    +0.000 C 
ATOM      4  C   UNL     1      -6.966  -0.390 128.767  0.00  0.00    +0.000 C 
ATOM      5  CA  UNL     1      -6.679   0.017 130.037  0.00  0.00    +0.000 C 
ATOM      6  N   UNL     1      -7.355   1.093 130.587  0.00  0.00    +0.000 N 
ATOM      7  C   UNL     1      -6.905   2.177 131.294  0.00  0.00    +0.000 C 
ATOM      8  O   UNL     1      -5.854   2.495 131.788  0.00  0.00    +0.000 OA
ATOM      9  CA  UNL     1      -8.250   2.917 131.018  0.00  0.00    +0.000 C 
ENDROOT
BRANCH   9  10
ATOM     10  N   UNL     1      -8.222   4.320 130.521  0.00  0.00    +0.000 N 
ATOM     11  C   UNL     1      -9.327   5.153 130.624  0.00  0.00    +0.000 C 
ATOM     12  O   UNL     1     -10.417   4.722 130.981  0.00  0.00    +0.000 OA
ATOM     13  H   UNL     1      -7.353   4.740 130.200  0.00  0.00    +0.000 HD
BRANCH  11  14
ATOM     14  C   UNL     1      -9.177   6.641 130.208  0.00  0.00    +0.000 C 
ATOM     15  N   UNL     1      -8.192   7.430 130.582  0.00  0.00    +0.000 NA
BRANCH  14  16
ATOM     16  C   UNL     1     -10.154   7.229 129.262  0.00  0.00    +0.000 A 
ATOM     17  C   UNL     1     -11.284   7.915 129.673  0.00  0.00    +0.000 A 
ATOM     18  S   UNL     1     -12.175   8.487 128.330  0.00  0.00    +0.000 S 
ATOM     19  C   UNL     1     -11.020   7.785 127.271  0.00  0.00    +0.000 A 
ATOM     20  N   UNL     1     -11.173   7.888 125.943  0.00  0.00    +0.000 N 
ATOM     21  N   UNL     1     -10.023   7.167 127.865  0.00  0.00    +0.000 NA
ATOM     22  H   UNL     1     -11.948   8.387 125.527  0.00  0.00    +0.000 HD
ATOM     23  H   UNL     1     -10.485   7.494 125.314  0.00  0.00    +0.000 HD
ENDBRANCH  14  16
BRANCH  15  24
ATOM     24  O   UNL     1      -7.297   6.804 131.460  0.00  0.00    +0.000 OA
ATOM     25  C   UNL     1      -5.947   6.980 131.056  0.00  0.00    +0.000 C 
ENDBRANCH  15  24
ENDBRANCH  11  14
ENDBRANCH   9  10
BRANCH   5  26
ATOM     26  C   UNL     1      -5.599  -0.780 130.937  0.00  0.00    +0.000 C 
ATOM     27  O   UNL     1      -6.042  -1.741 131.608  0.00  0.00    +0.000 OA
ATOM     28  OXT UNL     1      -4.400  -0.402 130.764  0.00  0.00    +0.000 OA
ENDBRANCH   5  26
BRANCH   4  29
ATOM     29  C   UNL     1      -6.264  -1.620 128.173  0.00  0.00    +0.000 C 
BRANCH  29  30
ATOM     30  N   UNL     1      -7.060  -2.327 127.130  0.00  0.00    +0.000 N 
ATOM     31  C   UNL     1      -6.649  -2.376 125.847  0.00  0.00    +0.000 A 
ATOM     32  C   UNL     1      -5.489  -1.630 125.282  0.00  0.00    +0.000 C 
ATOM     33  C   UNL     1      -5.468  -2.046 123.811  0.00  0.00    +0.000 C 
ATOM     34  C   UNL     1      -6.641  -3.017 123.553  0.00  0.00    +0.000 C 
ATOM     35  C   UNL     1      -7.313  -3.132 124.893  0.00  0.00    +0.000 A 
ATOM     36  C   UNL     1      -8.426  -3.869 125.267  0.00  0.00    +0.000 A 
ATOM     37  C   UNL     1      -8.880  -3.765 126.585  0.00  0.00    +0.000 A 
ATOM     38  C   UNL     1      -8.222  -2.924 127.480  0.00  0.00    +0.000 A 
ENDBRANCH  29  30
ENDBRANCH   4  29
TORSDOF 7
ENDMDL
MODEL 9
REMARK VINA RESULT:      -7.9      2.542      2.982
REMARK  Name = Cefpirome
REMARK  8 active torsions:
REMARK  status: ('A' for Active; 'I' for Inactive)
REMARK    1  A    between atoms: C_5  and  C_6
REMARK    2  A    between atoms: C_6  and  N_7
REMARK    3  A    between atoms: CA_16  and  C_34
REMARK    4  A    between atoms: CA_20  and  N_21
REMARK    5  A    between atoms: C_22  and  C_24
REMARK    6  A    between atoms: C_24  and  C_28
REMARK    7  A    between atoms: N_25  and  O_26
REMARK    8  A    between atoms: O_26  and  C_27
REMARK                            x       y       z     vdW  Elec       q    Type
REMARK                         _______ _______ _______ _____ _____    ______ ____
ROOT
ATOM      1  C   UNL     1      -4.976   2.615 126.789  0.00  0.00    +0.000 C 
ATOM      2  S   UNL     1      -5.585   1.070 127.512  0.00  0.00    +0.000 S 
ATOM      3  C   UNL     1      -5.655   0.287 125.884  0.00  0.00    +0.000 C 
ATOM      4  C   UNL     1      -6.509   1.024 124.874  0.00  0.00    +0.000 C 
ATOM      5  CA  UNL     1      -6.666   2.379 124.922  0.00  0.00    +0.000 C 
ATOM      6  N   UNL     1      -5.993   3.120 125.878  0.00  0.00    +0.000 N 
ATOM      7  C   UNL     1      -6.418   4.125 126.706  0.00  0.00    +0.000 C 
ATOM      8  O   UNL     1      -7.419   4.787 126.797  0.00  0.00    +0.000 OA
ATOM      9  CA  UNL     1      -5.160   3.919 127.604  0.00  0.00    +0.000 C 
ENDROOT
BRANCH   9  10
ATOM     10  N   UNL     1      -5.326   3.809 129.080  0.00  0.00    +0.000 N 
ATOM     11  C   UNL     1      -5.387   4.932 129.893  0.00  0.00    +0.000 C 
ATOM     12  O   UNL     1      -5.144   6.049 129.453  0.00  0.00    +0.000 OA
ATOM     13  H   UNL     1      -5.520   2.910 129.514  0.00  0.00    +0.000 HD
BRANCH  11  14
ATOM     14  C   UNL     1      -5.698   4.740 131.402  0.00  0.00    +0.000 C 
ATOM     15  N   UNL     1      -4.807   4.435 132.320  0.00  0.00    +0.000 NA
BRANCH  14  16
ATOM     16  C   UNL     1      -7.076   4.983 131.891  0.00  0.00    +0.000 A 
ATOM     17  C   UNL     1      -7.861   6.034 131.446  0.00  0.00    +0.000 A 
ATOM     18  S   UNL     1      -9.401   6.003 132.188  0.00  0.00    +0.000 S 
ATOM     19  C   UNL     1      -8.944   4.602 133.069  0.00  0.00    +0.000 A 
ATOM     20  N   UNL     1      -9.805   4.034 133.926  0.00  0.00    +0.000 N 
ATOM     21  N   UNL     1      -7.727   4.167 132.831  0.00  0.00    +0.000 NA
ATOM     22  H   UNL     1     -10.740   4.393 134.067  0.00  0.00    +0.000 HD
ATOM     23  H   UNL     1      -9.548   3.196 134.432  0.00  0.00    +0.000 HD
ENDBRANCH  14  16
BRANCH  15  24
ATOM     24  O   UNL     1      -3.526   4.237 131.790  0.00  0.00    +0.000 OA
ATOM     25  C   UNL     1      -2.579   3.913 132.798  0.00  0.00    +0.000 C 
ENDBRANCH  15  24
ENDBRANCH  11  14
ENDBRANCH   9  10
BRANCH   5  26
ATOM     26  C   UNL     1      -7.585   3.143 123.834  0.00  0.00    +0.000 C 
ATOM     27  O   UNL     1      -8.789   3.301 124.143  0.00  0.00    +0.000 OA
ATOM     28  OXT UNL     1      -6.943   3.595 122.837  0.00  0.00    +0.000 OA
ENDBRANCH   5  26
BRANCH   4  29
ATOM     29  C   UNL     1      -7.205   0.204 123.778  0.00  0.00    +0.000 C 
BRANCH  29  30
ATOM     30  N   UNL     1      -7.582  -1.174 124.202  0.00  0.00    +0.000 N 
ATOM     31  C   UNL     1      -6.741  -2.214 124.039  0.00  0.00    +0.000 A 
ATOM     32  C   UNL     1      -5.447  -2.171 123.299  0.00  0.00    +0.000 C 
ATOM     33  C   UNL     1      -4.905  -3.595 123.425  0.00  0.00    +0.000 C 
ATOM     34  C   UNL     1      -5.919  -4.442 124.226  0.00  0.00    +0.000 C 
ATOM     35  C   UNL     1      -7.027  -3.476 124.538  0.00  0.00    +0.000 A 
ATOM     36  C   UNL     1      -8.208  -3.675 125.237  0.00  0.00    +0.000 A 
ATOM     37  C   UNL     1      -9.102  -2.607 125.349  0.00  0.00    +0.000 A 
ATOM     38  C   UNL     1      -8.800  -1.383 124.755  0.00  0.00    +0.000 A 
ENDBRANCH  29  30
ENDBRANCH   4  29
TORSDOF 7
ENDMDL
