MODEL 1
REMARK VINA RESULT:      -7.0      0.000      0.000
REMARK  Name = Cefpodoxime
REMARK  10 active torsions:
REMARK  status: ('A' for Active; 'I' for Inactive)
REMARK    1  A    between atoms: C_5  and  C_6
REMARK    2  A    between atoms: C_6  and  O_7
REMARK    3  A    between atoms: O_7  and  C_8
REMARK    4  A    between atoms: CA_9  and  C_27
REMARK    5  A    between atoms: CA_13  and  N_14
REMARK    6  A    between atoms: C_15  and  C_17
REMARK    7  A    between atoms: C_17  and  C_21
REMARK    8  A    between atoms: N_18  and  O_19
REMARK    9  A    between atoms: O_19  and  C_20
REMARK   10  A    between atoms: C_27  and  O_28
REMARK                            x       y       z     vdW  Elec       q    Type
REMARK                         _______ _______ _______ _____ _____    ______ ____
ROOT
ATOM      1  C   UNL     1      -6.946   2.536 127.044  0.00  0.00    +0.000 C 
ATOM      2  S   UNL     1      -7.996   1.068 127.182  0.00  0.00    +0.000 S 
ATOM      3  C   UNL     1      -7.172   0.236 125.785  0.00  0.00    +0.000 C 
ATOM      4  C   UNL     1      -7.148   1.079 124.528  0.00  0.00    +0.000 C 
ATOM      5  CA  UNL     1      -7.200   2.443 124.533  0.00  0.00    +0.000 C 
ATOM      6  N   UNL     1      -7.159   3.138 125.724  0.00  0.00    +0.000 N 
ATOM      7  C   UNL     1      -7.915   4.173 126.184  0.00  0.00    +0.000 C 
ATOM      8  O   UNL     1      -8.569   4.978 125.570  0.00  0.00    +0.000 OA
ATOM      9  CA  UNL     1      -7.481   3.870 127.653  0.00  0.00    +0.000 C 
ENDROOT
BRANCH   9  10
ATOM     10  N   UNL     1      -8.491   3.816 128.737  0.00  0.00    +0.000 N 
ATOM     11  C   UNL     1      -8.591   4.824 129.692  0.00  0.00    +0.000 C 
ATOM     12  O   UNL     1      -7.764   5.726 129.746  0.00  0.00    +0.000 OA
ATOM     13  H   UNL     1      -9.199   3.087 128.776  0.00  0.00    +0.000 HD
BRANCH  11  14
ATOM     14  C   UNL     1      -9.749   4.757 130.727  0.00  0.00    +0.000 C 
ATOM     15  N   UNL     1      -9.740   4.007 131.807  0.00  0.00    +0.000 NA
BRANCH  14  16
ATOM     16  C   UNL     1     -10.931   5.633 130.549  0.00  0.00    +0.000 A 
ATOM     17  C   UNL     1     -11.433   6.435 131.558  0.00  0.00    +0.000 A 
ATOM     18  S   UNL     1     -12.782   7.335 131.011  0.00  0.00    +0.000 S 
ATOM     19  C   UNL     1     -12.636   6.603 129.464  0.00  0.00    +0.000 A 
ATOM     20  N   UNL     1     -13.500   6.916 128.488  0.00  0.00    +0.000 N 
ATOM     21  N   UNL     1     -11.646   5.746 129.345  0.00  0.00    +0.000 NA
ATOM     22  H   UNL     1     -14.236   7.599 128.620  0.00  0.00    +0.000 HD
ATOM     23  H   UNL     1     -13.407   6.510 127.566  0.00  0.00    +0.000 HD
ENDBRANCH  14  16
BRANCH  15  24
ATOM     24  O   UNL     1      -8.588   3.218 131.915  0.00  0.00    +0.000 OA
ATOM     25  C   UNL     1      -8.403   2.728 133.236  0.00  0.00    +0.000 C 
ENDBRANCH  15  24
ENDBRANCH  11  14
ENDBRANCH   9  10
BRANCH   5  26
ATOM     26  C   UNL     1      -7.251   3.183 123.198  0.00  0.00    +0.000 C 
ATOM     27  OXT UNL     1      -6.260   3.516 122.562  0.00  0.00    +0.000 OA
BRANCH  26  28
ATOM     28  O   UNL     1      -8.467   3.561 122.762  0.00  0.00    +0.000 OA
ATOM     29  H   UNL     1      -8.554   4.489 122.477  0.00  0.00    +0.000 HD
ENDBRANCH  26  28
ENDBRANCH   5  26
BRANCH   4  30
ATOM     30  C   UNL     1      -7.087   0.285 123.228  0.00  0.00    +0.000 C 
BRANCH  30  31
ATOM     31  O   UNL     1      -7.249  -1.119 123.433  0.00  0.00    +0.000 OA
ATOM     32  C   UNL     1      -6.322  -1.840 122.621  0.00  0.00    +0.000 C 
ENDBRANCH  30  31
ENDBRANCH   4  30
TORSDOF 8
ENDMDL
MODEL 2
REMARK VINA RESULT:      -7.0      4.935      7.698
REMARK  Name = Cefpodoxime
REMARK  10 active torsions:
REMARK  status: ('A' for Active; 'I' for Inactive)
REMARK    1  A    between atoms: C_5  and  C_6
REMARK    2  A    between atoms: C_6  and  O_7
REMARK    3  A    between atoms: O_7  and  C_8
REMARK    4  A    between atoms: CA_9  and  C_27
REMARK    5  A    between atoms: CA_13  and  N_14
REMARK    6  A    between atoms: C_15  and  C_17
REMARK    7  A    between atoms: C_17  and  C_21
REMARK    8  A    between atoms: N_18  and  O_19
REMARK    9  A    between atoms: O_19  and  C_20
REMARK   10  A    between atoms: C_27  and  O_28
REMARK                            x       y       z     vdW  Elec       q    Type
REMARK                         _______ _______ _______ _____ _____    ______ ____
ROOT
ATOM      1  C   UNL     1     -11.252   5.088 130.702  0.00  0.00    +0.000 C 
ATOM      2  S   UNL     1     -11.076   6.297 132.039  0.00  0.00    +0.000 S 
ATOM      3  C   UNL     1     -12.392   7.366 131.366  0.00  0.00    +0.000 C 
ATOM      4  C   UNL     1     -12.162   7.744 129.919  0.00  0.00    +0.000 C 
ATOM      5  CA  UNL     1     -11.430   6.990 129.049  0.00  0.00    +0.000 C 
ATOM      6  N   UNL     1     -10.951   5.754 129.431  0.00  0.00    +0.000 N 
ATOM      7  C   UNL     1      -9.721   5.186 129.287  0.00  0.00    +0.000 C 
ATOM      8  O   UNL     1      -8.843   5.445 128.503  0.00  0.00    +0.000 OA
ATOM      9  CA  UNL     1     -10.040   4.149 130.410  0.00  0.00    +0.000 C 
ENDROOT
BRANCH   9  10
ATOM     10  N   UNL     1      -9.055   3.884 131.486  0.00  0.00    +0.000 N 
ATOM     11  C   UNL     1      -9.114   2.728 132.260  0.00  0.00    +0.000 C 
ATOM     12  O   UNL     1     -10.058   1.952 132.164  0.00  0.00    +0.000 OA
ATOM     13  H   UNL     1      -8.256   4.492 131.645  0.00  0.00    +0.000 HD
BRANCH  11  14
ATOM     14  C   UNL     1      -7.981   2.463 133.290  0.00  0.00    +0.000 C 
ATOM     15  N   UNL     1      -7.316   1.332 133.392  0.00  0.00    +0.000 NA
BRANCH  14  16
ATOM     16  C   UNL     1      -7.552   3.557 134.192  0.00  0.00    +0.000 A 
ATOM     17  C   UNL     1      -6.245   3.710 134.622  0.00  0.00    +0.000 A 
ATOM     18  S   UNL     1      -6.089   5.086 135.626  0.00  0.00    +0.000 S 
ATOM     19  C   UNL     1      -7.767   5.402 135.447  0.00  0.00    +0.000 A 
ATOM     20  N   UNL     1      -8.324   6.453 136.066  0.00  0.00    +0.000 N 
ATOM     21  N   UNL     1      -8.416   4.549 134.684  0.00  0.00    +0.000 NA
ATOM     22  H   UNL     1      -7.780   7.096 136.628  0.00  0.00    +0.000 HD
ATOM     23  H   UNL     1      -9.306   6.662 135.946  0.00  0.00    +0.000 HD
ENDBRANCH  14  16
BRANCH  15  24
ATOM     24  O   UNL     1      -7.767   0.350 132.501  0.00  0.00    +0.000 OA
ATOM     25  C   UNL     1      -7.179  -0.915 132.766  0.00  0.00    +0.000 C 
ENDBRANCH  15  24
ENDBRANCH  11  14
ENDBRANCH   9  10
BRANCH   5  26
ATOM     26  C   UNL     1     -11.199   7.514 127.633  0.00  0.00    +0.000 C 
ATOM     27  OXT UNL     1     -10.511   8.490 127.368  0.00  0.00    +0.000 OA
BRANCH  26  28
ATOM     28  O   UNL     1     -11.877   6.902 126.644  0.00  0.00    +0.000 OA
ATOM     29  H   UNL     1     -11.345   6.570 125.898  0.00  0.00    +0.000 HD
ENDBRANCH  26  28
ENDBRANCH   5  26
BRANCH   4  30
ATOM     30  C   UNL     1     -12.794   9.066 129.497  0.00  0.00    +0.000 C 
BRANCH  30  31
ATOM     31  O   UNL     1     -13.145   9.888 130.610  0.00  0.00    +0.000 OA
ATOM     32  C   UNL     1     -13.533  11.185 130.156  0.00  0.00    +0.000 C 
ENDBRANCH  30  31
ENDBRANCH   4  30
TORSDOF 8
ENDMDL
MODEL 3
REMARK VINA RESULT:      -6.8      4.869      8.150
REMARK  Name = Cefpodoxime
REMARK  10 active torsions:
REMARK  status: ('A' for Active; 'I' for Inactive)
REMARK    1  A    between atoms: C_5  and  C_6
REMARK    2  A    between atoms: C_6  and  O_7
REMARK    3  A    between atoms: O_7  and  C_8
REMARK    4  A    between atoms: CA_9  and  C_27
REMARK    5  A    between atoms: CA_13  and  N_14
REMARK    6  A    between atoms: C_15  and  C_17
REMARK    7  A    between atoms: C_17  and  C_21
REMARK    8  A    between atoms: N_18  and  O_19
REMARK    9  A    between atoms: O_19  and  C_20
REMARK   10  A    between atoms: C_27  and  O_28
REMARK                            x       y       z     vdW  Elec       q    Type
REMARK                         _______ _______ _______ _____ _____    ______ ____
ROOT
ATOM      1  C   UNL     1     -11.338   5.154 130.677  0.00  0.00    +0.000 C 
ATOM      2  S   UNL     1     -11.182   6.428 131.953  0.00  0.00    +0.000 S 
ATOM      3  C   UNL     1     -12.515   7.441 131.231  0.00  0.00    +0.000 C 
ATOM      4  C   UNL     1     -12.292   7.753 129.766  0.00  0.00    +0.000 C 
ATOM      5  CA  UNL     1     -11.548   6.969 128.934  0.00  0.00    +0.000 C 
ATOM      6  N   UNL     1     -11.047   5.761 129.375  0.00  0.00    +0.000 N 
ATOM      7  C   UNL     1      -9.809   5.208 129.257  0.00  0.00    +0.000 C 
ATOM      8  O   UNL     1      -8.935   5.443 128.461  0.00  0.00    +0.000 OA
ATOM      9  CA  UNL     1     -10.110   4.222 130.429  0.00  0.00    +0.000 C 
ENDROOT
BRANCH   9  10
ATOM     10  N   UNL     1      -9.121   4.025 131.516  0.00  0.00    +0.000 N 
ATOM     11  C   UNL     1      -8.986   2.802 132.167  0.00  0.00    +0.000 C 
ATOM     12  O   UNL     1      -9.768   1.883 131.952  0.00  0.00    +0.000 OA
ATOM     13  H   UNL     1      -8.451   4.748 131.771  0.00  0.00    +0.000 HD
BRANCH  11  14
ATOM     14  C   UNL     1      -7.850   2.637 133.215  0.00  0.00    +0.000 C 
ATOM     15  N   UNL     1      -7.690   3.410 134.267  0.00  0.00    +0.000 NA
BRANCH  14  16
ATOM     16  C   UNL     1      -6.903   1.505 133.085  0.00  0.00    +0.000 A 
ATOM     17  C   UNL     1      -5.647   1.634 132.516  0.00  0.00    +0.000 A 
ATOM     18  S   UNL     1      -4.805   0.145 132.550  0.00  0.00    +0.000 S 
ATOM     19  C   UNL     1      -6.156  -0.597 133.308  0.00  0.00    +0.000 A 
ATOM     20  N   UNL     1      -6.120  -1.900 133.618  0.00  0.00    +0.000 N 
ATOM     21  N   UNL     1      -7.175   0.203 133.535  0.00  0.00    +0.000 NA
ATOM     22  H   UNL     1      -5.304  -2.473 133.443  0.00  0.00    +0.000 HD
ATOM     23  H   UNL     1      -6.900  -2.341 134.088  0.00  0.00    +0.000 HD
ENDBRANCH  14  16
BRANCH  15  24
ATOM     24  O   UNL     1      -8.627   4.449 134.331  0.00  0.00    +0.000 OA
ATOM     25  C   UNL     1      -8.005   5.713 134.510  0.00  0.00    +0.000 C 
ENDBRANCH  15  24
ENDBRANCH  11  14
ENDBRANCH   9  10
BRANCH   5  26
ATOM     26  C   UNL     1     -11.325   7.428 127.494  0.00  0.00    +0.000 C 
ATOM     27  OXT UNL     1     -10.702   8.435 127.185  0.00  0.00    +0.000 OA
BRANCH  26  28
ATOM     28  O   UNL     1     -11.939   6.715 126.531  0.00  0.00    +0.000 OA
ATOM     29  H   UNL     1     -11.544   6.764 125.641  0.00  0.00    +0.000 HD
ENDBRANCH  26  28
ENDBRANCH   5  26
BRANCH   4  30
ATOM     30  C   UNL     1     -12.946   9.042 129.282  0.00  0.00    +0.000 C 
BRANCH  30  31
ATOM     31  O   UNL     1     -13.069  10.019 130.316  0.00  0.00    +0.000 OA
ATOM     32  C   UNL     1     -13.669  11.205 129.796  0.00  0.00    +0.000 C 
ENDBRANCH  30  31
ENDBRANCH   4  30
TORSDOF 8
ENDMDL
MODEL 4
REMARK VINA RESULT:      -6.5      2.385      3.460
REMARK  Name = Cefpodoxime
REMARK  10 active torsions:
REMARK  status: ('A' for Active; 'I' for Inactive)
REMARK    1  A    between atoms: C_5  and  C_6
REMARK    2  A    between atoms: C_6  and  O_7
REMARK    3  A    between atoms: O_7  and  C_8
REMARK    4  A    between atoms: CA_9  and  C_27
REMARK    5  A    between atoms: CA_13  and  N_14
REMARK    6  A    between atoms: C_15  and  C_17
REMARK    7  A    between atoms: C_17  and  C_21
REMARK    8  A    between atoms: N_18  and  O_19
REMARK    9  A    between atoms: O_19  and  C_20
REMARK   10  A    between atoms: C_27  and  O_28
REMARK                            x       y       z     vdW  Elec       q    Type
REMARK                         _______ _______ _______ _____ _____    ______ ____
ROOT
ATOM      1  C   UNL     1      -6.883   1.172 125.444  0.00  0.00    +0.000 C 
ATOM      2  S   UNL     1      -5.911   0.273 126.678  0.00  0.00    +0.000 S 
ATOM      3  C   UNL     1      -5.308  -0.936 125.453  0.00  0.00    +0.000 C 
ATOM      4  C   UNL     1      -6.427  -1.604 124.683  0.00  0.00    +0.000 C 
ATOM      5  CA  UNL     1      -7.651  -1.035 124.486  0.00  0.00    +0.000 C 
ATOM      6  N   UNL     1      -7.891   0.262 124.891  0.00  0.00    +0.000 N 
ATOM      7  C   UNL     1      -8.935   0.808 125.575  0.00  0.00    +0.000 C 
ATOM      8  O   UNL     1     -10.063   0.406 125.702  0.00  0.00    +0.000 OA
ATOM      9  CA  UNL     1      -8.069   2.051 125.954  0.00  0.00    +0.000 C 
ENDROOT
BRANCH   9  10
ATOM     10  N   UNL     1      -8.048   2.552 127.350  0.00  0.00    +0.000 N 
ATOM     11  C   UNL     1      -7.865   3.902 127.637  0.00  0.00    +0.000 C 
ATOM     12  O   UNL     1      -7.585   4.703 126.753  0.00  0.00    +0.000 OA
ATOM     13  H   UNL     1      -8.248   1.946 128.142  0.00  0.00    +0.000 HD
BRANCH  11  14
ATOM     14  C   UNL     1      -7.971   4.369 129.115  0.00  0.00    +0.000 C 
ATOM     15  N   UNL     1      -7.041   4.178 130.026  0.00  0.00    +0.000 NA
BRANCH  14  16
ATOM     16  C   UNL     1      -9.159   5.143 129.547  0.00  0.00    +0.000 A 
ATOM     17  C   UNL     1     -10.084   4.659 130.456  0.00  0.00    +0.000 A 
ATOM     18  S   UNL     1     -11.312   5.813 130.752  0.00  0.00    +0.000 S 
ATOM     19  C   UNL     1     -10.558   6.891 129.649  0.00  0.00    +0.000 A 
ATOM     20  N   UNL     1     -11.100   8.093 129.407  0.00  0.00    +0.000 N 
ATOM     21  N   UNL     1      -9.456   6.438 129.092  0.00  0.00    +0.000 NA
ATOM     22  H   UNL     1     -11.940   8.409 129.876  0.00  0.00    +0.000 HD
ATOM     23  H   UNL     1     -10.650   8.746 128.779  0.00  0.00    +0.000 HD
ENDBRANCH  14  16
BRANCH  15  24
ATOM     24  O   UNL     1      -5.945   3.452 129.544  0.00  0.00    +0.000 OA
ATOM     25  C   UNL     1      -4.730   4.175 129.682  0.00  0.00    +0.000 C 
ENDBRANCH  15  24
ENDBRANCH  11  14
ENDBRANCH   9  10
BRANCH   5  26
ATOM     26  C   UNL     1      -8.730  -1.839 123.762  0.00  0.00    +0.000 C 
ATOM     27  OXT UNL     1      -8.870  -1.857 122.546  0.00  0.00    +0.000 OA
BRANCH  26  28
ATOM     28  O   UNL     1      -9.622  -2.486 124.534  0.00  0.00    +0.000 OA
ATOM     29  H   UNL     1      -9.254  -3.073 125.220  0.00  0.00    +0.000 HD
ENDBRANCH  26  28
ENDBRANCH   5  26
BRANCH   4  30
ATOM     30  C   UNL     1      -6.096  -2.995 124.156  0.00  0.00    +0.000 C 
BRANCH  30  31
ATOM     31  O   UNL     1      -4.748  -3.104 123.697  0.00  0.00    +0.000 OA
ATOM     32  C   UNL     1      -4.356  -4.476 123.654  0.00  0.00    +0.000 C 
ENDBRANCH  30  31
ENDBRANCH   4  30
TORSDOF 8
ENDMDL
MODEL 5
REMARK VINA RESULT:      -6.4      3.299      4.250
REMARK  Name = Cefpodoxime
REMARK  10 active torsions:
REMARK  status: ('A' for Active; 'I' for Inactive)
REMARK    1  A    between atoms: C_5  and  C_6
REMARK    2  A    between atoms: C_6  and  O_7
REMARK    3  A    between atoms: O_7  and  C_8
REMARK    4  A    between atoms: CA_9  and  C_27
REMARK    5  A    between atoms: CA_13  and  N_14
REMARK    6  A    between atoms: C_15  and  C_17
REMARK    7  A    between atoms: C_17  and  C_21
REMARK    8  A    between atoms: N_18  and  O_19
REMARK    9  A    between atoms: O_19  and  C_20
REMARK   10  A    between atoms: C_27  and  O_28
REMARK                            x       y       z     vdW  Elec       q    Type
REMARK                         _______ _______ _______ _____ _____    ______ ____
ROOT
ATOM      1  C   UNL     1      -7.365   1.362 129.711  0.00  0.00    +0.000 C 
ATOM      2  S   UNL     1      -8.484   0.708 130.974  0.00  0.00    +0.000 S 
ATOM      3  C   UNL     1      -7.728  -0.950 130.913  0.00  0.00    +0.000 C 
ATOM      4  C   UNL     1      -7.686  -1.528 129.515  0.00  0.00    +0.000 C 
ATOM      5  CA  UNL     1      -7.671  -0.765 128.384  0.00  0.00    +0.000 C 
ATOM      6  N   UNL     1      -7.573   0.609 128.470  0.00  0.00    +0.000 N 
ATOM      7  C   UNL     1      -8.268   1.597 127.843  0.00  0.00    +0.000 C 
ATOM      8  O   UNL     1      -8.892   1.562 126.813  0.00  0.00    +0.000 OA
ATOM      9  CA  UNL     1      -7.822   2.632 128.925  0.00  0.00    +0.000 C 
ENDROOT
BRANCH   9  10
ATOM     10  N   UNL     1      -8.814   3.546 129.541  0.00  0.00    +0.000 N 
ATOM     11  C   UNL     1      -8.541   4.898 129.729  0.00  0.00    +0.000 C 
ATOM     12  O   UNL     1      -7.425   5.353 129.510  0.00  0.00    +0.000 OA
ATOM     13  H   UNL     1      -9.755   3.239 129.774  0.00  0.00    +0.000 HD
BRANCH  11  14
ATOM     14  C   UNL     1      -9.671   5.816 130.274  0.00  0.00    +0.000 C 
ATOM     15  N   UNL     1     -10.013   5.905 131.541  0.00  0.00    +0.000 NA
BRANCH  14  16
ATOM     16  C   UNL     1     -10.389   6.714 129.339  0.00  0.00    +0.000 A 
ATOM     17  C   UNL     1     -11.334   7.635 129.755  0.00  0.00    +0.000 A 
ATOM     18  S   UNL     1     -11.946   8.525 128.428  0.00  0.00    +0.000 S 
ATOM     19  C   UNL     1     -10.932   7.632 127.367  0.00  0.00    +0.000 A 
ATOM     20  N   UNL     1     -10.956   7.877 126.050  0.00  0.00    +0.000 N 
ATOM     21  N   UNL     1     -10.174   6.730 127.951  0.00  0.00    +0.000 NA
ATOM     22  H   UNL     1     -11.542   8.598 125.647  0.00  0.00    +0.000 HD
ATOM     23  H   UNL     1     -10.345   7.374 125.420  0.00  0.00    +0.000 HD
ENDBRANCH  14  16
BRANCH  15  24
ATOM     24  O   UNL     1      -9.284   5.039 132.366  0.00  0.00    +0.000 OA
ATOM     25  C   UNL     1      -8.503   5.746 133.319  0.00  0.00    +0.000 C 
ENDBRANCH  15  24
ENDBRANCH  11  14
ENDBRANCH   9  10
BRANCH   5  26
ATOM     26  C   UNL     1      -7.710  -1.461 127.025  0.00  0.00    +0.000 C 
ATOM     27  OXT UNL     1      -6.716  -1.859 126.431  0.00  0.00    +0.000 OA
BRANCH  26  28
ATOM     28  O   UNL     1      -8.911  -1.549 126.425  0.00  0.00    +0.000 OA
ATOM     29  H   UNL     1      -9.007  -2.248 125.752  0.00  0.00    +0.000 HD
ENDBRANCH  26  28
ENDBRANCH   5  26
BRANCH   4  30
ATOM     30  C   UNL     1      -7.688  -3.051 129.454  0.00  0.00    +0.000 C 
BRANCH  30  31
ATOM     31  O   UNL     1      -7.148  -3.650 130.632  0.00  0.00    +0.000 OA
ATOM     32  C   UNL     1      -5.944  -4.348 130.316  0.00  0.00    +0.000 C 
ENDBRANCH  30  31
ENDBRANCH   4  30
TORSDOF 8
ENDMDL
MODEL 6
REMARK VINA RESULT:      -6.2      1.804      2.247
REMARK  Name = Cefpodoxime
REMARK  10 active torsions:
REMARK  status: ('A' for Active; 'I' for Inactive)
REMARK    1  A    between atoms: C_5  and  C_6
REMARK    2  A    between atoms: C_6  and  O_7
REMARK    3  A    between atoms: O_7  and  C_8
REMARK    4  A    between atoms: CA_9  and  C_27
REMARK    5  A    between atoms: CA_13  and  N_14
REMARK    6  A    between atoms: C_15  and  C_17
REMARK    7  A    between atoms: C_17  and  C_21
REMARK    8  A    between atoms: N_18  and  O_19
REMARK    9  A    between atoms: O_19  and  C_20
REMARK   10  A    between atoms: C_27  and  O_28
REMARK                            x       y       z     vdW  Elec       q    Type
REMARK                         _______ _______ _______ _____ _____    ______ ____
ROOT
ATOM      1  C   UNL     1      -6.905   1.237 127.568  0.00  0.00    +0.000 C 
ATOM      2  S   UNL     1      -7.829   0.016 128.535  0.00  0.00    +0.000 S 
ATOM      3  C   UNL     1      -7.138  -1.385 127.594  0.00  0.00    +0.000 C 
ATOM      4  C   UNL     1      -7.331  -1.244 126.100  0.00  0.00    +0.000 C 
ATOM      5  CA  UNL     1      -7.473  -0.044 125.467  0.00  0.00    +0.000 C 
ATOM      6  N   UNL     1      -7.325   1.136 126.167  0.00  0.00    +0.000 N 
ATOM      7  C   UNL     1      -8.083   2.267 126.187  0.00  0.00    +0.000 C 
ATOM      8  O   UNL     1      -8.862   2.683 125.368  0.00  0.00    +0.000 OA
ATOM      9  CA  UNL     1      -7.444   2.701 127.544  0.00  0.00    +0.000 C 
ENDROOT
BRANCH   9  10
ATOM     10  N   UNL     1      -8.302   3.175 128.658  0.00  0.00    +0.000 N 
ATOM     11  C   UNL     1      -8.075   4.397 129.284  0.00  0.00    +0.000 C 
ATOM     12  O   UNL     1      -7.081   5.065 129.023  0.00  0.00    +0.000 OA
ATOM     13  H   UNL     1      -9.133   2.666 128.950  0.00  0.00    +0.000 HD
BRANCH  11  14
ATOM     14  C   UNL     1      -9.084   4.879 130.364  0.00  0.00    +0.000 C 
ATOM     15  N   UNL     1      -9.133   4.418 131.595  0.00  0.00    +0.000 NA
BRANCH  14  16
ATOM     16  C   UNL     1     -10.025   5.975 130.038  0.00  0.00    +0.000 A 
ATOM     17  C   UNL     1     -11.218   6.169 130.712  0.00  0.00    +0.000 A 
ATOM     18  S   UNL     1     -12.049   7.536 130.104  0.00  0.00    +0.000 S 
ATOM     19  C   UNL     1     -10.787   7.792 128.969  0.00  0.00    +0.000 A 
ATOM     20  N   UNL     1     -10.858   8.812 128.102  0.00  0.00    +0.000 N 
ATOM     21  N   UNL     1      -9.798   6.927 129.031  0.00  0.00    +0.000 NA
ATOM     22  H   UNL     1     -11.631   9.467 128.105  0.00  0.00    +0.000 HD
ATOM     23  H   UNL     1     -10.108   8.988 127.447  0.00  0.00    +0.000 HD
ENDBRANCH  14  16
BRANCH  15  24
ATOM     24  O   UNL     1      -8.208   3.395 131.834  0.00  0.00    +0.000 OA
ATOM     25  C   UNL     1      -8.680   2.468 132.802  0.00  0.00    +0.000 C 
ENDBRANCH  15  24
ENDBRANCH  11  14
ENDBRANCH   9  10
BRANCH   5  26
ATOM     26  C   UNL     1      -7.744  -0.031 123.964  0.00  0.00    +0.000 C 
ATOM     27  OXT UNL     1      -6.867  -0.043 123.110  0.00  0.00    +0.000 OA
BRANCH  26  28
ATOM     28  O   UNL     1      -9.029   0.094 123.582  0.00  0.00    +0.000 OA
ATOM     29  H   UNL     1      -9.667   0.318 124.284  0.00  0.00    +0.000 HD
ENDBRANCH  26  28
ENDBRANCH   5  26
BRANCH   4  30
ATOM     30  C   UNL     1      -7.385  -2.563 125.337  0.00  0.00    +0.000 C 
BRANCH  30  31
ATOM     31  O   UNL     1      -8.679  -3.165 125.368  0.00  0.00    +0.000 OA
ATOM     32  C   UNL     1      -9.140  -3.399 124.038  0.00  0.00    +0.000 C 
ENDBRANCH  30  31
ENDBRANCH   4  30
TORSDOF 8
ENDMDL
MODEL 7
REMARK VINA RESULT:      -6.1      4.929      6.389
REMARK  Name = Cefpodoxime
REMARK  10 active torsions:
REMARK  status: ('A' for Active; 'I' for Inactive)
REMARK    1  A    between atoms: C_5  and  C_6
REMARK    2  A    between atoms: C_6  and  O_7
REMARK    3  A    between atoms: O_7  and  C_8
REMARK    4  A    between atoms: CA_9  and  C_27
REMARK    5  A    between atoms: CA_13  and  N_14
REMARK    6  A    between atoms: C_15  and  C_17
REMARK    7  A    between atoms: C_17  and  C_21
REMARK    8  A    between atoms: N_18  and  O_19
REMARK    9  A    between atoms: O_19  and  C_20
REMARK   10  A    between atoms: C_27  and  O_28
REMARK                            x       y       z     vdW  Elec       q    Type
REMARK                         _______ _______ _______ _____ _____    ______ ____
ROOT
ATOM      1  C   UNL     1      -9.036   1.717 131.346  0.00  0.00    +0.000 C 
ATOM      2  S   UNL     1      -8.182   1.543 129.759  0.00  0.00    +0.000 S 
ATOM      3  C   UNL     1      -7.815  -0.220 130.048  0.00  0.00    +0.000 C 
ATOM      4  C   UNL     1      -7.106  -0.467 131.363  0.00  0.00    +0.000 C 
ATOM      5  CA  UNL     1      -7.209   0.361 132.442  0.00  0.00    +0.000 C 
ATOM      6  N   UNL     1      -8.083   1.429 132.422  0.00  0.00    +0.000 N 
ATOM      7  C   UNL     1      -7.915   2.730 132.786  0.00  0.00    +0.000 C 
ATOM      8  O   UNL     1      -7.107   3.220 133.533  0.00  0.00    +0.000 OA
ATOM      9  CA  UNL     1      -9.163   3.152 131.947  0.00  0.00    +0.000 C 
ENDROOT
BRANCH   9  10
ATOM     10  N   UNL     1      -9.095   4.324 131.041  0.00  0.00    +0.000 N 
ATOM     11  C   UNL     1      -9.740   5.520 131.346  0.00  0.00    +0.000 C 
ATOM     12  O   UNL     1     -10.492   5.603 132.310  0.00  0.00    +0.000 OA
ATOM     13  H   UNL     1      -8.512   4.326 130.208  0.00  0.00    +0.000 HD
BRANCH  11  14
ATOM     14  C   UNL     1      -9.528   6.740 130.407  0.00  0.00    +0.000 C 
ATOM     15  N   UNL     1      -8.415   7.436 130.329  0.00  0.00    +0.000 NA
BRANCH  14  16
ATOM     16  C   UNL     1     -10.612   7.135 129.478  0.00  0.00    +0.000 A 
ATOM     17  C   UNL     1     -11.653   7.971 129.845  0.00  0.00    +0.000 A 
ATOM     18  S   UNL     1     -12.711   8.244 128.529  0.00  0.00    +0.000 S 
ATOM     19  C   UNL     1     -11.739   7.229 127.542  0.00  0.00    +0.000 A 
ATOM     20  N   UNL     1     -12.080   7.005 126.265  0.00  0.00    +0.000 N 
ATOM     21  N   UNL     1     -10.685   6.717 128.139  0.00  0.00    +0.000 NA
ATOM     22  H   UNL     1     -12.891   7.439 125.841  0.00  0.00    +0.000 HD
ATOM     23  H   UNL     1     -11.500   6.430 125.668  0.00  0.00    +0.000 HD
ENDBRANCH  14  16
BRANCH  15  24
ATOM     24  O   UNL     1      -7.432   6.998 131.226  0.00  0.00    +0.000 OA
ATOM     25  C   UNL     1      -6.121   7.225 130.729  0.00  0.00    +0.000 C 
ENDBRANCH  15  24
ENDBRANCH  11  14
ENDBRANCH   9  10
BRANCH   5  26
ATOM     26  C   UNL     1      -6.382   0.052 133.689  0.00  0.00    +0.000 C 
ATOM     27  OXT UNL     1      -6.767  -0.662 134.606  0.00  0.00    +0.000 OA
BRANCH  26  28
ATOM     28  O   UNL     1      -5.202   0.688 133.805  0.00  0.00    +0.000 OA
ATOM     29  H   UNL     1      -4.791   0.677 134.689  0.00  0.00    +0.000 HD
ENDBRANCH  26  28
ENDBRANCH   5  26
BRANCH   4  30
ATOM     30  C   UNL     1      -6.230  -1.714 131.390  0.00  0.00    +0.000 C 
BRANCH  30  31
ATOM     31  O   UNL     1      -6.987  -2.916 131.524  0.00  0.00    +0.000 OA
ATOM     32  C   UNL     1      -6.650  -3.572 132.747  0.00  0.00    +0.000 C 
ENDBRANCH  30  31
ENDBRANCH   4  30
TORSDOF 8
ENDMDL
MODEL 8
REMARK VINA RESULT:      -5.9      2.963      4.731
REMARK  Name = Cefpodoxime
REMARK  10 active torsions:
REMARK  status: ('A' for Active; 'I' for Inactive)
REMARK    1  A    between atoms: C_5  and  C_6
REMARK    2  A    between atoms: C_6  and  O_7
REMARK    3  A    between atoms: O_7  and  C_8
REMARK    4  A    between atoms: CA_9  and  C_27
REMARK    5  A    between atoms: CA_13  and  N_14
REMARK    6  A    between atoms: C_15  and  C_17
REMARK    7  A    between atoms: C_17  and  C_21
REMARK    8  A    between atoms: N_18  and  O_19
REMARK    9  A    between atoms: O_19  and  C_20
REMARK   10  A    between atoms: C_27  and  O_28
REMARK                            x       y       z     vdW  Elec       q    Type
REMARK                         _______ _______ _______ _____ _____    ______ ____
ROOT
ATOM      1  C   UNL     1      -6.828   1.231 125.455  0.00  0.00    +0.000 C 
ATOM      2  S   UNL     1      -6.118   0.405 126.902  0.00  0.00    +0.000 S 
ATOM      3  C   UNL     1      -5.361  -0.910 125.892  0.00  0.00    +0.000 C 
ATOM      4  C   UNL     1      -6.357  -1.607 124.989  0.00  0.00    +0.000 C 
ATOM      5  CA  UNL     1      -7.506  -1.024 124.540  0.00  0.00    +0.000 C 
ATOM      6  N   UNL     1      -7.761   0.307 124.803  0.00  0.00    +0.000 N 
ATOM      7  C   UNL     1      -8.884   0.931 125.253  0.00  0.00    +0.000 C 
ATOM      8  O   UNL     1     -10.033   0.570 125.210  0.00  0.00    +0.000 OA
ATOM      9  CA  UNL     1      -8.048   2.177 125.686  0.00  0.00    +0.000 C 
ENDROOT
BRANCH   9  10
ATOM     10  N   UNL     1      -8.248   2.785 127.024  0.00  0.00    +0.000 N 
ATOM     11  C   UNL     1      -7.777   4.060 127.323  0.00  0.00    +0.000 C 
ATOM     12  O   UNL     1      -7.068   4.672 126.533  0.00  0.00    +0.000 OA
ATOM     13  H   UNL     1      -8.806   2.330 127.743  0.00  0.00    +0.000 HD
BRANCH  11  14
ATOM     14  C   UNL     1      -8.125   4.677 128.706  0.00  0.00    +0.000 C 
ATOM     15  N   UNL     1      -9.040   5.602 128.901  0.00  0.00    +0.000 NA
BRANCH  14  16
ATOM     16  C   UNL     1      -7.444   4.166 129.919  0.00  0.00    +0.000 A 
ATOM     17  C   UNL     1      -8.126   3.780 131.060  0.00  0.00    +0.000 A 
ATOM     18  S   UNL     1      -7.043   3.216 132.258  0.00  0.00    +0.000 S 
ATOM     19  C   UNL     1      -5.723   3.525 131.204  0.00  0.00    +0.000 A 
ATOM     20  N   UNL     1      -4.469   3.274 131.606  0.00  0.00    +0.000 N 
ATOM     21  N   UNL     1      -6.052   4.011 130.027  0.00  0.00    +0.000 NA
ATOM     22  H   UNL     1      -4.264   2.879 132.516  0.00  0.00    +0.000 HD
ATOM     23  H   UNL     1      -3.687   3.429 130.984  0.00  0.00    +0.000 HD
ENDBRANCH  14  16
BRANCH  15  24
ATOM     24  O   UNL     1      -9.649   6.027 127.714  0.00  0.00    +0.000 OA
ATOM     25  C   UNL     1     -10.503   7.143 127.926  0.00  0.00    +0.000 C 
ENDBRANCH  15  24
ENDBRANCH  11  14
ENDBRANCH   9  10
BRANCH   5  26
ATOM     26  C   UNL     1      -8.474  -1.854 123.699  0.00  0.00    +0.000 C 
ATOM     27  OXT UNL     1      -9.460  -2.420 124.151  0.00  0.00    +0.000 OA
BRANCH  26  28
ATOM     28  O   UNL     1      -8.150  -2.032 122.405  0.00  0.00    +0.000 OA
ATOM     29  H   UNL     1      -8.723  -1.589 121.752  0.00  0.00    +0.000 HD
ENDBRANCH  26  28
ENDBRANCH   5  26
BRANCH   4  30
ATOM     30  C   UNL     1      -5.994  -3.043 124.629  0.00  0.00    +0.000 C 
BRANCH  30  31
ATOM     31  O   UNL     1      -5.208  -3.132 123.441  0.00  0.00    +0.000 OA
ATOM     32  C   UNL     1      -4.369  -4.286 123.496  0.00  0.00    +0.000 C 
ENDBRANCH  30  31
ENDBRANCH   4  30
TORSDOF 8
ENDMDL
MODEL 9
REMARK VINA RESULT:      -5.8      3.419      4.669
REMARK  Name = Cefpodoxime
REMARK  10 active torsions:
REMARK  status: ('A' for Active; 'I' for Inactive)
REMARK    1  A    between atoms: C_5  and  C_6
REMARK    2  A    between atoms: C_6  and  O_7
REMARK    3  A    between atoms: O_7  and  C_8
REMARK    4  A    between atoms: CA_9  and  C_27
REMARK    5  A    between atoms: CA_13  and  N_14
REMARK    6  A    between atoms: C_15  and  C_17
REMARK    7  A    between atoms: C_17  and  C_21
REMARK    8  A    between atoms: N_18  and  O_19
REMARK    9  A    between atoms: O_19  and  C_20
REMARK   10  A    between atoms: C_27  and  O_28
REMARK                            x       y       z     vdW  Elec       q    Type
REMARK                         _______ _______ _______ _____ _____    ______ ____
ROOT
ATOM      1  C   UNL     1      -8.375   1.715 126.082  0.00  0.00    +0.000 C 
ATOM      2  S   UNL     1      -6.826   2.006 125.192  0.00  0.00    +0.000 S 
ATOM      3  C   UNL     1      -7.356   1.011 123.759  0.00  0.00    +0.000 C 
ATOM      4  C   UNL     1      -7.801  -0.384 124.143  0.00  0.00    +0.000 C 
ATOM      5  CA  UNL     1      -8.287  -0.709 125.375  0.00  0.00    +0.000 C 
ATOM      6  N   UNL     1      -8.512   0.274 126.317  0.00  0.00    +0.000 N 
ATOM      7  C   UNL     1      -8.192   0.337 127.640  0.00  0.00    +0.000 C 
ATOM      8  O   UNL     1      -7.953  -0.553 128.415  0.00  0.00    +0.000 OA
ATOM      9  CA  UNL     1      -8.365   1.889 127.633  0.00  0.00    +0.000 C 
ENDROOT
BRANCH   9  10
ATOM     10  N   UNL     1      -7.338   2.760 128.255  0.00  0.00    +0.000 N 
ATOM     11  C   UNL     1      -7.663   4.004 128.788  0.00  0.00    +0.000 C 
ATOM     12  O   UNL     1      -8.784   4.478 128.645  0.00  0.00    +0.000 OA
ATOM     13  H   UNL     1      -6.379   2.448 128.390  0.00  0.00    +0.000 HD
BRANCH  11  14
ATOM     14  C   UNL     1      -6.558   4.809 129.527  0.00  0.00    +0.000 C 
ATOM     15  N   UNL     1      -5.501   5.333 128.944  0.00  0.00    +0.000 NA
BRANCH  14  16
ATOM     16  C   UNL     1      -6.705   5.079 130.977  0.00  0.00    +0.000 A 
ATOM     17  C   UNL     1      -5.638   5.068 131.858  0.00  0.00    +0.000 A 
ATOM     18  S   UNL     1      -6.151   5.446 133.445  0.00  0.00    +0.000 S 
ATOM     19  C   UNL     1      -7.767   5.595 132.882  0.00  0.00    +0.000 A 
ATOM     20  N   UNL     1      -8.752   5.899 133.739  0.00  0.00    +0.000 N 
ATOM     21  N   UNL     1      -7.929   5.386 131.594  0.00  0.00    +0.000 NA
ATOM     22  H   UNL     1      -8.577   6.072 134.721  0.00  0.00    +0.000 HD
ATOM     23  H   UNL     1      -9.703   6.014 133.413  0.00  0.00    +0.000 HD
ENDBRANCH  14  16
BRANCH  15  24
ATOM     24  O   UNL     1      -5.435   5.047 127.574  0.00  0.00    +0.000 OA
ATOM     25  C   UNL     1      -4.119   4.698 127.169  0.00  0.00    +0.000 C 
ENDBRANCH  15  24
ENDBRANCH  11  14
ENDBRANCH   9  10
BRANCH   5  26
ATOM     26  C   UNL     1      -8.628  -2.168 125.672  0.00  0.00    +0.000 C 
ATOM     27  OXT UNL     1      -9.721  -2.673 125.456  0.00  0.00    +0.000 OA
BRANCH  26  28
ATOM     28  O   UNL     1      -7.681  -2.896 126.293  0.00  0.00    +0.000 OA
ATOM     29  H   UNL     1      -7.741  -2.942 127.265  0.00  0.00    +0.000 HD
ENDBRANCH  26  28
ENDBRANCH   5  26
BRANCH   4  30
ATOM     30  C   UNL     1      -7.639  -1.429 123.045  0.00  0.00    +0.000 C 
BRANCH  30  31
ATOM     31  O   UNL     1      -6.285  -1.568 122.612  0.00  0.00    +0.000 OA
ATOM     32  C   UNL     1      -5.626  -2.572 123.384  0.00  0.00    +0.000 C 
ENDBRANCH  30  31
ENDBRANCH   4  30
TORSDOF 8
ENDMDL
