MODEL 1
REMARK VINA RESULT:      -7.3      0.000      0.000
REMARK  Name = Cefradine
REMARK  7 active torsions:
REMARK  status: ('A' for Active; 'I' for Inactive)
REMARK    1  A    between atoms: C_5  and  C_6
REMARK    2  A    between atoms: CA_7  and  C_23
REMARK    3  A    between atoms: CA_11  and  N_12
REMARK    4  A    between atoms: C_13  and  CA_15
REMARK    5  A    between atoms: CA_15  and  N_16
REMARK    6  A    between atoms: CA_15  and  C_17
REMARK    7  A    between atoms: C_23  and  O_24
REMARK                            x       y       z     vdW  Elec       q    Type
REMARK                         _______ _______ _______ _____ _____    ______ ____
ROOT
ATOM      1  C   UNL     1      -7.209   5.272 132.421  0.00  0.00    +0.000 C 
ATOM      2  S   UNL     1      -7.256   3.677 131.587  0.00  0.00    +0.000 S 
ATOM      3  C   UNL     1      -5.661   3.172 132.316  0.00  0.00    +0.000 C 
ATOM      4  C   UNL     1      -4.553   4.192 132.143  0.00  0.00    +0.000 C 
ATOM      5  C   UNL     1      -3.181   3.566 132.309  0.00  0.00    +0.000 C 
ATOM      6  CA  UNL     1      -4.763   5.509 131.875  0.00  0.00    +0.000 C 
ATOM      7  N   UNL     1      -6.043   6.011 131.939  0.00  0.00    +0.000 N 
ATOM      8  C   UNL     1      -6.745   6.892 131.192  0.00  0.00    +0.000 C 
ATOM      9  O   UNL     1      -6.356   7.682 130.359  0.00  0.00    +0.000 OA
ATOM     10  CA  UNL     1      -8.074   6.434 131.868  0.00  0.00    +0.000 C 
ENDROOT
BRANCH  10  11
ATOM     11  N   UNL     1      -9.269   6.210 130.989  0.00  0.00    +0.000 N 
ATOM     12  C   UNL     1     -10.531   6.292 131.585  0.00  0.00    +0.000 C 
ATOM     13  O   UNL     1     -10.635   6.621 132.771  0.00  0.00    +0.000 OA
ATOM     14  H   UNL     1      -9.183   5.766 130.079  0.00  0.00    +0.000 HD
BRANCH  12  15
ATOM     15  CA  UNL     1     -11.764   5.789 130.742  0.00  0.00    +0.000 C 
BRANCH  15  16
ATOM     16  C   UNL     1     -12.345   6.907 129.900  0.00  0.00    +0.000 C 
ATOM     17  C   UNL     1     -12.311   8.191 130.316  0.00  0.00    +0.000 C 
ATOM     18  C   UNL     1     -12.881   9.351 129.577  0.00  0.00    +0.000 C 
ATOM     19  C   UNL     1     -13.508   8.971 128.276  0.00  0.00    +0.000 C 
ATOM     20  C   UNL     1     -13.544   7.710 127.816  0.00  0.00    +0.000 C 
ATOM     21  C   UNL     1     -12.960   6.535 128.560  0.00  0.00    +0.000 C 
ENDBRANCH  15  16
BRANCH  15  22
ATOM     22  N   UNL     1     -11.321   4.704 129.848  0.00  0.00    +0.000 NA
ATOM     23  H1  UNL     1     -10.372   4.440 130.125  0.00  0.00    +0.000 HD
ATOM     24  H2  UNL     1     -11.272   5.015 128.884  0.00  0.00    +0.000 HD
ENDBRANCH  15  22
ENDBRANCH  12  15
ENDBRANCH  10  11
BRANCH   6  25
ATOM     25  C   UNL     1      -3.577   6.412 131.566  0.00  0.00    +0.000 C 
ATOM     26  OXT UNL     1      -2.902   6.965 132.424  0.00  0.00    +0.000 OA
BRANCH  25  27
ATOM     27  O   UNL     1      -3.329   6.661 130.265  0.00  0.00    +0.000 OA
ATOM     28  H   UNL     1      -4.103   6.831 129.695  0.00  0.00    +0.000 HD
ENDBRANCH  25  27
ENDBRANCH   6  25
TORSDOF 6
ENDMDL
MODEL 2
REMARK VINA RESULT:      -7.2      3.830      4.483
REMARK  Name = Cefradine
REMARK  7 active torsions:
REMARK  status: ('A' for Active; 'I' for Inactive)
REMARK    1  A    between atoms: C_5  and  C_6
REMARK    2  A    between atoms: CA_7  and  C_23
REMARK    3  A    between atoms: CA_11  and  N_12
REMARK    4  A    between atoms: C_13  and  CA_15
REMARK    5  A    between atoms: CA_15  and  N_16
REMARK    6  A    between atoms: CA_15  and  C_17
REMARK    7  A    between atoms: C_23  and  O_24
REMARK                            x       y       z     vdW  Elec       q    Type
REMARK                         _______ _______ _______ _____ _____    ______ ____
ROOT
ATOM      1  C   UNL     1      -8.344   2.571 131.279  0.00  0.00    +0.000 C 
ATOM      2  S   UNL     1      -9.704   1.583 131.925  0.00  0.00    +0.000 S 
ATOM      3  C   UNL     1      -8.714   0.052 131.856  0.00  0.00    +0.000 C 
ATOM      4  C   UNL     1      -8.045  -0.191 130.517  0.00  0.00    +0.000 C 
ATOM      5  C   UNL     1      -7.659  -1.647 130.338  0.00  0.00    +0.000 C 
ATOM      6  CA  UNL     1      -7.816   0.779 129.592  0.00  0.00    +0.000 C 
ATOM      7  N   UNL     1      -8.026   2.095 129.933  0.00  0.00    +0.000 N 
ATOM      8  C   UNL     1      -8.554   3.160 129.289  0.00  0.00    +0.000 C 
ATOM      9  O   UNL     1      -8.794   3.309 128.110  0.00  0.00    +0.000 OA
ATOM     10  CA  UNL     1      -8.655   3.946 130.632  0.00  0.00    +0.000 C 
ENDROOT
BRANCH  10  11
ATOM     11  N   UNL     1      -9.918   4.706 130.909  0.00  0.00    +0.000 N 
ATOM     12  C   UNL     1      -9.959   6.050 130.525  0.00  0.00    +0.000 C 
ATOM     13  O   UNL     1      -9.011   6.546 129.908  0.00  0.00    +0.000 OA
ATOM     14  H   UNL     1     -10.612   4.361 131.568  0.00  0.00    +0.000 HD
BRANCH  12  15
ATOM     15  CA  UNL     1     -11.161   6.919 131.057  0.00  0.00    +0.000 C 
BRANCH  15  16
ATOM     16  C   UNL     1     -12.058   7.368 129.921  0.00  0.00    +0.000 C 
ATOM     17  C   UNL     1     -12.291   8.676 129.683  0.00  0.00    +0.000 C 
ATOM     18  C   UNL     1     -13.178   9.212 128.615  0.00  0.00    +0.000 C 
ATOM     19  C   UNL     1     -13.807   8.147 127.780  0.00  0.00    +0.000 C 
ATOM     20  C   UNL     1     -13.584   6.836 127.968  0.00  0.00    +0.000 C 
ATOM     21  C   UNL     1     -12.680   6.291 129.046  0.00  0.00    +0.000 C 
ENDBRANCH  15  16
BRANCH  15  22
ATOM     22  N   UNL     1     -11.957   6.109 131.998  0.00  0.00    +0.000 NA
ATOM     23  H1  UNL     1     -12.265   6.725 132.755  0.00  0.00    +0.000 HD
ATOM     24  H2  UNL     1     -11.398   5.378 132.422  0.00  0.00    +0.000 HD
ENDBRANCH  15  22
ENDBRANCH  12  15
ENDBRANCH  10  11
BRANCH   6  25
ATOM     25  C   UNL     1      -7.280   0.396 128.219  0.00  0.00    +0.000 C 
ATOM     26  OXT UNL     1      -6.102   0.488 127.900  0.00  0.00    +0.000 OA
BRANCH  25  27
ATOM     27  O   UNL     1      -8.188   0.012 127.300  0.00  0.00    +0.000 OA
ATOM     28  H   UNL     1      -8.446  -0.929 127.304  0.00  0.00    +0.000 HD
ENDBRANCH  25  27
ENDBRANCH   6  25
TORSDOF 6
ENDMDL
MODEL 3
REMARK VINA RESULT:      -7.2      5.195      5.793
REMARK  Name = Cefradine
REMARK  7 active torsions:
REMARK  status: ('A' for Active; 'I' for Inactive)
REMARK    1  A    between atoms: C_5  and  C_6
REMARK    2  A    between atoms: CA_7  and  C_23
REMARK    3  A    between atoms: CA_11  and  N_12
REMARK    4  A    between atoms: C_13  and  CA_15
REMARK    5  A    between atoms: CA_15  and  N_16
REMARK    6  A    between atoms: CA_15  and  C_17
REMARK    7  A    between atoms: C_23  and  O_24
REMARK                            x       y       z     vdW  Elec       q    Type
REMARK                         _______ _______ _______ _____ _____    ______ ____
ROOT
ATOM      1  C   UNL     1      -7.290   2.752 127.477  0.00  0.00    +0.000 C 
ATOM      2  S   UNL     1      -8.531   1.451 127.564  0.00  0.00    +0.000 S 
ATOM      3  C   UNL     1      -7.681   0.462 126.287  0.00  0.00    +0.000 C 
ATOM      4  C   UNL     1      -7.345   1.236 125.028  0.00  0.00    +0.000 C 
ATOM      5  C   UNL     1      -7.103   0.313 123.848  0.00  0.00    +0.000 C 
ATOM      6  CA  UNL     1      -7.268   2.593 124.965  0.00  0.00    +0.000 C 
ATOM      7  N   UNL     1      -7.312   3.322 126.130  0.00  0.00    +0.000 N 
ATOM      8  C   UNL     1      -7.901   4.485 126.489  0.00  0.00    +0.000 C 
ATOM      9  O   UNL     1      -8.388   5.351 125.795  0.00  0.00    +0.000 OA
ATOM     10  CA  UNL     1      -7.648   4.169 127.995  0.00  0.00    +0.000 C 
ENDROOT
BRANCH  10  11
ATOM     11  N   UNL     1      -8.766   4.420 128.964  0.00  0.00    +0.000 N 
ATOM     12  C   UNL     1      -8.550   5.371 129.965  0.00  0.00    +0.000 C 
ATOM     13  O   UNL     1      -7.504   6.026 129.980  0.00  0.00    +0.000 OA
ATOM     14  H   UNL     1      -9.537   3.765 129.065  0.00  0.00    +0.000 HD
BRANCH  12  15
ATOM     15  CA  UNL     1      -9.600   5.438 131.139  0.00  0.00    +0.000 C 
BRANCH  15  16
ATOM     16  C   UNL     1     -10.687   6.452 130.845  0.00  0.00    +0.000 C 
ATOM     17  C   UNL     1     -11.772   6.571 131.639  0.00  0.00    +0.000 C 
ATOM     18  C   UNL     1     -12.903   7.512 131.416  0.00  0.00    +0.000 C 
ATOM     19  C   UNL     1     -12.733   8.363 130.202  0.00  0.00    +0.000 C 
ATOM     20  C   UNL     1     -11.659   8.292 129.398  0.00  0.00    +0.000 C 
ATOM     21  C   UNL     1     -10.508   7.345 129.626  0.00  0.00    +0.000 C 
ENDBRANCH  15  16
BRANCH  15  22
ATOM     22  N   UNL     1     -10.221   4.111 131.301  0.00  0.00    +0.000 NA
ATOM     23  H1  UNL     1      -9.555   3.515 131.799  0.00  0.00    +0.000 HD
ATOM     24  H2  UNL     1     -10.397   3.673 130.404  0.00  0.00    +0.000 HD
ENDBRANCH  15  22
ENDBRANCH  12  15
ENDBRANCH  10  11
BRANCH   6  25
ATOM     25  C   UNL     1      -7.077   3.272 123.615  0.00  0.00    +0.000 C 
ATOM     26  OXT UNL     1      -5.984   3.474 123.104  0.00  0.00    +0.000 OA
BRANCH  25  27
ATOM     27  O   UNL     1      -8.188   3.737 123.010  0.00  0.00    +0.000 OA
ATOM     28  H   UNL     1      -8.775   4.304 123.545  0.00  0.00    +0.000 HD
ENDBRANCH  25  27
ENDBRANCH   6  25
TORSDOF 6
ENDMDL
MODEL 4
REMARK VINA RESULT:      -6.9      1.967      2.238
REMARK  Name = Cefradine
REMARK  7 active torsions:
REMARK  status: ('A' for Active; 'I' for Inactive)
REMARK    1  A    between atoms: C_5  and  C_6
REMARK    2  A    between atoms: CA_7  and  C_23
REMARK    3  A    between atoms: CA_11  and  N_12
REMARK    4  A    between atoms: C_13  and  CA_15
REMARK    5  A    between atoms: CA_15  and  N_16
REMARK    6  A    between atoms: CA_15  and  C_17
REMARK    7  A    between atoms: C_23  and  O_24
REMARK                            x       y       z     vdW  Elec       q    Type
REMARK                         _______ _______ _______ _____ _____    ______ ____
ROOT
ATOM      1  C   UNL     1      -6.310   4.251 130.240  0.00  0.00    +0.000 C 
ATOM      2  S   UNL     1      -6.614   3.747 128.539  0.00  0.00    +0.000 S 
ATOM      3  C   UNL     1      -4.844   3.410 128.250  0.00  0.00    +0.000 C 
ATOM      4  C   UNL     1      -3.926   4.549 128.649  0.00  0.00    +0.000 C 
ATOM      5  C   UNL     1      -2.574   4.446 127.969  0.00  0.00    +0.000 C 
ATOM      6  CA  UNL     1      -4.272   5.539 129.515  0.00  0.00    +0.000 C 
ATOM      7  N   UNL     1      -5.446   5.432 130.224  0.00  0.00    +0.000 N 
ATOM      8  C   UNL     1      -6.414   6.307 130.579  0.00  0.00    +0.000 C 
ATOM      9  O   UNL     1      -6.404   7.519 130.560  0.00  0.00    +0.000 OA
ATOM     10  CA  UNL     1      -7.363   5.130 130.963  0.00  0.00    +0.000 C 
ENDROOT
BRANCH  10  11
ATOM     11  N   UNL     1      -8.795   5.209 130.523  0.00  0.00    +0.000 N 
ATOM     12  C   UNL     1      -9.702   5.826 131.389  0.00  0.00    +0.000 C 
ATOM     13  O   UNL     1      -9.302   6.352 132.432  0.00  0.00    +0.000 OA
ATOM     14  H   UNL     1      -9.151   4.626 129.770  0.00  0.00    +0.000 HD
BRANCH  12  15
ATOM     15  CA  UNL     1     -11.236   5.666 131.064  0.00  0.00    +0.000 C 
BRANCH  15  16
ATOM     16  C   UNL     1     -11.752   6.844 130.262  0.00  0.00    +0.000 C 
ATOM     17  C   UNL     1     -11.454   6.988 128.953  0.00  0.00    +0.000 C 
ATOM     18  C   UNL     1     -11.885   8.122 128.091  0.00  0.00    +0.000 C 
ATOM     19  C   UNL     1     -12.723   9.125 128.812  0.00  0.00    +0.000 C 
ATOM     20  C   UNL     1     -13.062   9.009 130.107  0.00  0.00    +0.000 C 
ATOM     21  C   UNL     1     -12.631   7.856 130.980  0.00  0.00    +0.000 C 
ENDBRANCH  15  16
BRANCH  15  22
ATOM     22  N   UNL     1     -11.433   4.435 130.278  0.00  0.00    +0.000 NA
ATOM     23  H1  UNL     1     -12.423   4.380 130.028  0.00  0.00    +0.000 HD
ATOM     24  H2  UNL     1     -11.220   3.608 130.826  0.00  0.00    +0.000 HD
ENDBRANCH  15  22
ENDBRANCH  12  15
ENDBRANCH  10  11
BRANCH   6  25
ATOM     25  C   UNL     1      -3.330   6.717 129.724  0.00  0.00    +0.000 C 
ATOM     26  OXT UNL     1      -2.390   6.705 130.509  0.00  0.00    +0.000 OA
BRANCH  25  27
ATOM     27  O   UNL     1      -3.618   7.849 129.053  0.00  0.00    +0.000 OA
ATOM     28  H   UNL     1      -4.431   7.845 128.512  0.00  0.00    +0.000 HD
ENDBRANCH  25  27
ENDBRANCH   6  25
TORSDOF 6
ENDMDL
MODEL 5
REMARK VINA RESULT:      -6.9      4.494      5.414
REMARK  Name = Cefradine
REMARK  7 active torsions:
REMARK  status: ('A' for Active; 'I' for Inactive)
REMARK    1  A    between atoms: C_5  and  C_6
REMARK    2  A    between atoms: CA_7  and  C_23
REMARK    3  A    between atoms: CA_11  and  N_12
REMARK    4  A    between atoms: C_13  and  CA_15
REMARK    5  A    between atoms: CA_15  and  N_16
REMARK    6  A    between atoms: CA_15  and  C_17
REMARK    7  A    between atoms: C_23  and  O_24
REMARK                            x       y       z     vdW  Elec       q    Type
REMARK                         _______ _______ _______ _____ _____    ______ ____
ROOT
ATOM      1  C   UNL     1      -7.786   1.757 129.459  0.00  0.00    +0.000 C 
ATOM      2  S   UNL     1      -6.182   2.352 130.022  0.00  0.00    +0.000 S 
ATOM      3  C   UNL     1      -5.316   0.930 129.273  0.00  0.00    +0.000 C 
ATOM      4  C   UNL     1      -5.904  -0.416 129.646  0.00  0.00    +0.000 C 
ATOM      5  C   UNL     1      -4.911  -1.543 129.426  0.00  0.00    +0.000 C 
ATOM      6  CA  UNL     1      -7.167  -0.593 130.116  0.00  0.00    +0.000 C 
ATOM      7  N   UNL     1      -8.047   0.464 130.092  0.00  0.00    +0.000 N 
ATOM      8  C   UNL     1      -8.987   0.925 130.948  0.00  0.00    +0.000 C 
ATOM      9  O   UNL     1      -9.487   0.384 131.910  0.00  0.00    +0.000 OA
ATOM     10  CA  UNL     1      -9.068   2.271 130.164  0.00  0.00    +0.000 C 
ENDROOT
BRANCH  10  11
ATOM     11  N   UNL     1      -9.104   3.545 130.954  0.00  0.00    +0.000 N 
ATOM     12  C   UNL     1     -10.196   4.395 130.756  0.00  0.00    +0.000 C 
ATOM     13  O   UNL     1     -11.123   4.050 130.017  0.00  0.00    +0.000 OA
ATOM     14  H   UNL     1      -8.272   3.910 131.411  0.00  0.00    +0.000 HD
BRANCH  12  15
ATOM     15  CA  UNL     1     -10.103   5.846 131.365  0.00  0.00    +0.000 C 
BRANCH  15  16
ATOM     16  C   UNL     1     -10.769   6.864 130.460  0.00  0.00    +0.000 C 
ATOM     17  C   UNL     1     -10.129   7.376 129.388  0.00  0.00    +0.000 C 
ATOM     18  C   UNL     1     -10.685   8.399 128.461  0.00  0.00    +0.000 C 
ATOM     19  C   UNL     1     -12.071   8.824 128.815  0.00  0.00    +0.000 C 
ATOM     20  C   UNL     1     -12.752   8.324 129.859  0.00  0.00    +0.000 C 
ATOM     21  C   UNL     1     -12.192   7.281 130.795  0.00  0.00    +0.000 C 
ENDBRANCH  15  16
BRANCH  15  22
ATOM     22  N   UNL     1     -10.783   5.860 132.674  0.00  0.00    +0.000 NA
ATOM     23  H1  UNL     1     -10.144   5.451 133.360  0.00  0.00    +0.000 HD
ATOM     24  H2  UNL     1     -11.616   5.282 132.664  0.00  0.00    +0.000 HD
ENDBRANCH  15  22
ENDBRANCH  12  15
ENDBRANCH  10  11
BRANCH   6  25
ATOM     25  C   UNL     1      -7.601  -1.968 130.606  0.00  0.00    +0.000 C 
ATOM     26  OXT UNL     1      -8.041  -2.844 129.872  0.00  0.00    +0.000 OA
BRANCH  25  27
ATOM     27  O   UNL     1      -7.560  -2.177 131.937  0.00  0.00    +0.000 OA
ATOM     28  H   UNL     1      -7.474  -3.103 132.234  0.00  0.00    +0.000 HD
ENDBRANCH  25  27
ENDBRANCH   6  25
TORSDOF 6
ENDMDL
MODEL 6
REMARK VINA RESULT:      -6.9      3.226      7.800
REMARK  Name = Cefradine
REMARK  7 active torsions:
REMARK  status: ('A' for Active; 'I' for Inactive)
REMARK    1  A    between atoms: C_5  and  C_6
REMARK    2  A    between atoms: CA_7  and  C_23
REMARK    3  A    between atoms: CA_11  and  N_12
REMARK    4  A    between atoms: C_13  and  CA_15
REMARK    5  A    between atoms: CA_15  and  N_16
REMARK    6  A    between atoms: CA_15  and  C_17
REMARK    7  A    between atoms: C_23  and  O_24
REMARK                            x       y       z     vdW  Elec       q    Type
REMARK                         _______ _______ _______ _____ _____    ______ ____
ROOT
ATOM      1  C   UNL     1     -11.643   5.421 130.512  0.00  0.00    +0.000 C 
ATOM      2  S   UNL     1     -11.701   6.774 131.699  0.00  0.00    +0.000 S 
ATOM      3  C   UNL     1     -12.956   7.668 130.722  0.00  0.00    +0.000 C 
ATOM      4  C   UNL     1     -12.597   7.833 129.258  0.00  0.00    +0.000 C 
ATOM      5  C   UNL     1     -13.383   8.958 128.610  0.00  0.00    +0.000 C 
ATOM      6  CA  UNL     1     -11.684   7.064 128.606  0.00  0.00    +0.000 C 
ATOM      7  N   UNL     1     -11.175   5.950 129.231  0.00  0.00    +0.000 N 
ATOM      8  C   UNL     1      -9.946   5.389 129.299  0.00  0.00    +0.000 C 
ATOM      9  O   UNL     1      -8.964   5.596 128.620  0.00  0.00    +0.000 OA
ATOM     10  CA  UNL     1     -10.401   4.492 130.491  0.00  0.00    +0.000 C 
ENDROOT
BRANCH  10  11
ATOM     11  N   UNL     1      -9.472   4.353 131.661  0.00  0.00    +0.000 N 
ATOM     12  C   UNL     1      -9.418   3.109 132.296  0.00  0.00    +0.000 C 
ATOM     13  O   UNL     1     -10.057   2.155 131.843  0.00  0.00    +0.000 OA
ATOM     14  H   UNL     1      -9.096   5.167 132.140  0.00  0.00    +0.000 HD
BRANCH  12  15
ATOM     15  CA  UNL     1      -8.665   3.034 133.679  0.00  0.00    +0.000 C 
BRANCH  15  16
ATOM     16  C   UNL     1      -7.163   2.979 133.483  0.00  0.00    +0.000 C 
ATOM     17  C   UNL     1      -6.611   2.261 132.482  0.00  0.00    +0.000 C 
ATOM     18  C   UNL     1      -5.151   2.121 132.228  0.00  0.00    +0.000 C 
ATOM     19  C   UNL     1      -4.307   2.880 133.197  0.00  0.00    +0.000 C 
ATOM     20  C   UNL     1      -4.817   3.623 134.193  0.00  0.00    +0.000 C 
ATOM     21  C   UNL     1      -6.297   3.773 134.448  0.00  0.00    +0.000 C 
ENDBRANCH  15  16
BRANCH  15  22
ATOM     22  N   UNL     1      -8.997   4.234 134.469  0.00  0.00    +0.000 NA
ATOM     23  H1  UNL     1      -9.767   4.715 133.998  0.00  0.00    +0.000 HD
ATOM     24  H2  UNL     1      -8.218   4.883 134.501  0.00  0.00    +0.000 HD
ENDBRANCH  15  22
ENDBRANCH  12  15
ENDBRANCH  10  11
BRANCH   6  25
ATOM     25  C   UNL     1     -11.287   7.418 127.179  0.00  0.00    +0.000 C 
ATOM     26  OXT UNL     1     -10.582   8.375 126.887  0.00  0.00    +0.000 OA
BRANCH  25  27
ATOM     27  O   UNL     1     -11.821   6.664 126.198  0.00  0.00    +0.000 OA
ATOM     28  H   UNL     1     -11.940   7.094 125.329  0.00  0.00    +0.000 HD
ENDBRANCH  25  27
ENDBRANCH   6  25
TORSDOF 6
ENDMDL
MODEL 7
REMARK VINA RESULT:      -6.9      4.994      5.821
REMARK  Name = Cefradine
REMARK  7 active torsions:
REMARK  status: ('A' for Active; 'I' for Inactive)
REMARK    1  A    between atoms: C_5  and  C_6
REMARK    2  A    between atoms: CA_7  and  C_23
REMARK    3  A    between atoms: CA_11  and  N_12
REMARK    4  A    between atoms: C_13  and  CA_15
REMARK    5  A    between atoms: CA_15  and  N_16
REMARK    6  A    between atoms: CA_15  and  C_17
REMARK    7  A    between atoms: C_23  and  O_24
REMARK                            x       y       z     vdW  Elec       q    Type
REMARK                         _______ _______ _______ _____ _____    ______ ____
ROOT
ATOM      1  C   UNL     1      -7.592   1.282 129.910  0.00  0.00    +0.000 C 
ATOM      2  S   UNL     1      -8.635   0.497 131.150  0.00  0.00    +0.000 S 
ATOM      3  C   UNL     1      -7.753  -1.093 130.985  0.00  0.00    +0.000 C 
ATOM      4  C   UNL     1      -7.618  -1.577 129.555  0.00  0.00    +0.000 C 
ATOM      5  C   UNL     1      -7.338  -3.067 129.490  0.00  0.00    +0.000 C 
ATOM      6  CA  UNL     1      -7.731  -0.774 128.463  0.00  0.00    +0.000 C 
ATOM      7  N   UNL     1      -7.789   0.590 128.636  0.00  0.00    +0.000 N 
ATOM      8  C   UNL     1      -8.504   1.581 128.058  0.00  0.00    +0.000 C 
ATOM      9  O   UNL     1      -9.153   1.569 127.034  0.00  0.00    +0.000 OA
ATOM     10  CA  UNL     1      -8.102   2.563 129.201  0.00  0.00    +0.000 C 
ENDROOT
BRANCH  10  11
ATOM     11  N   UNL     1      -9.171   3.441 129.782  0.00  0.00    +0.000 N 
ATOM     12  C   UNL     1      -8.932   4.819 129.803  0.00  0.00    +0.000 C 
ATOM     13  O   UNL     1      -7.910   5.277 129.283  0.00  0.00    +0.000 OA
ATOM     14  H   UNL     1      -9.911   3.061 130.366  0.00  0.00    +0.000 HD
BRANCH  12  15
ATOM     15  CA  UNL     1      -9.914   5.711 130.655  0.00  0.00    +0.000 C 
BRANCH  15  16
ATOM     16  C   UNL     1     -10.819   6.535 129.761  0.00  0.00    +0.000 C 
ATOM     17  C   UNL     1     -12.091   6.158 129.509  0.00  0.00    +0.000 C 
ATOM     18  C   UNL     1     -13.043   6.881 128.623  0.00  0.00    +0.000 C 
ATOM     19  C   UNL     1     -12.465   8.118 128.020  0.00  0.00    +0.000 C 
ATOM     20  C   UNL     1     -11.214   8.540 128.262  0.00  0.00    +0.000 C 
ATOM     21  C   UNL     1     -10.249   7.812 129.165  0.00  0.00    +0.000 C 
ENDBRANCH  15  16
BRANCH  15  22
ATOM     22  N   UNL     1     -10.749   4.834 131.496  0.00  0.00    +0.000 NA
ATOM     23  H1  UNL     1     -10.142   4.413 132.204  0.00  0.00    +0.000 HD
ATOM     24  H2  UNL     1     -11.146   4.073 130.957  0.00  0.00    +0.000 HD
ENDBRANCH  15  22
ENDBRANCH  12  15
ENDBRANCH  10  11
BRANCH   6  25
ATOM     25  C   UNL     1      -7.733  -1.393 127.072  0.00  0.00    +0.000 C 
ATOM     26  OXT UNL     1      -8.734  -1.844 126.531  0.00  0.00    +0.000 OA
BRANCH  25  27
ATOM     27  O   UNL     1      -6.538  -1.508 126.459  0.00  0.00    +0.000 OA
ATOM     28  H   UNL     1      -6.487  -2.134 125.712  0.00  0.00    +0.000 HD
ENDBRANCH  25  27
ENDBRANCH   6  25
TORSDOF 6
ENDMDL
MODEL 8
REMARK VINA RESULT:      -6.8      4.721      5.375
REMARK  Name = Cefradine
REMARK  7 active torsions:
REMARK  status: ('A' for Active; 'I' for Inactive)
REMARK    1  A    between atoms: C_5  and  C_6
REMARK    2  A    between atoms: CA_7  and  C_23
REMARK    3  A    between atoms: CA_11  and  N_12
REMARK    4  A    between atoms: C_13  and  CA_15
REMARK    5  A    between atoms: CA_15  and  N_16
REMARK    6  A    between atoms: CA_15  and  C_17
REMARK    7  A    between atoms: C_23  and  O_24
REMARK                            x       y       z     vdW  Elec       q    Type
REMARK                         _______ _______ _______ _____ _____    ______ ____
ROOT
ATOM      1  C   UNL     1      -8.394   2.323 128.206  0.00  0.00    +0.000 C 
ATOM      2  S   UNL     1      -7.007   3.413 127.847  0.00  0.00    +0.000 S 
ATOM      3  C   UNL     1      -6.369   2.290 126.559  0.00  0.00    +0.000 C 
ATOM      4  C   UNL     1      -6.227   0.850 127.011  0.00  0.00    +0.000 C 
ATOM      5  C   UNL     1      -5.272   0.074 126.123  0.00  0.00    +0.000 C 
ATOM      6  CA  UNL     1      -6.878   0.318 128.080  0.00  0.00    +0.000 C 
ATOM      7  N   UNL     1      -7.866   1.050 128.696  0.00  0.00    +0.000 N 
ATOM      8  C   UNL     1      -8.227   1.245 129.984  0.00  0.00    +0.000 C 
ATOM      9  O   UNL     1      -7.906   0.629 130.978  0.00  0.00    +0.000 OA
ATOM     10  CA  UNL     1      -9.120   2.455 129.571  0.00  0.00    +0.000 C 
ENDROOT
BRANCH  10  11
ATOM     11  N   UNL     1      -9.054   3.697 130.409  0.00  0.00    +0.000 N 
ATOM     12  C   UNL     1     -10.247   4.395 130.621  0.00  0.00    +0.000 C 
ATOM     13  O   UNL     1     -11.313   3.941 130.196  0.00  0.00    +0.000 OA
ATOM     14  H   UNL     1      -8.170   4.163 130.598  0.00  0.00    +0.000 HD
BRANCH  12  15
ATOM     15  CA  UNL     1     -10.140   5.833 131.258  0.00  0.00    +0.000 C 
BRANCH  15  16
ATOM     16  C   UNL     1     -10.810   6.872 130.380  0.00  0.00    +0.000 C 
ATOM     17  C   UNL     1     -10.193   7.374 129.289  0.00  0.00    +0.000 C 
ATOM     18  C   UNL     1     -10.754   8.415 128.386  0.00  0.00    +0.000 C 
ATOM     19  C   UNL     1     -12.117   8.872 128.787  0.00  0.00    +0.000 C 
ATOM     20  C   UNL     1     -12.775   8.383 129.851  0.00  0.00    +0.000 C 
ATOM     21  C   UNL     1     -12.211   7.322 130.763  0.00  0.00    +0.000 C 
ENDBRANCH  15  16
BRANCH  15  22
ATOM     22  N   UNL     1     -10.805   5.825 132.573  0.00  0.00    +0.000 NA
ATOM     23  H1  UNL     1     -11.746   6.207 132.449  0.00  0.00    +0.000 HD
ATOM     24  H2  UNL     1     -10.326   6.426 133.234  0.00  0.00    +0.000 HD
ENDBRANCH  15  22
ENDBRANCH  12  15
ENDBRANCH  10  11
BRANCH   6  25
ATOM     25  C   UNL     1      -6.541  -1.095 128.538  0.00  0.00    +0.000 C 
ATOM     26  OXT UNL     1      -7.044  -2.103 128.059  0.00  0.00    +0.000 OA
BRANCH  25  27
ATOM     27  O   UNL     1      -5.699  -1.207 129.584  0.00  0.00    +0.000 OA
ATOM     28  H   UNL     1      -6.063  -1.000 130.466  0.00  0.00    +0.000 HD
ENDBRANCH  25  27
ENDBRANCH   6  25
TORSDOF 6
ENDMDL
MODEL 9
REMARK VINA RESULT:      -6.7      3.241      7.830
REMARK  Name = Cefradine
REMARK  7 active torsions:
REMARK  status: ('A' for Active; 'I' for Inactive)
REMARK    1  A    between atoms: C_5  and  C_6
REMARK    2  A    between atoms: CA_7  and  C_23
REMARK    3  A    between atoms: CA_11  and  N_12
REMARK    4  A    between atoms: C_13  and  CA_15
REMARK    5  A    between atoms: CA_15  and  N_16
REMARK    6  A    between atoms: CA_15  and  C_17
REMARK    7  A    between atoms: C_23  and  O_24
REMARK                            x       y       z     vdW  Elec       q    Type
REMARK                         _______ _______ _______ _____ _____    ______ ____
ROOT
ATOM      1  C   UNL     1      -9.723   4.782 130.727  0.00  0.00    +0.000 C 
ATOM      2  S   UNL     1      -9.218   5.946 132.004  0.00  0.00    +0.000 S 
ATOM      3  C   UNL     1     -10.947   6.402 132.369  0.00  0.00    +0.000 C 
ATOM      4  C   UNL     1     -11.757   6.780 131.145  0.00  0.00    +0.000 C 
ATOM      5  C   UNL     1     -12.983   7.595 131.512  0.00  0.00    +0.000 C 
ATOM      6  CA  UNL     1     -11.427   6.427 129.873  0.00  0.00    +0.000 C 
ATOM      7  N   UNL     1     -10.408   5.526 129.670  0.00  0.00    +0.000 N 
ATOM      8  C   UNL     1      -9.402   5.430 128.771  0.00  0.00    +0.000 C 
ATOM      9  O   UNL     1      -9.247   6.015 127.720  0.00  0.00    +0.000 OA
ATOM     10  CA  UNL     1      -8.693   4.354 129.650  0.00  0.00    +0.000 C 
ENDROOT
BRANCH  10  11
ATOM     11  N   UNL     1      -7.212   4.475 129.850  0.00  0.00    +0.000 N 
ATOM     12  C   UNL     1      -6.518   3.324 130.236  0.00  0.00    +0.000 C 
ATOM     13  O   UNL     1      -7.111   2.244 130.321  0.00  0.00    +0.000 OA
ATOM     14  H   UNL     1      -6.763   5.380 129.961  0.00  0.00    +0.000 HD
BRANCH  12  15
ATOM     15  CA  UNL     1      -5.027   3.503 130.714  0.00  0.00    +0.000 C 
BRANCH  15  16
ATOM     16  C   UNL     1      -4.099   3.736 129.539  0.00  0.00    +0.000 C 
ATOM     17  C   UNL     1      -3.467   4.916 129.365  0.00  0.00    +0.000 C 
ATOM     18  C   UNL     1      -2.564   5.249 128.229  0.00  0.00    +0.000 C 
ATOM     19  C   UNL     1      -2.391   4.125 127.263  0.00  0.00    +0.000 C 
ATOM     20  C   UNL     1      -2.983   2.929 127.411  0.00  0.00    +0.000 C 
ATOM     21  C   UNL     1      -3.893   2.586 128.565  0.00  0.00    +0.000 C 
ENDBRANCH  15  16
BRANCH  15  22
ATOM     22  N   UNL     1      -4.951   4.667 131.616  0.00  0.00    +0.000 NA
ATOM     23  H1  UNL     1      -5.871   4.788 132.046  0.00  0.00    +0.000 HD
ATOM     24  H2  UNL     1      -4.749   5.519 131.105  0.00  0.00    +0.000 HD
ENDBRANCH  15  22
ENDBRANCH  12  15
ENDBRANCH  10  11
BRANCH   6  25
ATOM     25  C   UNL     1     -12.225   6.992 128.706  0.00  0.00    +0.000 C 
ATOM     26  OXT UNL     1     -13.288   6.525 128.320  0.00  0.00    +0.000 OA
BRANCH  25  27
ATOM     27  O   UNL     1     -11.665   8.015 128.029  0.00  0.00    +0.000 OA
ATOM     28  H   UNL     1     -11.286   7.807 127.154  0.00  0.00    +0.000 HD
ENDBRANCH  25  27
ENDBRANCH   6  25
TORSDOF 6
ENDMDL
