MODEL 1
REMARK VINA RESULT:      -8.5      0.000      0.000
REMARK  Name = Ceftobiprole medocaril
REMARK  12 active torsions:
REMARK  status: ('A' for Active; 'I' for Inactive)
REMARK    1  A    between atoms: CA_2  and  N_3
REMARK    2  A    between atoms: C_4  and  C_6
REMARK    3  A    between atoms: C_6  and  C_9
REMARK    4  A    between atoms: N_7  and  O_8
REMARK    5  A    between atoms: CA_18  and  C_19
REMARK    6  A    between atoms: C_19  and  O_20
REMARK    7  A    between atoms: C_22  and  C_27
REMARK    8  A    between atoms: N_31  and  C_34
REMARK    9  A    between atoms: C_40  and  O_42
REMARK   10  A    between atoms: O_42  and  C_43
REMARK   11  A    between atoms: C_43  and  C_44
REMARK   12  A    between atoms: C_45  and  C_46
REMARK                            x       y       z     vdW  Elec       q    Type
REMARK                         _______ _______ _______ _____ _____    ______ ____
ROOT
ATOM      1  CA  UNL     1      -7.715   5.743 133.796  0.00  0.00    +0.000 C 
ATOM      2  C   UNL     1      -8.911   5.161 132.984  0.00  0.00    +0.000 C 
ATOM      3  O   UNL     1     -10.072   5.397 132.787  0.00  0.00    +0.000 OA
ATOM      4  N   UNL     1      -8.095   4.244 132.393  0.00  0.00    +0.000 N 
ATOM      5  CA  UNL     1      -8.379   3.051 131.768  0.00  0.00    +0.000 C 
ATOM      6  C   UNL     1      -7.621   1.950 132.032  0.00  0.00    +0.000 C 
ATOM      7  C   UNL     1      -6.491   1.912 133.043  0.00  0.00    +0.000 C 
ATOM      8  S   UNL     1      -6.550   3.156 134.330  0.00  0.00    +0.000 S 
ATOM      9  C   UNL     1      -6.926   4.521 133.226  0.00  0.00    +0.000 C 
ENDROOT
BRANCH   6  10
ATOM     10  C   UNL     1      -7.822   0.657 131.367  0.00  0.00    +0.000 C 
ATOM     11  C   UNL     1      -7.103   0.189 130.334  0.00  0.00    +0.000 C 
ATOM     12  C   UNL     1      -5.959   0.836 129.624  0.00  0.00    +0.000 C 
ATOM     13  C   UNL     1      -5.486  -0.221 128.646  0.00  0.00    +0.000 C 
ATOM     14  N   UNL     1      -6.500  -1.250 128.629  0.00  0.00    +0.000 N 
ATOM     15  C   UNL     1      -7.380  -1.134 129.696  0.00  0.00    +0.000 C 
ATOM     16  O   UNL     1      -8.259  -1.908 130.026  0.00  0.00    +0.000 OA
BRANCH  14  17
ATOM     17  C   UNL     1      -6.525  -2.361 127.657  0.00  0.00    +0.000 C 
ATOM     18  C   UNL     1      -5.640  -2.116 126.430  0.00  0.00    +0.000 C 
ATOM     19  C   UNL     1      -6.586  -1.467 125.417  0.00  0.00    +0.000 C 
ATOM     20  N   UNL     1      -7.841  -2.163 125.615  0.00  0.00    +0.000 N 
ATOM     21  C   UNL     1      -7.923  -2.630 127.020  0.00  0.00    +0.000 C 
ATOM     22  C   UNL     1      -8.792  -2.458 124.631  0.00  0.00    +0.000 C 
ATOM     23  O   UNL     1      -9.788  -3.135 124.867  0.00  0.00    +0.000 OA
BRANCH  22  24
ATOM     24  O   UNL     1      -8.537  -1.930 123.373  0.00  0.00    +0.000 OA
BRANCH  24  25
ATOM     25  C   UNL     1      -9.559  -1.030 122.796  0.00  0.00    +0.000 C 
BRANCH  25  26
ATOM     26  C   UNL     1      -9.370   0.432 123.213  0.00  0.00    +0.000 A 
ATOM     27  C   UNL     1      -9.451   1.093 124.367  0.00  0.00    +0.000 A 
ATOM     28  C   UNL     1      -9.770   0.708 125.783  0.00  0.00    +0.000 C 
ATOM     29  O   UNL     1      -9.188   2.451 124.185  0.00  0.00    +0.000 OA
ATOM     30  C   UNL     1      -8.954   2.532 122.826  0.00  0.00    +0.000 A 
ATOM     31  O   UNL     1      -8.665   3.576 122.253  0.00  0.00    +0.000 OA
ATOM     32  O   UNL     1      -9.079   1.319 122.176  0.00  0.00    +0.000 OA
ENDBRANCH  25  26
ENDBRANCH  24  25
ENDBRANCH  22  24
ENDBRANCH  14  17
ENDBRANCH   6  10
BRANCH   1  33
ATOM     33  N   UNL     1      -7.828   5.965 135.269  0.00  0.00    +0.000 N 
ATOM     34  C   UNL     1      -6.798   6.321 136.136  0.00  0.00    +0.000 C 
ATOM     35  O   UNL     1      -5.636   6.427 135.767  0.00  0.00    +0.000 OA
ATOM     36  H   UNL     1      -8.700   5.719 135.735  0.00  0.00    +0.000 HD
BRANCH  34  37
ATOM     37  C   UNL     1      -7.132   6.534 137.633  0.00  0.00    +0.000 C 
ATOM     38  N   UNL     1      -6.611   5.825 138.613  0.00  0.00    +0.000 NA
BRANCH  37  39
ATOM     39  C   UNL     1      -8.090   7.629 137.994  0.00  0.00    +0.000 A 
ATOM     40  N   UNL     1      -7.787   8.525 138.950  0.00  0.00    +0.000 NA
ATOM     41  S   UNL     1      -9.053   9.612 139.045  0.00  0.00    +0.000 S 
ATOM     42  C   UNL     1      -9.995   8.809 137.847  0.00  0.00    +0.000 A 
ATOM     43  N   UNL     1     -11.224   9.212 137.474  0.00  0.00    +0.000 N 
ATOM     44  N   UNL     1      -9.356   7.764 137.367  0.00  0.00    +0.000 NA
ATOM     45  H   UNL     1     -11.687  10.024 137.867  0.00  0.00    +0.000 HD
ATOM     46  H   UNL     1     -11.740   8.700 136.770  0.00  0.00    +0.000 HD
ENDBRANCH  37  39
BRANCH  38  47
ATOM     47  O   UNL     1      -5.740   4.799 138.209  0.00  0.00    +0.000 OA
ATOM     48  H   UNL     1      -6.038   4.589 137.300  0.00  0.00    +0.000 HD
ENDBRANCH  38  47
ENDBRANCH  34  37
ENDBRANCH   1  33
BRANCH   5  49
ATOM     49  C   UNL     1      -9.517   2.949 130.753  0.00  0.00    +0.000 C 
ATOM     50  OXT UNL     1      -9.387   3.132 129.551  0.00  0.00    +0.000 OA
BRANCH  49  51
ATOM     51  O   UNL     1     -10.755   2.753 131.254  0.00  0.00    +0.000 OA
ATOM     52  H   UNL     1     -10.897   1.915 131.736  0.00  0.00    +0.000 HD
ENDBRANCH  49  51
ENDBRANCH   5  49
TORSDOF 11
ENDMDL
MODEL 2
REMARK VINA RESULT:      -8.5      6.372      7.767
REMARK  Name = Ceftobiprole medocaril
REMARK  12 active torsions:
REMARK  status: ('A' for Active; 'I' for Inactive)
REMARK    1  A    between atoms: CA_2  and  N_3
REMARK    2  A    between atoms: C_4  and  C_6
REMARK    3  A    between atoms: C_6  and  C_9
REMARK    4  A    between atoms: N_7  and  O_8
REMARK    5  A    between atoms: CA_18  and  C_19
REMARK    6  A    between atoms: C_19  and  O_20
REMARK    7  A    between atoms: C_22  and  C_27
REMARK    8  A    between atoms: N_31  and  C_34
REMARK    9  A    between atoms: C_40  and  O_42
REMARK   10  A    between atoms: O_42  and  C_43
REMARK   11  A    between atoms: C_43  and  C_44
REMARK   12  A    between atoms: C_45  and  C_46
REMARK                            x       y       z     vdW  Elec       q    Type
REMARK                         _______ _______ _______ _____ _____    ______ ____
ROOT
ATOM      1  CA  UNL     1      -4.944  -2.752 133.973  0.00  0.00    +0.000 C 
ATOM      2  C   UNL     1      -6.098  -1.819 133.497  0.00  0.00    +0.000 C 
ATOM      3  O   UNL     1      -6.868  -1.023 133.960  0.00  0.00    +0.000 OA
ATOM      4  N   UNL     1      -5.852  -2.140 132.195  0.00  0.00    +0.000 N 
ATOM      5  CA  UNL     1      -6.647  -2.041 131.075  0.00  0.00    +0.000 C 
ATOM      6  C   UNL     1      -6.701  -3.074 130.189  0.00  0.00    +0.000 C 
ATOM      7  C   UNL     1      -5.984  -4.398 130.374  0.00  0.00    +0.000 C 
ATOM      8  S   UNL     1      -5.554  -4.826 132.059  0.00  0.00    +0.000 S 
ATOM      9  C   UNL     1      -4.897  -3.209 132.479  0.00  0.00    +0.000 C 
ENDROOT
BRANCH   6  10
ATOM     10  C   UNL     1      -7.476  -3.026 128.944  0.00  0.00    +0.000 C 
ATOM     11  C   UNL     1      -7.033  -2.564 127.763  0.00  0.00    +0.000 C 
ATOM     12  C   UNL     1      -5.691  -2.005 127.425  0.00  0.00    +0.000 C 
ATOM     13  C   UNL     1      -5.750  -1.780 125.927  0.00  0.00    +0.000 C 
ATOM     14  N   UNL     1      -7.135  -1.930 125.543  0.00  0.00    +0.000 N 
ATOM     15  C   UNL     1      -7.891  -2.531 126.540  0.00  0.00    +0.000 C 
ATOM     16  O   UNL     1      -9.049  -2.901 126.478  0.00  0.00    +0.000 OA
BRANCH  14  17
ATOM     17  C   UNL     1      -7.657  -1.592 124.204  0.00  0.00    +0.000 C 
ATOM     18  C   UNL     1      -6.673  -0.778 123.356  0.00  0.00    +0.000 C 
ATOM     19  C   UNL     1      -7.044   0.676 123.654  0.00  0.00    +0.000 C 
ATOM     20  N   UNL     1      -8.489   0.654 123.753  0.00  0.00    +0.000 N 
ATOM     21  C   UNL     1      -8.926  -0.685 124.216  0.00  0.00    +0.000 C 
ATOM     22  C   UNL     1      -9.363   1.681 123.377  0.00  0.00    +0.000 C 
ATOM     23  O   UNL     1     -10.582   1.544 123.407  0.00  0.00    +0.000 OA
BRANCH  22  24
ATOM     24  O   UNL     1      -8.760   2.863 122.971  0.00  0.00    +0.000 OA
BRANCH  24  25
ATOM     25  C   UNL     1      -8.698   3.128 121.517  0.00  0.00    +0.000 C 
BRANCH  25  26
ATOM     26  C   UNL     1      -7.368   3.750 121.082  0.00  0.00    +0.000 A 
ATOM     27  C   UNL     1      -6.893   4.235 119.935  0.00  0.00    +0.000 A 
ATOM     28  C   UNL     1      -7.443   4.386 118.545  0.00  0.00    +0.000 C 
ATOM     29  O   UNL     1      -5.580   4.683 120.086  0.00  0.00    +0.000 OA
ATOM     30  C   UNL     1      -5.322   4.413 121.416  0.00  0.00    +0.000 A 
ATOM     31  O   UNL     1      -4.258   4.677 121.963  0.00  0.00    +0.000 OA
ATOM     32  O   UNL     1      -6.383   3.814 122.069  0.00  0.00    +0.000 OA
ENDBRANCH  25  26
ENDBRANCH  24  25
ENDBRANCH  22  24
ENDBRANCH  14  17
ENDBRANCH   6  10
BRANCH   1  33
ATOM     33  N   UNL     1      -5.165  -3.740 135.071  0.00  0.00    +0.000 N 
ATOM     34  C   UNL     1      -4.632  -3.686 136.357  0.00  0.00    +0.000 C 
ATOM     35  O   UNL     1      -3.842  -2.818 136.703  0.00  0.00    +0.000 OA
ATOM     36  H   UNL     1      -5.645  -4.613 134.855  0.00  0.00    +0.000 HD
BRANCH  34  37
ATOM     37  C   UNL     1      -5.011  -4.801 137.362  0.00  0.00    +0.000 C 
ATOM     38  N   UNL     1      -4.157  -5.376 138.183  0.00  0.00    +0.000 NA
BRANCH  37  39
ATOM     39  C   UNL     1      -6.444  -5.238 137.424  0.00  0.00    +0.000 A 
ATOM     40  N   UNL     1      -6.773  -6.472 137.846  0.00  0.00    +0.000 NA
ATOM     41  S   UNL     1      -8.440  -6.586 137.829  0.00  0.00    +0.000 S 
ATOM     42  C   UNL     1      -8.665  -5.001 137.195  0.00  0.00    +0.000 A 
ATOM     43  N   UNL     1      -9.872  -4.479 136.908  0.00  0.00    +0.000 N 
ATOM     44  N   UNL     1      -7.511  -4.391 137.029  0.00  0.00    +0.000 NA
ATOM     45  H   UNL     1     -10.743  -4.980 137.048  0.00  0.00    +0.000 HD
ATOM     46  H   UNL     1      -9.950  -3.544 136.529  0.00  0.00    +0.000 HD
ENDBRANCH  37  39
BRANCH  38  47
ATOM     47  O   UNL     1      -2.827  -4.940 138.060  0.00  0.00    +0.000 OA
ATOM     48  H   UNL     1      -2.326  -5.770 137.919  0.00  0.00    +0.000 HD
ENDBRANCH  38  47
ENDBRANCH  34  37
ENDBRANCH   1  33
BRANCH   5  49
ATOM     49  C   UNL     1      -7.448  -0.771 130.792  0.00  0.00    +0.000 C 
ATOM     50  OXT UNL     1      -7.029   0.177 130.142  0.00  0.00    +0.000 OA
BRANCH  49  51
ATOM     51  O   UNL     1      -8.647  -0.667 131.402  0.00  0.00    +0.000 OA
ATOM     52  H   UNL     1      -9.045   0.225 131.421  0.00  0.00    +0.000 HD
ENDBRANCH  49  51
ENDBRANCH   5  49
TORSDOF 11
ENDMDL
MODEL 3
REMARK VINA RESULT:      -8.4      6.276     13.568
REMARK  Name = Ceftobiprole medocaril
REMARK  12 active torsions:
REMARK  status: ('A' for Active; 'I' for Inactive)
REMARK    1  A    between atoms: CA_2  and  N_3
REMARK    2  A    between atoms: C_4  and  C_6
REMARK    3  A    between atoms: C_6  and  C_9
REMARK    4  A    between atoms: N_7  and  O_8
REMARK    5  A    between atoms: CA_18  and  C_19
REMARK    6  A    between atoms: C_19  and  O_20
REMARK    7  A    between atoms: C_22  and  C_27
REMARK    8  A    between atoms: N_31  and  C_34
REMARK    9  A    between atoms: C_40  and  O_42
REMARK   10  A    between atoms: O_42  and  C_43
REMARK   11  A    between atoms: C_43  and  C_44
REMARK   12  A    between atoms: C_45  and  C_46
REMARK                            x       y       z     vdW  Elec       q    Type
REMARK                         _______ _______ _______ _____ _____    ______ ____
ROOT
ATOM      1  CA  UNL     1      -6.759   3.626 126.191  0.00  0.00    +0.000 C 
ATOM      2  C   UNL     1      -5.223   3.873 126.102  0.00  0.00    +0.000 C 
ATOM      3  O   UNL     1      -4.352   3.868 125.275  0.00  0.00    +0.000 OA
ATOM      4  N   UNL     1      -5.186   4.265 127.406  0.00  0.00    +0.000 N 
ATOM      5  CA  UNL     1      -4.141   4.332 128.300  0.00  0.00    +0.000 C 
ATOM      6  C   UNL     1      -4.306   3.872 129.571  0.00  0.00    +0.000 C 
ATOM      7  C   UNL     1      -5.569   3.206 130.083  0.00  0.00    +0.000 C 
ATOM      8  S   UNL     1      -6.630   2.479 128.837  0.00  0.00    +0.000 S 
ATOM      9  C   UNL     1      -6.561   3.883 127.720  0.00  0.00    +0.000 C 
ENDROOT
BRANCH   6  10
ATOM     10  C   UNL     1      -3.263   3.959 130.600  0.00  0.00    +0.000 C 
ATOM     11  C   UNL     1      -3.011   5.030 131.370  0.00  0.00    +0.000 C 
ATOM     12  C   UNL     1      -3.701   6.355 131.380  0.00  0.00    +0.000 C 
ATOM     13  C   UNL     1      -3.064   7.095 132.540  0.00  0.00    +0.000 C 
ATOM     14  N   UNL     1      -1.905   6.326 132.932  0.00  0.00    +0.000 N 
ATOM     15  C   UNL     1      -1.916   5.050 132.387  0.00  0.00    +0.000 C 
ATOM     16  O   UNL     1      -1.152   4.132 132.622  0.00  0.00    +0.000 OA
BRANCH  14  17
ATOM     17  C   UNL     1      -0.890   6.804 133.891  0.00  0.00    +0.000 C 
ATOM     18  C   UNL     1      -1.489   7.314 135.207  0.00  0.00    +0.000 C 
ATOM     19  C   UNL     1      -1.684   8.813 134.966  0.00  0.00    +0.000 C 
ATOM     20  N   UNL     1      -0.523   9.195 134.188  0.00  0.00    +0.000 N 
ATOM     21  C   UNL     1      -0.060   8.029 133.398  0.00  0.00    +0.000 C 
ATOM     22  C   UNL     1       0.140  10.426 134.237  0.00  0.00    +0.000 C 
ATOM     23  O   UNL     1       1.175  10.636 133.610  0.00  0.00    +0.000 OA
BRANCH  22  24
ATOM     24  O   UNL     1      -0.451  11.395 135.036  0.00  0.00    +0.000 OA
BRANCH  24  25
ATOM     25  C   UNL     1      -0.099  12.806 134.761  0.00  0.00    +0.000 C 
BRANCH  25  26
ATOM     26  C   UNL     1      -0.986  13.441 133.686  0.00  0.00    +0.000 A 
ATOM     27  C   UNL     1      -0.985  13.442 132.353  0.00  0.00    +0.000 A 
ATOM     28  C   UNL     1      -0.110  12.827 131.299  0.00  0.00    +0.000 C 
ATOM     29  O   UNL     1      -2.038  14.209 131.852  0.00  0.00    +0.000 OA
ATOM     30  C   UNL     1      -2.652  14.664 133.002  0.00  0.00    +0.000 A 
ATOM     31  O   UNL     1      -3.651  15.373 132.998  0.00  0.00    +0.000 OA
ATOM     32  O   UNL     1      -2.028  14.240 134.160  0.00  0.00    +0.000 OA
ENDBRANCH  25  26
ENDBRANCH  24  25
ENDBRANCH  22  24
ENDBRANCH  14  17
ENDBRANCH   6  10
BRANCH   1  33
ATOM     33  N   UNL     1      -7.357   2.350 125.697  0.00  0.00    +0.000 N 
ATOM     34  C   UNL     1      -8.392   2.220 124.773  0.00  0.00    +0.000 C 
ATOM     35  O   UNL     1      -8.979   3.186 124.307  0.00  0.00    +0.000 OA
ATOM     36  H   UNL     1      -7.092   1.477 126.152  0.00  0.00    +0.000 HD
BRANCH  34  37
ATOM     37  C   UNL     1      -8.848   0.797 124.370  0.00  0.00    +0.000 C 
ATOM     38  N   UNL     1     -10.079   0.489 124.016  0.00  0.00    +0.000 NA
BRANCH  37  39
ATOM     39  C   UNL     1      -7.823  -0.297 124.358  0.00  0.00    +0.000 A 
ATOM     40  N   UNL     1      -7.409  -0.870 125.503  0.00  0.00    +0.000 NA
ATOM     41  S   UNL     1      -6.314  -2.067 125.103  0.00  0.00    +0.000 S 
ATOM     42  C   UNL     1      -6.380  -1.736 123.414  0.00  0.00    +0.000 A 
ATOM     43  N   UNL     1      -5.643  -2.391 122.498  0.00  0.00    +0.000 N 
ATOM     44  N   UNL     1      -7.231  -0.766 123.157  0.00  0.00    +0.000 NA
ATOM     45  H   UNL     1      -4.995  -3.135 122.733  0.00  0.00    +0.000 HD
ATOM     46  H   UNL     1      -5.713  -2.153 121.517  0.00  0.00    +0.000 HD
ENDBRANCH  37  39
BRANCH  38  47
ATOM     47  O   UNL     1     -10.998   1.551 124.071  0.00  0.00    +0.000 OA
ATOM     48  H   UNL     1     -11.404   1.457 124.957  0.00  0.00    +0.000 HD
ENDBRANCH  38  47
ENDBRANCH  34  37
ENDBRANCH   1  33
BRANCH   5  49
ATOM     49  C   UNL     1      -2.803   4.949 127.896  0.00  0.00    +0.000 C 
ATOM     50  OXT UNL     1      -2.523   6.134 128.022  0.00  0.00    +0.000 OA
BRANCH  49  51
ATOM     51  O   UNL     1      -1.932   4.137 127.261  0.00  0.00    +0.000 OA
ATOM     52  H   UNL     1      -1.660   3.333 127.745  0.00  0.00    +0.000 HD
ENDBRANCH  49  51
ENDBRANCH   5  49
TORSDOF 11
ENDMDL
MODEL 4
REMARK VINA RESULT:      -8.3      5.601      9.109
REMARK  Name = Ceftobiprole medocaril
REMARK  12 active torsions:
REMARK  status: ('A' for Active; 'I' for Inactive)
REMARK    1  A    between atoms: CA_2  and  N_3
REMARK    2  A    between atoms: C_4  and  C_6
REMARK    3  A    between atoms: C_6  and  C_9
REMARK    4  A    between atoms: N_7  and  O_8
REMARK    5  A    between atoms: CA_18  and  C_19
REMARK    6  A    between atoms: C_19  and  O_20
REMARK    7  A    between atoms: C_22  and  C_27
REMARK    8  A    between atoms: N_31  and  C_34
REMARK    9  A    between atoms: C_40  and  O_42
REMARK   10  A    between atoms: O_42  and  C_43
REMARK   11  A    between atoms: C_43  and  C_44
REMARK   12  A    between atoms: C_45  and  C_46
REMARK                            x       y       z     vdW  Elec       q    Type
REMARK                         _______ _______ _______ _____ _____    ______ ____
ROOT
ATOM      1  CA  UNL     1      -6.988   5.303 130.191  0.00  0.00    +0.000 C 
ATOM      2  C   UNL     1      -6.655   4.126 129.225  0.00  0.00    +0.000 C 
ATOM      3  O   UNL     1      -6.990   3.717 128.147  0.00  0.00    +0.000 OA
ATOM      4  N   UNL     1      -5.643   3.713 130.039  0.00  0.00    +0.000 N 
ATOM      5  CA  UNL     1      -5.008   2.496 130.144  0.00  0.00    +0.000 C 
ATOM      6  C   UNL     1      -4.759   1.965 131.373  0.00  0.00    +0.000 C 
ATOM      7  C   UNL     1      -5.199   2.594 132.682  0.00  0.00    +0.000 C 
ATOM      8  S   UNL     1      -6.578   3.731 132.578  0.00  0.00    +0.000 S 
ATOM      9  C   UNL     1      -5.958   4.616 131.144  0.00  0.00    +0.000 C 
ENDROOT
BRANCH   6  10
ATOM     10  C   UNL     1      -4.037   0.703 131.573  0.00  0.00    +0.000 C 
ATOM     11  C   UNL     1      -4.599  -0.513 131.673  0.00  0.00    +0.000 C 
ATOM     12  C   UNL     1      -6.045  -0.880 131.606  0.00  0.00    +0.000 C 
ATOM     13  C   UNL     1      -6.043  -2.396 131.651  0.00  0.00    +0.000 C 
ATOM     14  N   UNL     1      -4.705  -2.795 132.019  0.00  0.00    +0.000 N 
ATOM     15  C   UNL     1      -3.796  -1.753 131.896  0.00  0.00    +0.000 C 
ATOM     16  O   UNL     1      -2.586  -1.801 132.013  0.00  0.00    +0.000 OA
BRANCH  14  17
ATOM     17  C   UNL     1      -4.329  -4.179 132.371  0.00  0.00    +0.000 C 
ATOM     18  C   UNL     1      -5.511  -5.155 132.348  0.00  0.00    +0.000 C 
ATOM     19  C   UNL     1      -6.031  -5.137 133.788  0.00  0.00    +0.000 C 
ATOM     20  N   UNL     1      -4.830  -5.049 134.592  0.00  0.00    +0.000 N 
ATOM     21  C   UNL     1      -3.776  -4.350 133.819  0.00  0.00    +0.000 C 
ATOM     22  C   UNL     1      -4.632  -5.620 135.855  0.00  0.00    +0.000 C 
ATOM     23  O   UNL     1      -3.548  -5.576 136.429  0.00  0.00    +0.000 OA
BRANCH  22  24
ATOM     24  O   UNL     1      -5.743  -6.233 136.416  0.00  0.00    +0.000 OA
BRANCH  24  25
ATOM     25  C   UNL     1      -6.240  -5.691 137.700  0.00  0.00    +0.000 C 
BRANCH  25  26
ATOM     26  C   UNL     1      -7.465  -4.786 137.530  0.00  0.00    +0.000 A 
ATOM     27  C   UNL     1      -8.661  -4.930 136.962  0.00  0.00    +0.000 A 
ATOM     28  C   UNL     1      -9.352  -6.040 136.223  0.00  0.00    +0.000 C 
ATOM     29  O   UNL     1      -9.416  -3.763 137.083  0.00  0.00    +0.000 OA
ATOM     30  C   UNL     1      -8.560  -2.920 137.764  0.00  0.00    +0.000 A 
ATOM     31  O   UNL     1      -8.856  -1.777 138.090  0.00  0.00    +0.000 OA
ATOM     32  O   UNL     1      -7.333  -3.494 138.041  0.00  0.00    +0.000 OA
ENDBRANCH  25  26
ENDBRANCH  24  25
ENDBRANCH  22  24
ENDBRANCH  14  17
ENDBRANCH   6  10
BRANCH   1  33
ATOM     33  N   UNL     1      -8.393   5.554 130.632  0.00  0.00    +0.000 N 
ATOM     34  C   UNL     1      -9.116   6.733 130.468  0.00  0.00    +0.000 C 
ATOM     35  O   UNL     1      -8.624   7.743 129.983  0.00  0.00    +0.000 OA
ATOM     36  H   UNL     1      -8.852   4.861 131.222  0.00  0.00    +0.000 HD
BRANCH  34  37
ATOM     37  C   UNL     1     -10.580   6.778 130.972  0.00  0.00    +0.000 C 
ATOM     38  N   UNL     1     -10.940   6.528 132.214  0.00  0.00    +0.000 NA
BRANCH  37  39
ATOM     39  C   UNL     1     -11.653   7.153 129.995  0.00  0.00    +0.000 A 
ATOM     40  N   UNL     1     -12.299   6.213 129.282  0.00  0.00    +0.000 NA
ATOM     41  S   UNL     1     -13.446   6.986 128.345  0.00  0.00    +0.000 S 
ATOM     42  C   UNL     1     -12.997   8.562 128.876  0.00  0.00    +0.000 A 
ATOM     43  N   UNL     1     -13.573   9.691 128.424  0.00  0.00    +0.000 N 
ATOM     44  N   UNL     1     -12.025   8.502 129.761  0.00  0.00    +0.000 NA
ATOM     45  H   UNL     1     -14.321   9.699 127.740  0.00  0.00    +0.000 HD
ATOM     46  H   UNL     1     -13.267  10.595 128.763  0.00  0.00    +0.000 HD
ENDBRANCH  37  39
BRANCH  38  47
ATOM     47  O   UNL     1      -9.893   6.159 133.076  0.00  0.00    +0.000 OA
ATOM     48  H   UNL     1      -9.374   5.520 132.546  0.00  0.00    +0.000 HD
ENDBRANCH  38  47
ENDBRANCH  34  37
ENDBRANCH   1  33
BRANCH   5  49
ATOM     49  C   UNL     1      -4.545   1.744 128.897  0.00  0.00    +0.000 C 
ATOM     50  OXT UNL     1      -5.143   0.798 128.401  0.00  0.00    +0.000 OA
BRANCH  49  51
ATOM     51  O   UNL     1      -3.343   2.093 128.394  0.00  0.00    +0.000 OA
ATOM     52  H   UNL     1      -3.283   2.152 127.421  0.00  0.00    +0.000 HD
ENDBRANCH  49  51
ENDBRANCH   5  49
TORSDOF 11
ENDMDL
MODEL 5
REMARK VINA RESULT:      -8.3      6.748     14.333
REMARK  Name = Ceftobiprole medocaril
REMARK  12 active torsions:
REMARK  status: ('A' for Active; 'I' for Inactive)
REMARK    1  A    between atoms: CA_2  and  N_3
REMARK    2  A    between atoms: C_4  and  C_6
REMARK    3  A    between atoms: C_6  and  C_9
REMARK    4  A    between atoms: N_7  and  O_8
REMARK    5  A    between atoms: CA_18  and  C_19
REMARK    6  A    between atoms: C_19  and  O_20
REMARK    7  A    between atoms: C_22  and  C_27
REMARK    8  A    between atoms: N_31  and  C_34
REMARK    9  A    between atoms: C_40  and  O_42
REMARK   10  A    between atoms: O_42  and  C_43
REMARK   11  A    between atoms: C_43  and  C_44
REMARK   12  A    between atoms: C_45  and  C_46
REMARK                            x       y       z     vdW  Elec       q    Type
REMARK                         _______ _______ _______ _____ _____    ______ ____
ROOT
ATOM      1  CA  UNL     1      -6.796   3.735 126.094  0.00  0.00    +0.000 C 
ATOM      2  C   UNL     1      -5.257   3.963 126.005  0.00  0.00    +0.000 C 
ATOM      3  O   UNL     1      -4.379   3.898 125.189  0.00  0.00    +0.000 OA
ATOM      4  N   UNL     1      -5.229   4.435 127.282  0.00  0.00    +0.000 N 
ATOM      5  CA  UNL     1      -4.192   4.550 128.180  0.00  0.00    +0.000 C 
ATOM      6  C   UNL     1      -4.372   4.172 129.476  0.00  0.00    +0.000 C 
ATOM      7  C   UNL     1      -5.646   3.550 130.016  0.00  0.00    +0.000 C 
ATOM      8  S   UNL     1      -6.701   2.755 128.808  0.00  0.00    +0.000 S 
ATOM      9  C   UNL     1      -6.610   4.085 127.606  0.00  0.00    +0.000 C 
ENDROOT
BRANCH   6  10
ATOM     10  C   UNL     1      -3.338   4.315 130.508  0.00  0.00    +0.000 C 
ATOM     11  C   UNL     1      -3.144   5.400 131.276  0.00  0.00    +0.000 C 
ATOM     12  C   UNL     1      -3.902   6.686 131.281  0.00  0.00    +0.000 C 
ATOM     13  C   UNL     1      -3.307   7.461 132.442  0.00  0.00    +0.000 C 
ATOM     14  N   UNL     1      -2.111   6.754 132.838  0.00  0.00    +0.000 N 
ATOM     15  C   UNL     1      -2.054   5.478 132.296  0.00  0.00    +0.000 C 
ATOM     16  O   UNL     1      -1.245   4.601 132.534  0.00  0.00    +0.000 OA
BRANCH  14  17
ATOM     17  C   UNL     1      -1.124   7.285 133.799  0.00  0.00    +0.000 C 
ATOM     18  C   UNL     1      -1.751   8.149 134.899  0.00  0.00    +0.000 C 
ATOM     19  C   UNL     1      -1.679   9.571 134.338  0.00  0.00    +0.000 C 
ATOM     20  N   UNL     1      -0.406   9.609 133.649  0.00  0.00    +0.000 N 
ATOM     21  C   UNL     1      -0.066   8.247 133.175  0.00  0.00    +0.000 C 
ATOM     22  C   UNL     1       0.440  10.718 133.529  0.00  0.00    +0.000 C 
ATOM     23  O   UNL     1       1.548  10.640 133.006  0.00  0.00    +0.000 OA
BRANCH  22  24
ATOM     24  O   UNL     1      -0.058  11.910 134.035  0.00  0.00    +0.000 OA
BRANCH  24  25
ATOM     25  C   UNL     1       0.770  13.123 133.851  0.00  0.00    +0.000 C 
BRANCH  25  26
ATOM     26  C   UNL     1       0.655  14.105 135.021  0.00  0.00    +0.000 A 
ATOM     27  C   UNL     1      -0.359  14.611 135.722  0.00  0.00    +0.000 A 
ATOM     28  C   UNL     1      -1.852  14.455 135.679  0.00  0.00    +0.000 C 
ATOM     29  O   UNL     1       0.099  15.494 136.700  0.00  0.00    +0.000 OA
ATOM     30  C   UNL     1       1.467  15.469 136.510  0.00  0.00    +0.000 A 
ATOM     31  O   UNL     1       2.254  16.112 137.194  0.00  0.00    +0.000 OA
ATOM     32  O   UNL     1       1.860  14.648 135.470  0.00  0.00    +0.000 OA
ENDBRANCH  25  26
ENDBRANCH  24  25
ENDBRANCH  22  24
ENDBRANCH  14  17
ENDBRANCH   6  10
BRANCH   1  33
ATOM     33  N   UNL     1      -7.401   2.435 125.676  0.00  0.00    +0.000 N 
ATOM     34  C   UNL     1      -8.303   2.236 124.633  0.00  0.00    +0.000 C 
ATOM     35  O   UNL     1      -8.757   3.161 123.973  0.00  0.00    +0.000 OA
ATOM     36  H   UNL     1      -7.258   1.616 126.266  0.00  0.00    +0.000 HD
BRANCH  34  37
ATOM     37  C   UNL     1      -8.790   0.795 124.342  0.00  0.00    +0.000 C 
ATOM     38  N   UNL     1     -10.039   0.479 124.071  0.00  0.00    +0.000 NA
BRANCH  37  39
ATOM     39  C   UNL     1      -7.774  -0.307 124.344  0.00  0.00    +0.000 A 
ATOM     40  N   UNL     1      -7.383  -0.885 125.494  0.00  0.00    +0.000 NA
ATOM     41  S   UNL     1      -6.292  -2.092 125.110  0.00  0.00    +0.000 S 
ATOM     42  C   UNL     1      -6.330  -1.758 123.420  0.00  0.00    +0.000 A 
ATOM     43  N   UNL     1      -5.585  -2.419 122.515  0.00  0.00    +0.000 N 
ATOM     44  N   UNL     1      -7.168  -0.780 123.152  0.00  0.00    +0.000 NA
ATOM     45  H   UNL     1      -4.947  -3.168 122.760  0.00  0.00    +0.000 HD
ATOM     46  H   UNL     1      -5.638  -2.179 121.533  0.00  0.00    +0.000 HD
ENDBRANCH  37  39
BRANCH  38  47
ATOM     47  O   UNL     1     -10.947   1.551 124.108  0.00  0.00    +0.000 OA
ATOM     48  H   UNL     1     -10.432   2.274 124.521  0.00  0.00    +0.000 HD
ENDBRANCH  38  47
ENDBRANCH  34  37
ENDBRANCH   1  33
BRANCH   5  49
ATOM     49  C   UNL     1      -2.844   5.130 127.751  0.00  0.00    +0.000 C 
ATOM     50  OXT UNL     1      -2.535   6.309 127.857  0.00  0.00    +0.000 OA
BRANCH  49  51
ATOM     51  O   UNL     1      -2.001   4.288 127.117  0.00  0.00    +0.000 OA
ATOM     52  H   UNL     1      -2.152   4.166 126.160  0.00  0.00    +0.000 HD
ENDBRANCH  49  51
ENDBRANCH   5  49
TORSDOF 11
ENDMDL
MODEL 6
REMARK VINA RESULT:      -8.2      4.548      5.978
REMARK  Name = Ceftobiprole medocaril
REMARK  12 active torsions:
REMARK  status: ('A' for Active; 'I' for Inactive)
REMARK    1  A    between atoms: CA_2  and  N_3
REMARK    2  A    between atoms: C_4  and  C_6
REMARK    3  A    between atoms: C_6  and  C_9
REMARK    4  A    between atoms: N_7  and  O_8
REMARK    5  A    between atoms: CA_18  and  C_19
REMARK    6  A    between atoms: C_19  and  O_20
REMARK    7  A    between atoms: C_22  and  C_27
REMARK    8  A    between atoms: N_31  and  C_34
REMARK    9  A    between atoms: C_40  and  O_42
REMARK   10  A    between atoms: O_42  and  C_43
REMARK   11  A    between atoms: C_43  and  C_44
REMARK   12  A    between atoms: C_45  and  C_46
REMARK                            x       y       z     vdW  Elec       q    Type
REMARK                         _______ _______ _______ _____ _____    ______ ____
ROOT
ATOM      1  CA  UNL     1      -4.997  -1.713 134.155  0.00  0.00    +0.000 C 
ATOM      2  C   UNL     1      -4.403  -2.517 132.960  0.00  0.00    +0.000 C 
ATOM      3  O   UNL     1      -3.335  -2.903 132.571  0.00  0.00    +0.000 OA
ATOM      4  N   UNL     1      -5.653  -2.786 132.489  0.00  0.00    +0.000 N 
ATOM      5  CA  UNL     1      -6.085  -3.163 131.237  0.00  0.00    +0.000 C 
ATOM      6  C   UNL     1      -7.185  -2.572 130.694  0.00  0.00    +0.000 C 
ATOM      7  C   UNL     1      -7.963  -1.446 131.349  0.00  0.00    +0.000 C 
ATOM      8  S   UNL     1      -7.069  -0.482 132.565  0.00  0.00    +0.000 S 
ATOM      9  C   UNL     1      -6.358  -1.898 133.410  0.00  0.00    +0.000 C 
ENDROOT
BRANCH   6  10
ATOM     10  C   UNL     1      -7.744  -2.955 129.392  0.00  0.00    +0.000 C 
ATOM     11  C   UNL     1      -7.348  -2.479 128.200  0.00  0.00    +0.000 C 
ATOM     12  C   UNL     1      -6.277  -1.482 127.903  0.00  0.00    +0.000 C 
ATOM     13  C   UNL     1      -6.210  -1.451 126.388  0.00  0.00    +0.000 C 
ATOM     14  N   UNL     1      -7.372  -2.164 125.910  0.00  0.00    +0.000 N 
ATOM     15  C   UNL     1      -7.980  -2.905 126.914  0.00  0.00    +0.000 C 
ATOM     16  O   UNL     1      -8.896  -3.699 126.806  0.00  0.00    +0.000 OA
BRANCH  14  17
ATOM     17  C   UNL     1      -7.794  -2.192 124.496  0.00  0.00    +0.000 C 
ATOM     18  C   UNL     1      -6.794  -1.516 123.550  0.00  0.00    +0.000 C 
ATOM     19  C   UNL     1      -7.287  -0.070 123.466  0.00  0.00    +0.000 C 
ATOM     20  N   UNL     1      -8.730  -0.192 123.464  0.00  0.00    +0.000 N 
ATOM     21  C   UNL     1      -9.116  -1.419 124.200  0.00  0.00    +0.000 C 
ATOM     22  C   UNL     1      -9.633   0.640 122.792  0.00  0.00    +0.000 C 
ATOM     23  O   UNL     1     -10.839   0.410 122.768  0.00  0.00    +0.000 OA
BRANCH  22  24
ATOM     24  O   UNL     1      -9.077   1.743 122.160  0.00  0.00    +0.000 OA
BRANCH  24  25
ATOM     25  C   UNL     1      -8.583   2.840 123.022  0.00  0.00    +0.000 C 
BRANCH  25  26
ATOM     26  C   UNL     1      -7.300   3.484 122.488  0.00  0.00    +0.000 A 
ATOM     27  C   UNL     1      -6.165   3.906 123.043  0.00  0.00    +0.000 A 
ATOM     28  C   UNL     1      -5.629   3.950 124.446  0.00  0.00    +0.000 C 
ATOM     29  O   UNL     1      -5.304   4.438 122.082  0.00  0.00    +0.000 OA
ATOM     30  C   UNL     1      -6.033   4.299 120.917  0.00  0.00    +0.000 A 
ATOM     31  O   UNL     1      -5.616   4.637 119.816  0.00  0.00    +0.000 OA
ATOM     32  O   UNL     1      -7.281   3.739 121.116  0.00  0.00    +0.000 OA
ENDBRANCH  25  26
ENDBRANCH  24  25
ENDBRANCH  22  24
ENDBRANCH  14  17
ENDBRANCH   6  10
BRANCH   1  33
ATOM     33  N   UNL     1      -4.483  -0.351 134.489  0.00  0.00    +0.000 N 
ATOM     34  C   UNL     1      -4.797   0.401 135.619  0.00  0.00    +0.000 C 
ATOM     35  O   UNL     1      -5.613   0.027 136.450  0.00  0.00    +0.000 OA
ATOM     36  H   UNL     1      -3.948   0.157 133.785  0.00  0.00    +0.000 HD
BRANCH  34  37
ATOM     37  C   UNL     1      -4.129   1.788 135.792  0.00  0.00    +0.000 C 
ATOM     38  N   UNL     1      -3.529   2.185 136.896  0.00  0.00    +0.000 NA
BRANCH  37  39
ATOM     39  C   UNL     1      -4.144   2.730 134.626  0.00  0.00    +0.000 A 
ATOM     40  N   UNL     1      -3.464   3.890 134.666  0.00  0.00    +0.000 NA
ATOM     41  S   UNL     1      -3.667   4.647 133.190  0.00  0.00    +0.000 S 
ATOM     42  C   UNL     1      -4.712   3.427 132.569  0.00  0.00    +0.000 A 
ATOM     43  N   UNL     1      -5.279   3.484 131.349  0.00  0.00    +0.000 N 
ATOM     44  N   UNL     1      -4.878   2.458 133.444  0.00  0.00    +0.000 NA
ATOM     45  H   UNL     1      -5.128   4.249 130.701  0.00  0.00    +0.000 HD
ATOM     46  H   UNL     1      -5.893   2.743 131.034  0.00  0.00    +0.000 HD
ENDBRANCH  37  39
BRANCH  38  47
ATOM     47  O   UNL     1      -3.571   1.267 137.960  0.00  0.00    +0.000 OA
ATOM     48  H   UNL     1      -3.033   0.516 137.636  0.00  0.00    +0.000 HD
ENDBRANCH  38  47
ENDBRANCH  34  37
ENDBRANCH   1  33
BRANCH   5  49
ATOM     49  C   UNL     1      -5.365  -4.263 130.458  0.00  0.00    +0.000 C 
ATOM     50  OXT UNL     1      -5.619  -5.456 130.556  0.00  0.00    +0.000 OA
BRANCH  49  51
ATOM     51  O   UNL     1      -4.316  -3.878 129.703  0.00  0.00    +0.000 OA
ATOM     52  H   UNL     1      -4.530  -3.455 128.849  0.00  0.00    +0.000 HD
ENDBRANCH  49  51
ENDBRANCH   5  49
TORSDOF 11
ENDMDL
MODEL 7
REMARK VINA RESULT:      -8.1      6.896     12.984
REMARK  Name = Ceftobiprole medocaril
REMARK  12 active torsions:
REMARK  status: ('A' for Active; 'I' for Inactive)
REMARK    1  A    between atoms: CA_2  and  N_3
REMARK    2  A    between atoms: C_4  and  C_6
REMARK    3  A    between atoms: C_6  and  C_9
REMARK    4  A    between atoms: N_7  and  O_8
REMARK    5  A    between atoms: CA_18  and  C_19
REMARK    6  A    between atoms: C_19  and  O_20
REMARK    7  A    between atoms: C_22  and  C_27
REMARK    8  A    between atoms: N_31  and  C_34
REMARK    9  A    between atoms: C_40  and  O_42
REMARK   10  A    between atoms: O_42  and  C_43
REMARK   11  A    between atoms: C_43  and  C_44
REMARK   12  A    between atoms: C_45  and  C_46
REMARK                            x       y       z     vdW  Elec       q    Type
REMARK                         _______ _______ _______ _____ _____    ______ ____
ROOT
ATOM      1  CA  UNL     1      -6.597   4.919 130.698  0.00  0.00    +0.000 C 
ATOM      2  C   UNL     1      -5.938   4.258 131.946  0.00  0.00    +0.000 C 
ATOM      3  O   UNL     1      -6.229   3.492 132.824  0.00  0.00    +0.000 OA
ATOM      4  N   UNL     1      -4.729   4.797 131.623  0.00  0.00    +0.000 N 
ATOM      5  CA  UNL     1      -3.609   5.027 132.390  0.00  0.00    +0.000 C 
ATOM      6  C   UNL     1      -2.949   6.214 132.287  0.00  0.00    +0.000 C 
ATOM      7  C   UNL     1      -3.400   7.370 131.414  0.00  0.00    +0.000 C 
ATOM      8  S   UNL     1      -5.138   7.395 130.984  0.00  0.00    +0.000 S 
ATOM      9  C   UNL     1      -5.226   5.654 130.549  0.00  0.00    +0.000 C 
ENDROOT
BRANCH   6  10
ATOM     10  C   UNL     1      -1.717   6.516 133.025  0.00  0.00    +0.000 C 
ATOM     11  C   UNL     1      -1.651   7.104 134.231  0.00  0.00    +0.000 C 
ATOM     12  C   UNL     1      -2.769   7.578 135.099  0.00  0.00    +0.000 C 
ATOM     13  C   UNL     1      -2.082   8.025 136.375  0.00  0.00    +0.000 C 
ATOM     14  N   UNL     1      -0.667   8.063 136.089  0.00  0.00    +0.000 N 
ATOM     15  C   UNL     1      -0.354   7.396 134.912  0.00  0.00    +0.000 C 
ATOM     16  O   UNL     1       0.751   7.149 134.466  0.00  0.00    +0.000 OA
BRANCH  14  17
ATOM     17  C   UNL     1       0.339   8.642 137.000  0.00  0.00    +0.000 C 
ATOM     18  C   UNL     1      -0.235   9.704 137.945  0.00  0.00    +0.000 C 
ATOM     19  C   UNL     1      -0.025  11.020 137.192  0.00  0.00    +0.000 C 
ATOM     20  N   UNL     1       1.263  10.852 136.550  0.00  0.00    +0.000 N 
ATOM     21  C   UNL     1       1.493   9.411 136.286  0.00  0.00    +0.000 C 
ATOM     22  C   UNL     1       2.206  11.857 136.306  0.00  0.00    +0.000 C 
ATOM     23  O   UNL     1       3.315  11.612 135.839  0.00  0.00    +0.000 OA
BRANCH  22  24
ATOM     24  O   UNL     1       1.804  13.147 136.621  0.00  0.00    +0.000 OA
BRANCH  24  25
ATOM     25  C   UNL     1       1.745  14.127 135.514  0.00  0.00    +0.000 C 
BRANCH  25  26
ATOM     26  C   UNL     1       0.926  13.628 134.320  0.00  0.00    +0.000 A 
ATOM     27  C   UNL     1      -0.366  13.376 134.112  0.00  0.00    +0.000 A 
ATOM     28  C   UNL     1      -1.606  13.458 134.955  0.00  0.00    +0.000 C 
ATOM     29  O   UNL     1      -0.583  12.918 132.811  0.00  0.00    +0.000 OA
ATOM     30  C   UNL     1       0.690  12.916 132.277  0.00  0.00    +0.000 A 
ATOM     31  O   UNL     1       0.936  12.588 131.122  0.00  0.00    +0.000 OA
ATOM     32  O   UNL     1       1.661  13.321 133.174  0.00  0.00    +0.000 OA
ENDBRANCH  25  26
ENDBRANCH  24  25
ENDBRANCH  22  24
ENDBRANCH  14  17
ENDBRANCH   6  10
BRANCH   1  33
ATOM     33  N   UNL     1      -7.871   5.689 130.826  0.00  0.00    +0.000 N 
ATOM     34  C   UNL     1      -9.163   5.175 130.741  0.00  0.00    +0.000 C 
ATOM     35  O   UNL     1      -9.387   4.002 130.476  0.00  0.00    +0.000 OA
ATOM     36  H   UNL     1      -7.827   6.707 130.853  0.00  0.00    +0.000 HD
BRANCH  34  37
ATOM     37  C   UNL     1     -10.357   6.143 130.933  0.00  0.00    +0.000 C 
ATOM     38  N   UNL     1     -11.055   6.243 132.045  0.00  0.00    +0.000 NA
BRANCH  37  39
ATOM     39  C   UNL     1     -10.728   7.041 129.791  0.00  0.00    +0.000 A 
ATOM     40  N   UNL     1     -10.031   7.022 128.641  0.00  0.00    +0.000 NA
ATOM     41  S   UNL     1     -10.754   8.105 127.593  0.00  0.00    +0.000 S 
ATOM     42  C   UNL     1     -11.937   8.613 128.736  0.00  0.00    +0.000 A 
ATOM     43  N   UNL     1     -12.857   9.562 128.483  0.00  0.00    +0.000 N 
ATOM     44  N   UNL     1     -11.808   7.958 129.871  0.00  0.00    +0.000 NA
ATOM     45  H   UNL     1     -12.926  10.047 127.595  0.00  0.00    +0.000 HD
ATOM     46  H   UNL     1     -13.527   9.830 129.193  0.00  0.00    +0.000 HD
ENDBRANCH  37  39
BRANCH  38  47
ATOM     47  O   UNL     1     -10.674   5.358 133.069  0.00  0.00    +0.000 OA
ATOM     48  H   UNL     1     -10.365   5.952 133.783  0.00  0.00    +0.000 HD
ENDBRANCH  38  47
ENDBRANCH  34  37
ENDBRANCH   1  33
BRANCH   5  49
ATOM     49  C   UNL     1      -3.073   3.953 133.336  0.00  0.00    +0.000 C 
ATOM     50  OXT UNL     1      -2.269   3.089 133.013  0.00  0.00    +0.000 OA
BRANCH  49  51
ATOM     51  O   UNL     1      -3.619   3.910 134.569  0.00  0.00    +0.000 OA
ATOM     52  H   UNL     1      -4.569   3.685 134.613  0.00  0.00    +0.000 HD
ENDBRANCH  49  51
ENDBRANCH   5  49
TORSDOF 11
ENDMDL
MODEL 8
REMARK VINA RESULT:      -8.1      6.215     13.758
REMARK  Name = Ceftobiprole medocaril
REMARK  12 active torsions:
REMARK  status: ('A' for Active; 'I' for Inactive)
REMARK    1  A    between atoms: CA_2  and  N_3
REMARK    2  A    between atoms: C_4  and  C_6
REMARK    3  A    between atoms: C_6  and  C_9
REMARK    4  A    between atoms: N_7  and  O_8
REMARK    5  A    between atoms: CA_18  and  C_19
REMARK    6  A    between atoms: C_19  and  O_20
REMARK    7  A    between atoms: C_22  and  C_27
REMARK    8  A    between atoms: N_31  and  C_34
REMARK    9  A    between atoms: C_40  and  O_42
REMARK   10  A    between atoms: O_42  and  C_43
REMARK   11  A    between atoms: C_43  and  C_44
REMARK   12  A    between atoms: C_45  and  C_46
REMARK                            x       y       z     vdW  Elec       q    Type
REMARK                         _______ _______ _______ _____ _____    ______ ____
ROOT
ATOM      1  CA  UNL     1      -8.246   2.921 128.307  0.00  0.00    +0.000 C 
ATOM      2  C   UNL     1      -8.333   4.419 128.729  0.00  0.00    +0.000 C 
ATOM      3  O   UNL     1      -8.678   5.471 128.264  0.00  0.00    +0.000 OA
ATOM      4  N   UNL     1      -7.958   4.108 130.001  0.00  0.00    +0.000 N 
ATOM      5  CA  UNL     1      -7.421   4.887 131.001  0.00  0.00    +0.000 C 
ATOM      6  C   UNL     1      -6.372   4.423 131.734  0.00  0.00    +0.000 C 
ATOM      7  C   UNL     1      -5.677   3.097 131.487  0.00  0.00    +0.000 C 
ATOM      8  S   UNL     1      -5.851   2.417 129.840  0.00  0.00    +0.000 S 
ATOM      9  C   UNL     1      -7.618   2.714 129.723  0.00  0.00    +0.000 C 
ENDROOT
BRANCH   6  10
ATOM     10  C   UNL     1      -5.780   5.165 132.853  0.00  0.00    +0.000 C 
ATOM     11  C   UNL     1      -4.723   5.989 132.773  0.00  0.00    +0.000 C 
ATOM     12  C   UNL     1      -3.911   6.351 131.573  0.00  0.00    +0.000 C 
ATOM     13  C   UNL     1      -2.951   7.409 132.082  0.00  0.00    +0.000 C 
ATOM     14  N   UNL     1      -3.048   7.394 133.523  0.00  0.00    +0.000 N 
ATOM     15  C   UNL     1      -4.165   6.698 133.964  0.00  0.00    +0.000 C 
ATOM     16  O   UNL     1      -4.587   6.609 135.102  0.00  0.00    +0.000 OA
BRANCH  14  17
ATOM     17  C   UNL     1      -2.130   8.130 134.415  0.00  0.00    +0.000 C 
ATOM     18  C   UNL     1      -2.706   9.461 134.914  0.00  0.00    +0.000 C 
ATOM     19  C   UNL     1      -2.216  10.484 133.887  0.00  0.00    +0.000 C 
ATOM     20  N   UNL     1      -0.875  10.039 133.564  0.00  0.00    +0.000 N 
ATOM     21  C   UNL     1      -0.792   8.570 133.745  0.00  0.00    +0.000 C 
ATOM     22  C   UNL     1       0.214  10.855 133.237  0.00  0.00    +0.000 C 
ATOM     23  O   UNL     1       1.342  10.401 133.067  0.00  0.00    +0.000 OA
BRANCH  22  24
ATOM     24  O   UNL     1      -0.066  12.208 133.112  0.00  0.00    +0.000 OA
BRANCH  24  25
ATOM     25  C   UNL     1       1.036  13.156 133.384  0.00  0.00    +0.000 C 
BRANCH  25  26
ATOM     26  C   UNL     1       0.861  13.910 134.706  0.00  0.00    +0.000 A 
ATOM     27  C   UNL     1      -0.185  14.236 135.465  0.00  0.00    +0.000 A 
ATOM     28  C   UNL     1      -1.668  14.018 135.367  0.00  0.00    +0.000 C 
ATOM     29  O   UNL     1       0.218  14.954 136.591  0.00  0.00    +0.000 OA
ATOM     30  C   UNL     1       1.587  15.029 136.426  0.00  0.00    +0.000 A 
ATOM     31  O   UNL     1       2.334  15.579 137.226  0.00  0.00    +0.000 OA
ATOM     32  O   UNL     1       2.032  14.423 135.266  0.00  0.00    +0.000 OA
ENDBRANCH  25  26
ENDBRANCH  24  25
ENDBRANCH  22  24
ENDBRANCH  14  17
ENDBRANCH   6  10
BRANCH   1  33
ATOM     33  N   UNL     1      -7.507   2.517 127.074  0.00  0.00    +0.000 N 
ATOM     34  C   UNL     1      -7.865   2.807 125.759  0.00  0.00    +0.000 C 
ATOM     35  O   UNL     1      -8.902   3.389 125.475  0.00  0.00    +0.000 OA
ATOM     36  H   UNL     1      -6.731   1.862 127.160  0.00  0.00    +0.000 HD
BRANCH  34  37
ATOM     37  C   UNL     1      -6.940   2.319 124.617  0.00  0.00    +0.000 C 
ATOM     38  N   UNL     1      -6.283   3.122 123.805  0.00  0.00    +0.000 NA
BRANCH  37  39
ATOM     39  C   UNL     1      -6.760   0.842 124.436  0.00  0.00    +0.000 A 
ATOM     40  N   UNL     1      -7.117   0.237 123.288  0.00  0.00    +0.000 NA
ATOM     41  S   UNL     1      -6.729  -1.383 123.428  0.00  0.00    +0.000 S 
ATOM     42  C   UNL     1      -6.155  -1.234 125.045  0.00  0.00    +0.000 A 
ATOM     43  N   UNL     1      -5.705  -2.272 125.773  0.00  0.00    +0.000 N 
ATOM     44  N   UNL     1      -6.227   0.014 125.457  0.00  0.00    +0.000 NA
ATOM     45  H   UNL     1      -5.665  -3.222 125.422  0.00  0.00    +0.000 HD
ATOM     46  H   UNL     1      -5.385  -2.132 126.723  0.00  0.00    +0.000 HD
ENDBRANCH  37  39
BRANCH  38  47
ATOM     47  O   UNL     1      -6.512   4.493 124.010  0.00  0.00    +0.000 OA
ATOM     48  H   UNL     1      -7.287   4.510 124.608  0.00  0.00    +0.000 HD
ENDBRANCH  38  47
ENDBRANCH  34  37
ENDBRANCH   1  33
BRANCH   5  49
ATOM     49  C   UNL     1      -8.010   6.260 131.325  0.00  0.00    +0.000 C 
ATOM     50  OXT UNL     1      -8.934   6.447 132.105  0.00  0.00    +0.000 OA
BRANCH  49  51
ATOM     51  O   UNL     1      -7.537   7.302 130.610  0.00  0.00    +0.000 OA
ATOM     52  H   UNL     1      -7.563   7.206 129.638  0.00  0.00    +0.000 HD
ENDBRANCH  49  51
ENDBRANCH   5  49
TORSDOF 11
ENDMDL
MODEL 9
REMARK VINA RESULT:      -8.0      3.631      5.383
REMARK  Name = Ceftobiprole medocaril
REMARK  12 active torsions:
REMARK  status: ('A' for Active; 'I' for Inactive)
REMARK    1  A    between atoms: CA_2  and  N_3
REMARK    2  A    between atoms: C_4  and  C_6
REMARK    3  A    between atoms: C_6  and  C_9
REMARK    4  A    between atoms: N_7  and  O_8
REMARK    5  A    between atoms: CA_18  and  C_19
REMARK    6  A    between atoms: C_19  and  O_20
REMARK    7  A    between atoms: C_22  and  C_27
REMARK    8  A    between atoms: N_31  and  C_34
REMARK    9  A    between atoms: C_40  and  O_42
REMARK   10  A    between atoms: O_42  and  C_43
REMARK   11  A    between atoms: C_43  and  C_44
REMARK   12  A    between atoms: C_45  and  C_46
REMARK                            x       y       z     vdW  Elec       q    Type
REMARK                         _______ _______ _______ _____ _____    ______ ____
ROOT
ATOM      1  CA  UNL     1      -2.438   5.372 132.993  0.00  0.00    +0.000 C 
ATOM      2  C   UNL     1      -2.895   6.428 131.942  0.00  0.00    +0.000 C 
ATOM      3  O   UNL     1      -3.209   7.586 131.900  0.00  0.00    +0.000 OA
ATOM      4  N   UNL     1      -2.686   5.543 130.927  0.00  0.00    +0.000 N 
ATOM      5  CA  UNL     1      -3.176   5.511 129.641  0.00  0.00    +0.000 C 
ATOM      6  C   UNL     1      -3.634   4.340 129.118  0.00  0.00    +0.000 C 
ATOM      7  C   UNL     1      -3.712   3.034 129.886  0.00  0.00    +0.000 C 
ATOM      8  S   UNL     1      -3.769   3.177 131.670  0.00  0.00    +0.000 S 
ATOM      9  C   UNL     1      -2.444   4.383 131.782  0.00  0.00    +0.000 C 
ENDROOT
BRANCH   6  10
ATOM     10  C   UNL     1      -4.118   4.208 127.739  0.00  0.00    +0.000 C 
ATOM     11  C   UNL     1      -5.342   3.791 127.376  0.00  0.00    +0.000 C 
ATOM     12  C   UNL     1      -6.481   3.373 128.246  0.00  0.00    +0.000 C 
ATOM     13  C   UNL     1      -7.622   3.139 127.275  0.00  0.00    +0.000 C 
ATOM     14  N   UNL     1      -7.043   3.144 125.951  0.00  0.00    +0.000 N 
ATOM     15  C   UNL     1      -5.757   3.666 125.946  0.00  0.00    +0.000 C 
ATOM     16  O   UNL     1      -5.056   3.914 124.982  0.00  0.00    +0.000 OA
BRANCH  14  17
ATOM     17  C   UNL     1      -7.777   2.750 124.733  0.00  0.00    +0.000 C 
ATOM     18  C   UNL     1      -9.246   2.399 124.995  0.00  0.00    +0.000 C 
ATOM     19  C   UNL     1      -9.227   0.888 125.238  0.00  0.00    +0.000 C 
ATOM     20  N   UNL     1      -8.240   0.397 124.298  0.00  0.00    +0.000 N 
ATOM     21  C   UNL     1      -7.238   1.459 124.043  0.00  0.00    +0.000 C 
ATOM     22  C   UNL     1      -8.264  -0.838 123.639  0.00  0.00    +0.000 C 
ATOM     23  O   UNL     1      -7.435  -1.138 122.785  0.00  0.00    +0.000 OA
BRANCH  22  24
ATOM     24  O   UNL     1      -9.284  -1.700 124.016  0.00  0.00    +0.000 OA
BRANCH  24  25
ATOM     25  C   UNL     1      -8.890  -3.018 124.562  0.00  0.00    +0.000 C 
BRANCH  25  26
ATOM     26  C   UNL     1      -8.255  -2.920 125.953  0.00  0.00    +0.000 A 
ATOM     27  C   UNL     1      -7.060  -2.550 126.412  0.00  0.00    +0.000 A 
ATOM     28  C   UNL     1      -5.789  -2.067 125.775  0.00  0.00    +0.000 C 
ATOM     29  O   UNL     1      -7.001  -2.661 127.802  0.00  0.00    +0.000 OA
ATOM     30  C   UNL     1      -8.259  -3.134 128.119  0.00  0.00    +0.000 A 
ATOM     31  O   UNL     1      -8.627  -3.354 129.266  0.00  0.00    +0.000 OA
ATOM     32  O   UNL     1      -9.063  -3.335 127.012  0.00  0.00    +0.000 OA
ENDBRANCH  25  26
ENDBRANCH  24  25
ENDBRANCH  22  24
ENDBRANCH  14  17
ENDBRANCH   6  10
BRANCH   1  33
ATOM     33  N   UNL     1      -3.262   5.100 134.209  0.00  0.00    +0.000 N 
ATOM     34  C   UNL     1      -3.237   5.815 135.405  0.00  0.00    +0.000 C 
ATOM     35  O   UNL     1      -2.455   6.734 135.604  0.00  0.00    +0.000 OA
ATOM     36  H   UNL     1      -3.813   4.244 134.246  0.00  0.00    +0.000 HD
BRANCH  34  37
ATOM     37  C   UNL     1      -4.199   5.387 136.541  0.00  0.00    +0.000 C 
ATOM     38  N   UNL     1      -3.803   4.887 137.694  0.00  0.00    +0.000 NA
BRANCH  37  39
ATOM     39  C   UNL     1      -5.671   5.574 136.329  0.00  0.00    +0.000 A 
ATOM     40  N   UNL     1      -6.370   6.453 137.069  0.00  0.00    +0.000 NA
ATOM     41  S   UNL     1      -7.950   6.429 136.526  0.00  0.00    +0.000 S 
ATOM     42  C   UNL     1      -7.661   5.194 135.360  0.00  0.00    +0.000 A 
ATOM     43  N   UNL     1      -8.621   4.678 134.570  0.00  0.00    +0.000 N 
ATOM     44  N   UNL     1      -6.396   4.832 135.361  0.00  0.00    +0.000 NA
ATOM     45  H   UNL     1      -9.587   4.982 134.598  0.00  0.00    +0.000 HD
ATOM     46  H   UNL     1      -8.400   3.947 133.905  0.00  0.00    +0.000 HD
ENDBRANCH  37  39
BRANCH  38  47
ATOM     47  O   UNL     1      -2.414   4.713 137.822  0.00  0.00    +0.000 OA
ATOM     48  H   UNL     1      -2.062   5.035 136.967  0.00  0.00    +0.000 HD
ENDBRANCH  38  47
ENDBRANCH  34  37
ENDBRANCH   1  33
BRANCH   5  49
ATOM     49  C   UNL     1      -3.184   6.770 128.774  0.00  0.00    +0.000 C 
ATOM     50  OXT UNL     1      -2.250   7.129 128.071  0.00  0.00    +0.000 OA
BRANCH  49  51
ATOM     51  O   UNL     1      -4.259   7.577 128.894  0.00  0.00    +0.000 OA
ATOM     52  H   UNL     1      -5.091   7.148 129.176  0.00  0.00    +0.000 HD
ENDBRANCH  49  51
ENDBRANCH   5  49
TORSDOF 11
ENDMDL
