MODEL 1
REMARK VINA RESULT:      -8.3      0.000      0.000
REMARK  Name = Ceftolozane
REMARK  18 active torsions:
REMARK  status: ('A' for Active; 'I' for Inactive)
REMARK    1  A    between atoms: C_1  and  N_2
REMARK    2  A    between atoms: C_3  and  N_4
REMARK    3  A    between atoms: C_5  and  N_6
REMARK    4  A    between atoms: N_9  and  C_10
REMARK    5  A    between atoms: C_10  and  C_11
REMARK    6  A    between atoms: C_11  and  N_12
REMARK    7  A    between atoms: N_14  and  C_15
REMARK    8  A    between atoms: C_15  and  C_16
REMARK    9  A    between atoms: CA_17  and  C_43
REMARK   10  A    between atoms: CA_22  and  N_23
REMARK   11  A    between atoms: C_24  and  C_26
REMARK   12  A    between atoms: C_26  and  C_35
REMARK   13  A    between atoms: N_27  and  O_28
REMARK   14  A    between atoms: O_28  and  C_29
REMARK   15  A    between atoms: C_29  and  C_30
REMARK   16  A    between atoms: C_29  and  C_31
REMARK   17  A    between atoms: C_29  and  C_32
REMARK   18  A    between atoms: C_32  and  O_33
REMARK                            x       y       z     vdW  Elec       q    Type
REMARK                         _______ _______ _______ _____ _____    ______ ____
ROOT
ATOM      1  C   UNL     1      -5.816   2.579 131.607  0.00  0.00    +0.000 C 
ATOM      2  CA  UNL     1      -6.397   1.343 131.663  0.00  0.00    +0.000 C 
ATOM      3  N   UNL     1      -6.203   0.433 130.626  0.00  0.00    +0.000 N 
ATOM      4  C   UNL     1      -5.263   0.566 129.527  0.00  0.00    +0.000 C 
ATOM      5  S   UNL     1      -5.213   2.251 128.962  0.00  0.00    +0.000 S 
ATOM      6  C   UNL     1      -4.857   3.004 130.521  0.00  0.00    +0.000 C 
ATOM      7  CA  UNL     1      -6.087  -0.508 128.759  0.00  0.00    +0.000 C 
ATOM      8  C   UNL     1      -7.061  -0.401 129.976  0.00  0.00    +0.000 C 
ATOM      9  O   UNL     1      -8.196  -0.802 130.158  0.00  0.00    +0.000 OA
ENDROOT
BRANCH   7  10
ATOM     10  N   UNL     1      -6.679  -0.309 127.370  0.00  0.00    +0.000 N 
ATOM     11  C   UNL     1      -7.747   0.484 126.984  0.00  0.00    +0.000 C 
ATOM     12  O   UNL     1      -8.454   1.123 127.754  0.00  0.00    +0.000 OA
ATOM     13  H   UNL     1      -6.096  -0.530 126.576  0.00  0.00    +0.000 HD
BRANCH  11  14
ATOM     14  C   UNL     1      -8.106   0.658 125.511  0.00  0.00    +0.000 C 
ATOM     15  N   UNL     1      -8.836  -0.207 124.839  0.00  0.00    +0.000 NA
BRANCH  14  16
ATOM     16  C   UNL     1      -7.527   1.873 124.826  0.00  0.00    +0.000 A 
ATOM     17  N   UNL     1      -7.055   1.827 123.570  0.00  0.00    +0.000 NA
ATOM     18  S   UNL     1      -6.567   3.377 123.157  0.00  0.00    +0.000 S 
ATOM     19  C   UNL     1      -6.992   4.065 124.677  0.00  0.00    +0.000 A 
ATOM     20  N   UNL     1      -6.828   5.364 124.990  0.00  0.00    +0.000 N 
ATOM     21  N   UNL     1      -7.488   3.145 125.470  0.00  0.00    +0.000 NA
ATOM     22  H   UNL     1      -6.380   6.032 124.374  0.00  0.00    +0.000 HD
ATOM     23  H   UNL     1      -7.079   5.708 125.911  0.00  0.00    +0.000 HD
ENDBRANCH  14  16
BRANCH  15  24
ATOM     24  O   UNL     1      -9.246  -1.336 125.607  0.00  0.00    +0.000 OA
BRANCH  24  25
ATOM     25  C   UNL     1      -8.681  -2.569 125.134  0.00  0.00    +0.000 C 
ATOM     26  C   UNL     1      -8.622  -3.598 126.265  0.00  0.00    +0.000 C 
ATOM     27  C   UNL     1      -9.513  -3.104 123.964  0.00  0.00    +0.000 C 
BRANCH  25  28
ATOM     28  C   UNL     1      -7.231  -2.388 124.601  0.00  0.00    +0.000 C 
ATOM     29  O   UNL     1      -6.240  -2.505 125.315  0.00  0.00    +0.000 OA
BRANCH  28  30
ATOM     30  O   UNL     1      -7.071  -2.113 123.290  0.00  0.00    +0.000 OA
ATOM     31  H   UNL     1      -7.159  -1.199 122.986  0.00  0.00    +0.000 HD
ENDBRANCH  28  30
ENDBRANCH  25  28
ENDBRANCH  24  25
ENDBRANCH  15  24
ENDBRANCH  11  14
ENDBRANCH   7  10
BRANCH   2  32
ATOM     32  C   UNL     1      -7.305   0.891 132.917  0.00  0.00    +0.000 C 
ATOM     33  O   UNL     1      -8.543   1.048 132.768  0.00  0.00    +0.000 OA
ATOM     34  OXT UNL     1      -6.679   0.330 133.860  0.00  0.00    +0.000 OA
ENDBRANCH   2  32
BRANCH   1  35
ATOM     35  C   UNL     1      -6.047   3.710 132.593  0.00  0.00    +0.000 C 
BRANCH  35  41
ATOM     36  C   UNL     1      -8.869   3.987 134.167  0.00  0.00    +0.000 C 
ATOM     37  N   UNL     1      -8.433   4.662 132.966  0.00  0.00    +0.000 N 
ATOM     38  C   UNL     1      -9.267   5.570 132.321  0.00  0.00    +0.000 A 
ATOM     39  C   UNL     1      -8.569   6.230 131.239  0.00  0.00    +0.000 A 
ATOM     40  C   UNL     1      -7.272   5.582 131.263  0.00  0.00    +0.000 A 
ATOM     41  N   UNL     1      -7.235   4.588 132.305  0.00  0.00    +0.000 N 
BRANCH  39  42
ATOM     42  N   UNL     1      -9.028   7.249 130.386  0.00  0.00    +0.000 N 
ATOM     43  C   UNL     1     -10.059   7.063 129.489  0.00  0.00    +0.000 C 
ATOM     44  O   UNL     1     -10.683   6.022 129.312  0.00  0.00    +0.000 OA
ATOM     45  N   UNL     1     -10.409   8.121 128.706  0.00  0.00    +0.000 N 
ATOM     46  H   UNL     1      -8.603   8.162 130.465  0.00  0.00    +0.000 HD
ATOM     47  H   UNL     1     -10.001   9.036 128.811  0.00  0.00    +0.000 HD
BRANCH  45  48
ATOM     48  C   UNL     1     -11.515   7.895 127.769  0.00  0.00    +0.000 C 
BRANCH  48  49
ATOM     49  C   UNL     1     -11.067   7.653 126.335  0.00  0.00    +0.000 C 
BRANCH  49  50
ATOM     50  N   UNL     1     -10.262   6.440 126.210  0.00  0.00    +0.000 NA
ATOM     51  H   UNL     1      -9.752   6.439 125.327  0.00  0.00    +0.000 HD
ATOM     52  H   UNL     1     -10.874   5.625 126.187  0.00  0.00    +0.000 HD
ENDBRANCH  49  50
ENDBRANCH  48  49
ENDBRANCH  45  48
ENDBRANCH  39  42
BRANCH  38  53
ATOM     53  N   UNL     1     -10.552   5.725 132.721  0.00  0.00    +0.000 N 
ATOM     54  H   UNL     1     -10.954   6.388 133.362  0.00  0.00    +0.000 HD
ATOM     55  H   UNL     1     -11.294   5.186 132.269  0.00  0.00    +0.000 HD
ENDBRANCH  38  53
ENDBRANCH  35  41
ENDBRANCH   1  35
TORSDOF 15
ENDMDL
MODEL 2
REMARK VINA RESULT:      -8.3      3.011      7.606
REMARK  Name = Ceftolozane
REMARK  18 active torsions:
REMARK  status: ('A' for Active; 'I' for Inactive)
REMARK    1  A    between atoms: C_1  and  N_2
REMARK    2  A    between atoms: C_3  and  N_4
REMARK    3  A    between atoms: C_5  and  N_6
REMARK    4  A    between atoms: N_9  and  C_10
REMARK    5  A    between atoms: C_10  and  C_11
REMARK    6  A    between atoms: C_11  and  N_12
REMARK    7  A    between atoms: N_14  and  C_15
REMARK    8  A    between atoms: C_15  and  C_16
REMARK    9  A    between atoms: CA_17  and  C_43
REMARK   10  A    between atoms: CA_22  and  N_23
REMARK   11  A    between atoms: C_24  and  C_26
REMARK   12  A    between atoms: C_26  and  C_35
REMARK   13  A    between atoms: N_27  and  O_28
REMARK   14  A    between atoms: O_28  and  C_29
REMARK   15  A    between atoms: C_29  and  C_30
REMARK   16  A    between atoms: C_29  and  C_31
REMARK   17  A    between atoms: C_29  and  C_32
REMARK   18  A    between atoms: C_32  and  O_33
REMARK                            x       y       z     vdW  Elec       q    Type
REMARK                         _______ _______ _______ _____ _____    ______ ____
ROOT
ATOM      1  C   UNL     1      -7.201   0.153 132.822  0.00  0.00    +0.000 C 
ATOM      2  CA  UNL     1      -6.783   1.412 133.151  0.00  0.00    +0.000 C 
ATOM      3  N   UNL     1      -7.655   2.493 133.026  0.00  0.00    +0.000 N 
ATOM      4  C   UNL     1      -9.080   2.423 132.756  0.00  0.00    +0.000 C 
ATOM      5  S   UNL     1      -9.419   1.144 131.569  0.00  0.00    +0.000 S 
ATOM      6  C   UNL     1      -8.619  -0.180 132.426  0.00  0.00    +0.000 C 
ATOM      7  CA  UNL     1      -9.018   3.916 132.323  0.00  0.00    +0.000 C 
ATOM      8  C   UNL     1      -7.479   3.749 132.531  0.00  0.00    +0.000 C 
ATOM      9  O   UNL     1      -6.527   4.440 132.217  0.00  0.00    +0.000 OA
ENDROOT
BRANCH   7  10
ATOM     10  N   UNL     1      -9.488   4.442 130.972  0.00  0.00    +0.000 N 
ATOM     11  C   UNL     1      -9.483   5.742 130.494  0.00  0.00    +0.000 C 
ATOM     12  O   UNL     1      -9.149   6.722 131.148  0.00  0.00    +0.000 OA
ATOM     13  H   UNL     1      -9.549   3.783 130.209  0.00  0.00    +0.000 HD
BRANCH  11  14
ATOM     14  C   UNL     1      -9.870   6.051 129.051  0.00  0.00    +0.000 C 
ATOM     15  N   UNL     1      -9.130   5.714 128.017  0.00  0.00    +0.000 NA
BRANCH  14  16
ATOM     16  C   UNL     1     -11.152   6.826 128.859  0.00  0.00    +0.000 A 
ATOM     17  N   UNL     1     -12.312   6.223 128.556  0.00  0.00    +0.000 NA
ATOM     18  S   UNL     1     -13.497   7.409 128.493  0.00  0.00    +0.000 S 
ATOM     19  C   UNL     1     -12.420   8.699 128.866  0.00  0.00    +0.000 A 
ATOM     20  N   UNL     1     -12.793   9.989 128.965  0.00  0.00    +0.000 N 
ATOM     21  N   UNL     1     -11.201   8.241 129.031  0.00  0.00    +0.000 NA
ATOM     22  H   UNL     1     -13.732  10.312 128.765  0.00  0.00    +0.000 HD
ATOM     23  H   UNL     1     -12.108  10.709 129.167  0.00  0.00    +0.000 HD
ENDBRANCH  14  16
BRANCH  15  24
ATOM     24  O   UNL     1      -7.917   5.051 128.367  0.00  0.00    +0.000 OA
BRANCH  24  25
ATOM     25  C   UNL     1      -7.476   4.123 127.363  0.00  0.00    +0.000 C 
ATOM     26  C   UNL     1      -5.948   4.074 127.314  0.00  0.00    +0.000 C 
ATOM     27  C   UNL     1      -8.049   2.732 127.656  0.00  0.00    +0.000 C 
BRANCH  25  28
ATOM     28  C   UNL     1      -7.969   4.515 125.940  0.00  0.00    +0.000 C 
ATOM     29  O   UNL     1      -8.805   3.863 125.323  0.00  0.00    +0.000 OA
BRANCH  28  30
ATOM     30  O   UNL     1      -7.463   5.635 125.385  0.00  0.00    +0.000 OA
ATOM     31  H   UNL     1      -7.814   5.941 124.537  0.00  0.00    +0.000 HD
ENDBRANCH  28  30
ENDBRANCH  25  28
ENDBRANCH  24  25
ENDBRANCH  15  24
ENDBRANCH  11  14
ENDBRANCH   7  10
BRANCH   2  32
ATOM     32  C   UNL     1      -5.293   1.692 133.700  0.00  0.00    +0.000 C 
ATOM     33  O   UNL     1      -4.415   1.852 132.815  0.00  0.00    +0.000 OA
ATOM     34  OXT UNL     1      -5.197   1.827 134.952  0.00  0.00    +0.000 OA
ENDBRANCH   2  32
BRANCH   1  35
ATOM     35  C   UNL     1      -6.327  -1.087 132.782  0.00  0.00    +0.000 C 
BRANCH  35  41
ATOM     36  C   UNL     1      -3.590  -2.758 132.295  0.00  0.00    +0.000 C 
ATOM     37  N   UNL     1      -4.333  -1.946 131.359  0.00  0.00    +0.000 N 
ATOM     38  C   UNL     1      -3.893  -1.795 130.047  0.00  0.00    +0.000 A 
ATOM     39  C   UNL     1      -4.867  -1.071 129.259  0.00  0.00    +0.000 A 
ATOM     40  C   UNL     1      -5.887  -0.752 130.238  0.00  0.00    +0.000 A 
ATOM     41  N   UNL     1      -5.507  -1.262 131.532  0.00  0.00    +0.000 N 
BRANCH  39  42
ATOM     42  N   UNL     1      -4.836  -0.762 127.887  0.00  0.00    +0.000 N 
ATOM     43  C   UNL     1      -5.550  -1.474 126.947  0.00  0.00    +0.000 C 
ATOM     44  O   UNL     1      -6.270  -2.443 127.167  0.00  0.00    +0.000 OA
ATOM     45  N   UNL     1      -5.432  -1.089 125.645  0.00  0.00    +0.000 N 
ATOM     46  H   UNL     1      -4.294   0.038 127.593  0.00  0.00    +0.000 HD
ATOM     47  H   UNL     1      -4.914  -0.273 125.362  0.00  0.00    +0.000 HD
BRANCH  45  48
ATOM     48  C   UNL     1      -6.210  -1.860 124.669  0.00  0.00    +0.000 C 
BRANCH  48  49
ATOM     49  C   UNL     1      -5.359  -2.569 123.625  0.00  0.00    +0.000 C 
BRANCH  49  50
ATOM     50  N   UNL     1      -4.974  -3.911 124.052  0.00  0.00    +0.000 NA
ATOM     51  H   UNL     1      -5.674  -4.593 123.763  0.00  0.00    +0.000 HD
ATOM     52  H   UNL     1      -4.942  -3.950 125.070  0.00  0.00    +0.000 HD
ENDBRANCH  49  50
ENDBRANCH  48  49
ENDBRANCH  45  48
ENDBRANCH  39  42
BRANCH  38  53
ATOM     53  N   UNL     1      -2.688  -2.283 129.668  0.00  0.00    +0.000 N 
ATOM     54  H   UNL     1      -2.148  -3.042 130.049  0.00  0.00    +0.000 HD
ATOM     55  H   UNL     1      -2.247  -1.942 128.810  0.00  0.00    +0.000 HD
ENDBRANCH  38  53
ENDBRANCH  35  41
ENDBRANCH   1  35
TORSDOF 15
ENDMDL
MODEL 3
REMARK VINA RESULT:      -8.2      3.051      7.977
REMARK  Name = Ceftolozane
REMARK  18 active torsions:
REMARK  status: ('A' for Active; 'I' for Inactive)
REMARK    1  A    between atoms: C_1  and  N_2
REMARK    2  A    between atoms: C_3  and  N_4
REMARK    3  A    between atoms: C_5  and  N_6
REMARK    4  A    between atoms: N_9  and  C_10
REMARK    5  A    between atoms: C_10  and  C_11
REMARK    6  A    between atoms: C_11  and  N_12
REMARK    7  A    between atoms: N_14  and  C_15
REMARK    8  A    between atoms: C_15  and  C_16
REMARK    9  A    between atoms: CA_17  and  C_43
REMARK   10  A    between atoms: CA_22  and  N_23
REMARK   11  A    between atoms: C_24  and  C_26
REMARK   12  A    between atoms: C_26  and  C_35
REMARK   13  A    between atoms: N_27  and  O_28
REMARK   14  A    between atoms: O_28  and  C_29
REMARK   15  A    between atoms: C_29  and  C_30
REMARK   16  A    between atoms: C_29  and  C_31
REMARK   17  A    between atoms: C_29  and  C_32
REMARK   18  A    between atoms: C_32  and  O_33
REMARK                            x       y       z     vdW  Elec       q    Type
REMARK                         _______ _______ _______ _____ _____    ______ ____
ROOT
ATOM      1  C   UNL     1      -6.896  -1.019 130.992  0.00  0.00    +0.000 C 
ATOM      2  CA  UNL     1      -5.767  -0.377 131.416  0.00  0.00    +0.000 C 
ATOM      3  N   UNL     1      -5.859   0.879 132.013  0.00  0.00    +0.000 N 
ATOM      4  C   UNL     1      -7.079   1.545 132.434  0.00  0.00    +0.000 C 
ATOM      5  S   UNL     1      -8.373   1.267 131.246  0.00  0.00    +0.000 S 
ATOM      6  C   UNL     1      -8.293  -0.499 131.233  0.00  0.00    +0.000 C 
ATOM      7  CA  UNL     1      -6.284   2.882 132.447  0.00  0.00    +0.000 C 
ATOM      8  C   UNL     1      -5.126   2.016 131.856  0.00  0.00    +0.000 C 
ATOM      9  O   UNL     1      -4.065   2.307 131.336  0.00  0.00    +0.000 OA
ENDROOT
BRANCH   7  10
ATOM     10  N   UNL     1      -6.686   4.132 131.675  0.00  0.00    +0.000 N 
ATOM     11  C   UNL     1      -7.006   5.390 132.159  0.00  0.00    +0.000 C 
ATOM     12  O   UNL     1      -7.085   5.679 133.346  0.00  0.00    +0.000 OA
ATOM     13  H   UNL     1      -6.431   4.181 130.699  0.00  0.00    +0.000 HD
BRANCH  11  14
ATOM     14  C   UNL     1      -7.251   6.559 131.209  0.00  0.00    +0.000 C 
ATOM     15  N   UNL     1      -6.288   7.323 130.740  0.00  0.00    +0.000 NA
BRANCH  14  16
ATOM     16  C   UNL     1      -8.694   6.839 130.861  0.00  0.00    +0.000 A 
ATOM     17  N   UNL     1      -9.045   7.469 129.728  0.00  0.00    +0.000 NA
ATOM     18  S   UNL     1     -10.720   7.528 129.682  0.00  0.00    +0.000 S 
ATOM     19  C   UNL     1     -10.928   6.715 131.185  0.00  0.00    +0.000 A 
ATOM     20  N   UNL     1     -12.126   6.443 131.737  0.00  0.00    +0.000 N 
ATOM     21  N   UNL     1      -9.761   6.411 131.704  0.00  0.00    +0.000 NA
ATOM     22  H   UNL     1     -13.004   6.754 131.339  0.00  0.00    +0.000 HD
ATOM     23  H   UNL     1     -12.185   5.979 132.637  0.00  0.00    +0.000 HD
ENDBRANCH  14  16
BRANCH  15  24
ATOM     24  O   UNL     1      -4.990   6.973 131.218  0.00  0.00    +0.000 OA
BRANCH  24  25
ATOM     25  C   UNL     1      -4.001   6.938 130.176  0.00  0.00    +0.000 C 
ATOM     26  C   UNL     1      -3.880   8.309 129.508  0.00  0.00    +0.000 C 
ATOM     27  C   UNL     1      -2.652   6.502 130.759  0.00  0.00    +0.000 C 
BRANCH  25  28
ATOM     28  C   UNL     1      -4.355   5.912 129.061  0.00  0.00    +0.000 C 
ATOM     29  O   UNL     1      -4.265   6.172 127.866  0.00  0.00    +0.000 OA
BRANCH  28  30
ATOM     30  O   UNL     1      -4.755   4.681 129.442  0.00  0.00    +0.000 OA
ATOM     31  H   UNL     1      -4.631   3.937 128.836  0.00  0.00    +0.000 HD
ENDBRANCH  28  30
ENDBRANCH  25  28
ENDBRANCH  24  25
ENDBRANCH  15  24
ENDBRANCH  11  14
ENDBRANCH   7  10
BRANCH   2  32
ATOM     32  C   UNL     1      -4.306  -1.041 131.256  0.00  0.00    +0.000 C 
ATOM     33  O   UNL     1      -3.748  -0.852 130.146  0.00  0.00    +0.000 OA
ATOM     34  OXT UNL     1      -3.843  -1.581 132.300  0.00  0.00    +0.000 OA
ENDBRANCH   2  32
BRANCH   1  35
ATOM     35  C   UNL     1      -6.934  -2.320 130.212  0.00  0.00    +0.000 C 
BRANCH  35  41
ATOM     36  C   UNL     1      -8.924  -3.995 128.275  0.00  0.00    +0.000 C 
ATOM     37  N   UNL     1      -8.014  -2.927 127.931  0.00  0.00    +0.000 N 
ATOM     38  C   UNL     1      -7.901  -2.488 126.615  0.00  0.00    +0.000 A 
ATOM     39  C   UNL     1      -7.052  -1.320 126.534  0.00  0.00    +0.000 A 
ATOM     40  C   UNL     1      -6.622  -1.150 127.908  0.00  0.00    +0.000 A 
ATOM     41  N   UNL     1      -7.192  -2.183 128.735  0.00  0.00    +0.000 N 
BRANCH  39  42
ATOM     42  N   UNL     1      -6.731  -0.540 125.408  0.00  0.00    +0.000 N 
ATOM     43  C   UNL     1      -7.566   0.442 124.919  0.00  0.00    +0.000 C 
ATOM     44  O   UNL     1      -8.665   0.749 125.372  0.00  0.00    +0.000 OA
ATOM     45  N   UNL     1      -7.153   1.124 123.815  0.00  0.00    +0.000 N 
ATOM     46  H   UNL     1      -5.834  -0.688 124.968  0.00  0.00    +0.000 HD
ATOM     47  H   UNL     1      -6.245   0.992 123.399  0.00  0.00    +0.000 HD
BRANCH  45  48
ATOM     48  C   UNL     1      -8.059   2.170 123.323  0.00  0.00    +0.000 C 
BRANCH  48  49
ATOM     49  C   UNL     1      -7.841   3.528 123.975  0.00  0.00    +0.000 C 
BRANCH  49  50
ATOM     50  N   UNL     1      -8.859   3.823 124.979  0.00  0.00    +0.000 NA
ATOM     51  H   UNL     1      -9.482   3.025 125.103  0.00  0.00    +0.000 HD
ATOM     52  H   UNL     1      -9.443   4.594 124.658  0.00  0.00    +0.000 HD
ENDBRANCH  49  50
ENDBRANCH  48  49
ENDBRANCH  45  48
ENDBRANCH  39  42
BRANCH  38  53
ATOM     53  N   UNL     1      -8.529  -3.152 125.614  0.00  0.00    +0.000 N 
ATOM     54  H   UNL     1      -8.246  -3.305 124.661  0.00  0.00    +0.000 HD
ATOM     55  H   UNL     1      -9.378  -3.687 125.813  0.00  0.00    +0.000 HD
ENDBRANCH  38  53
ENDBRANCH  35  41
ENDBRANCH   1  35
TORSDOF 15
ENDMDL
MODEL 4
REMARK VINA RESULT:      -8.1      2.045      3.618
REMARK  Name = Ceftolozane
REMARK  18 active torsions:
REMARK  status: ('A' for Active; 'I' for Inactive)
REMARK    1  A    between atoms: C_1  and  N_2
REMARK    2  A    between atoms: C_3  and  N_4
REMARK    3  A    between atoms: C_5  and  N_6
REMARK    4  A    between atoms: N_9  and  C_10
REMARK    5  A    between atoms: C_10  and  C_11
REMARK    6  A    between atoms: C_11  and  N_12
REMARK    7  A    between atoms: N_14  and  C_15
REMARK    8  A    between atoms: C_15  and  C_16
REMARK    9  A    between atoms: CA_17  and  C_43
REMARK   10  A    between atoms: CA_22  and  N_23
REMARK   11  A    between atoms: C_24  and  C_26
REMARK   12  A    between atoms: C_26  and  C_35
REMARK   13  A    between atoms: N_27  and  O_28
REMARK   14  A    between atoms: O_28  and  C_29
REMARK   15  A    between atoms: C_29  and  C_30
REMARK   16  A    between atoms: C_29  and  C_31
REMARK   17  A    between atoms: C_29  and  C_32
REMARK   18  A    between atoms: C_32  and  O_33
REMARK                            x       y       z     vdW  Elec       q    Type
REMARK                         _______ _______ _______ _____ _____    ______ ____
ROOT
ATOM      1  C   UNL     1      -5.393   3.161 132.081  0.00  0.00    +0.000 C 
ATOM      2  CA  UNL     1      -5.976   1.925 132.041  0.00  0.00    +0.000 C 
ATOM      3  N   UNL     1      -5.610   1.012 131.053  0.00  0.00    +0.000 N 
ATOM      4  C   UNL     1      -4.498   1.142 130.129  0.00  0.00    +0.000 C 
ATOM      5  S   UNL     1      -4.352   2.826 129.576  0.00  0.00    +0.000 S 
ATOM      6  C   UNL     1      -4.264   3.582 131.172  0.00  0.00    +0.000 C 
ATOM      7  CA  UNL     1      -5.181   0.067 129.236  0.00  0.00    +0.000 C 
ATOM      8  C   UNL     1      -6.348   0.177 130.270  0.00  0.00    +0.000 C 
ATOM      9  O   UNL     1      -7.497  -0.223 130.258  0.00  0.00    +0.000 OA
ENDROOT
BRANCH   7  10
ATOM     10  N   UNL     1      -5.530   0.262 127.766  0.00  0.00    +0.000 N 
ATOM     11  C   UNL     1      -6.422  -0.450 126.980  0.00  0.00    +0.000 C 
ATOM     12  O   UNL     1      -7.042  -1.438 127.353  0.00  0.00    +0.000 OA
ATOM     13  H   UNL     1      -5.336   1.163 127.354  0.00  0.00    +0.000 HD
BRANCH  11  14
ATOM     14  C   UNL     1      -6.737  -0.011 125.553  0.00  0.00    +0.000 C 
ATOM     15  N   UNL     1      -7.330   1.127 125.262  0.00  0.00    +0.000 NA
BRANCH  14  16
ATOM     16  C   UNL     1      -6.373  -0.990 124.462  0.00  0.00    +0.000 A 
ATOM     17  N   UNL     1      -6.890  -0.905 123.226  0.00  0.00    +0.000 NA
ATOM     18  S   UNL     1      -6.194  -2.121 122.304  0.00  0.00    +0.000 S 
ATOM     19  C   UNL     1      -5.226  -2.732 123.589  0.00  0.00    +0.000 A 
ATOM     20  N   UNL     1      -4.390  -3.782 123.471  0.00  0.00    +0.000 N 
ATOM     21  N   UNL     1      -5.427  -2.035 124.683  0.00  0.00    +0.000 NA
ATOM     22  H   UNL     1      -4.312  -4.337 122.628  0.00  0.00    +0.000 HD
ATOM     23  H   UNL     1      -3.860  -4.110 124.271  0.00  0.00    +0.000 HD
ENDBRANCH  14  16
BRANCH  15  24
ATOM     24  O   UNL     1      -7.674   1.907 126.405  0.00  0.00    +0.000 OA
BRANCH  24  25
ATOM     25  C   UNL     1      -7.274   3.282 126.285  0.00  0.00    +0.000 C 
ATOM     26  C   UNL     1      -7.289   3.965 127.654  0.00  0.00    +0.000 C 
ATOM     27  C   UNL     1      -5.876   3.361 125.660  0.00  0.00    +0.000 C 
BRANCH  25  28
ATOM     28  C   UNL     1      -8.222   4.094 125.356  0.00  0.00    +0.000 C 
ATOM     29  O   UNL     1      -8.964   4.978 125.772  0.00  0.00    +0.000 OA
BRANCH  28  30
ATOM     30  O   UNL     1      -8.197   3.818 124.035  0.00  0.00    +0.000 OA
ATOM     31  H   UNL     1      -7.367   3.919 123.549  0.00  0.00    +0.000 HD
ENDBRANCH  28  30
ENDBRANCH  25  28
ENDBRANCH  24  25
ENDBRANCH  15  24
ENDBRANCH  11  14
ENDBRANCH   7  10
BRANCH   2  32
ATOM     32  C   UNL     1      -7.083   1.476 133.124  0.00  0.00    +0.000 C 
ATOM     33  O   UNL     1      -8.278   1.645 132.773  0.00  0.00    +0.000 OA
ATOM     34  OXT UNL     1      -6.628   0.906 134.156  0.00  0.00    +0.000 OA
ENDBRANCH   2  32
BRANCH   1  35
ATOM     35  C   UNL     1      -5.786   4.294 133.011  0.00  0.00    +0.000 C 
BRANCH  35  41
ATOM     36  C   UNL     1      -8.633   4.470 134.556  0.00  0.00    +0.000 C 
ATOM     37  N   UNL     1      -8.251   5.059 133.294  0.00  0.00    +0.000 N 
ATOM     38  C   UNL     1      -9.158   5.820 132.563  0.00  0.00    +0.000 A 
ATOM     39  C   UNL     1      -8.516   6.430 131.420  0.00  0.00    +0.000 A 
ATOM     40  C   UNL     1      -7.166   5.908 131.505  0.00  0.00    +0.000 A 
ATOM     41  N   UNL     1      -7.047   5.028 132.640  0.00  0.00    +0.000 N 
BRANCH  39  42
ATOM     42  N   UNL     1      -9.059   7.314 130.471  0.00  0.00    +0.000 N 
ATOM     43  C   UNL     1      -9.849   6.891 129.424  0.00  0.00    +0.000 C 
ATOM     44  O   UNL     1     -10.164   5.730 129.179  0.00  0.00    +0.000 OA
ATOM     45  N   UNL     1     -10.309   7.839 128.561  0.00  0.00    +0.000 N 
ATOM     46  H   UNL     1      -8.887   8.303 130.590  0.00  0.00    +0.000 HD
ATOM     47  H   UNL     1     -10.159   8.825 128.702  0.00  0.00    +0.000 HD
BRANCH  45  48
ATOM     48  C   UNL     1     -11.155   7.359 127.462  0.00  0.00    +0.000 C 
BRANCH  48  49
ATOM     49  C   UNL     1     -12.642   7.606 127.677  0.00  0.00    +0.000 C 
BRANCH  49  50
ATOM     50  N   UNL     1     -13.229   6.640 128.601  0.00  0.00    +0.000 NA
ATOM     51  H   UNL     1     -12.534   5.953 128.891  0.00  0.00    +0.000 HD
ATOM     52  H   UNL     1     -13.965   6.117 128.128  0.00  0.00    +0.000 HD
ENDBRANCH  49  50
ENDBRANCH  48  49
ENDBRANCH  45  48
ENDBRANCH  39  42
BRANCH  38  53
ATOM     53  N   UNL     1     -10.455   5.898 132.949  0.00  0.00    +0.000 N 
ATOM     54  H   UNL     1     -11.124   6.640 132.826  0.00  0.00    +0.000 HD
ATOM     55  H   UNL     1     -10.919   5.076 133.343  0.00  0.00    +0.000 HD
ENDBRANCH  38  53
ENDBRANCH  35  41
ENDBRANCH   1  35
TORSDOF 15
ENDMDL
MODEL 5
REMARK VINA RESULT:      -8.0      2.215      4.178
REMARK  Name = Ceftolozane
REMARK  18 active torsions:
REMARK  status: ('A' for Active; 'I' for Inactive)
REMARK    1  A    between atoms: C_1  and  N_2
REMARK    2  A    between atoms: C_3  and  N_4
REMARK    3  A    between atoms: C_5  and  N_6
REMARK    4  A    between atoms: N_9  and  C_10
REMARK    5  A    between atoms: C_10  and  C_11
REMARK    6  A    between atoms: C_11  and  N_12
REMARK    7  A    between atoms: N_14  and  C_15
REMARK    8  A    between atoms: C_15  and  C_16
REMARK    9  A    between atoms: CA_17  and  C_43
REMARK   10  A    between atoms: CA_22  and  N_23
REMARK   11  A    between atoms: C_24  and  C_26
REMARK   12  A    between atoms: C_26  and  C_35
REMARK   13  A    between atoms: N_27  and  O_28
REMARK   14  A    between atoms: O_28  and  C_29
REMARK   15  A    between atoms: C_29  and  C_30
REMARK   16  A    between atoms: C_29  and  C_31
REMARK   17  A    between atoms: C_29  and  C_32
REMARK   18  A    between atoms: C_32  and  O_33
REMARK                            x       y       z     vdW  Elec       q    Type
REMARK                         _______ _______ _______ _____ _____    ______ ____
ROOT
ATOM      1  C   UNL     1      -5.398   1.166 132.943  0.00  0.00    +0.000 C 
ATOM      2  CA  UNL     1      -5.697  -0.105 132.539  0.00  0.00    +0.000 C 
ATOM      3  N   UNL     1      -5.501  -0.480 131.210  0.00  0.00    +0.000 N 
ATOM      4  C   UNL     1      -4.809   0.290 130.191  0.00  0.00    +0.000 C 
ATOM      5  S   UNL     1      -5.201   2.016 130.354  0.00  0.00    +0.000 S 
ATOM      6  C   UNL     1      -4.745   2.195 132.052  0.00  0.00    +0.000 C 
ATOM      7  CA  UNL     1      -5.515  -0.590 129.120  0.00  0.00    +0.000 C 
ATOM      8  C   UNL     1      -6.270  -1.198 130.346  0.00  0.00    +0.000 C 
ATOM      9  O   UNL     1      -7.251  -1.913 130.436  0.00  0.00    +0.000 OA
ENDROOT
BRANCH   7  10
ATOM     10  N   UNL     1      -6.364  -0.044 127.979  0.00  0.00    +0.000 N 
ATOM     11  C   UNL     1      -6.189  -0.198 126.613  0.00  0.00    +0.000 C 
ATOM     12  O   UNL     1      -5.238  -0.768 126.094  0.00  0.00    +0.000 OA
ATOM     13  H   UNL     1      -7.316   0.220 128.188  0.00  0.00    +0.000 HD
BRANCH  11  14
ATOM     14  C   UNL     1      -7.232   0.315 125.625  0.00  0.00    +0.000 C 
ATOM     15  N   UNL     1      -7.734   1.530 125.670  0.00  0.00    +0.000 NA
BRANCH  14  16
ATOM     16  C   UNL     1      -7.714  -0.679 124.594  0.00  0.00    +0.000 A 
ATOM     17  N   UNL     1      -7.224  -0.705 123.345  0.00  0.00    +0.000 NA
ATOM     18  S   UNL     1      -7.961  -1.979 122.540  0.00  0.00    +0.000 S 
ATOM     19  C   UNL     1      -8.923  -2.454 123.886  0.00  0.00    +0.000 A 
ATOM     20  N   UNL     1      -9.789  -3.485 123.869  0.00  0.00    +0.000 N 
ATOM     21  N   UNL     1      -8.691  -1.669 124.912  0.00  0.00    +0.000 NA
ATOM     22  H   UNL     1      -9.990  -4.028 123.038  0.00  0.00    +0.000 HD
ATOM     23  H   UNL     1     -10.345  -3.706 124.689  0.00  0.00    +0.000 HD
ENDBRANCH  14  16
BRANCH  15  24
ATOM     24  O   UNL     1      -7.230   2.323 126.743  0.00  0.00    +0.000 OA
BRANCH  24  25
ATOM     25  C   UNL     1      -6.795   3.626 126.320  0.00  0.00    +0.000 C 
ATOM     26  C   UNL     1      -6.218   4.406 127.503  0.00  0.00    +0.000 C 
ATOM     27  C   UNL     1      -5.751   3.486 125.207  0.00  0.00    +0.000 C 
BRANCH  25  28
ATOM     28  C   UNL     1      -7.959   4.475 125.733  0.00  0.00    +0.000 C 
ATOM     29  O   UNL     1      -8.577   5.304 126.394  0.00  0.00    +0.000 OA
BRANCH  28  30
ATOM     30  O   UNL     1      -8.275   4.297 124.433  0.00  0.00    +0.000 OA
ATOM     31  H   UNL     1      -8.773   3.509 124.173  0.00  0.00    +0.000 HD
ENDBRANCH  28  30
ENDBRANCH  25  28
ENDBRANCH  24  25
ENDBRANCH  15  24
ENDBRANCH  11  14
ENDBRANCH   7  10
BRANCH   2  32
ATOM     32  C   UNL     1      -6.266  -1.209 133.567  0.00  0.00    +0.000 C 
ATOM     33  O   UNL     1      -7.517  -1.234 133.691  0.00  0.00    +0.000 OA
ATOM     34  OXT UNL     1      -5.401  -1.993 134.049  0.00  0.00    +0.000 OA
ENDBRANCH   2  32
BRANCH   1  35
ATOM     35  C   UNL     1      -5.682   1.747 134.316  0.00  0.00    +0.000 C 
BRANCH  35  41
ATOM     36  C   UNL     1      -5.703   4.529 135.983  0.00  0.00    +0.000 C 
ATOM     37  N   UNL     1      -6.712   4.000 135.094  0.00  0.00    +0.000 N 
ATOM     38  C   UNL     1      -7.890   4.702 134.859  0.00  0.00    +0.000 A 
ATOM     39  C   UNL     1      -8.675   4.060 133.828  0.00  0.00    +0.000 A 
ATOM     40  C   UNL     1      -7.887   2.881 133.524  0.00  0.00    +0.000 A 
ATOM     41  N   UNL     1      -6.710   2.847 134.354  0.00  0.00    +0.000 N 
BRANCH  39  42
ATOM     42  N   UNL     1      -9.891   4.477 133.257  0.00  0.00    +0.000 N 
ATOM     43  C   UNL     1      -9.966   5.474 132.308  0.00  0.00    +0.000 C 
ATOM     44  O   UNL     1      -9.022   6.117 131.858  0.00  0.00    +0.000 OA
ATOM     45  N   UNL     1     -11.202   5.800 131.837  0.00  0.00    +0.000 N 
ATOM     46  H   UNL     1     -10.735   3.996 133.535  0.00  0.00    +0.000 HD
ATOM     47  H   UNL     1     -12.035   5.297 132.095  0.00  0.00    +0.000 HD
BRANCH  45  48
ATOM     48  C   UNL     1     -11.248   6.859 130.820  0.00  0.00    +0.000 C 
BRANCH  48  49
ATOM     49  C   UNL     1     -11.287   6.337 129.391  0.00  0.00    +0.000 C 
BRANCH  49  50
ATOM     50  N   UNL     1      -9.964   6.334 128.772  0.00  0.00    +0.000 NA
ATOM     51  H   UNL     1      -9.258   6.647 129.437  0.00  0.00    +0.000 HD
ATOM     52  H   UNL     1      -9.946   7.000 128.001  0.00  0.00    +0.000 HD
ENDBRANCH  49  50
ENDBRANCH  48  49
ENDBRANCH  45  48
ENDBRANCH  39  42
BRANCH  38  53
ATOM     53  N   UNL     1      -8.176   5.819 135.571  0.00  0.00    +0.000 N 
ATOM     54  H   UNL     1      -9.045   6.314 135.677  0.00  0.00    +0.000 HD
ATOM     55  H   UNL     1      -7.473   6.216 136.199  0.00  0.00    +0.000 HD
ENDBRANCH  38  53
ENDBRANCH  35  41
ENDBRANCH   1  35
TORSDOF 15
ENDMDL
MODEL 6
REMARK VINA RESULT:      -7.9      1.908      2.489
REMARK  Name = Ceftolozane
REMARK  18 active torsions:
REMARK  status: ('A' for Active; 'I' for Inactive)
REMARK    1  A    between atoms: C_1  and  N_2
REMARK    2  A    between atoms: C_3  and  N_4
REMARK    3  A    between atoms: C_5  and  N_6
REMARK    4  A    between atoms: N_9  and  C_10
REMARK    5  A    between atoms: C_10  and  C_11
REMARK    6  A    between atoms: C_11  and  N_12
REMARK    7  A    between atoms: N_14  and  C_15
REMARK    8  A    between atoms: C_15  and  C_16
REMARK    9  A    between atoms: CA_17  and  C_43
REMARK   10  A    between atoms: CA_22  and  N_23
REMARK   11  A    between atoms: C_24  and  C_26
REMARK   12  A    between atoms: C_26  and  C_35
REMARK   13  A    between atoms: N_27  and  O_28
REMARK   14  A    between atoms: O_28  and  C_29
REMARK   15  A    between atoms: C_29  and  C_30
REMARK   16  A    between atoms: C_29  and  C_31
REMARK   17  A    between atoms: C_29  and  C_32
REMARK   18  A    between atoms: C_32  and  O_33
REMARK                            x       y       z     vdW  Elec       q    Type
REMARK                         _______ _______ _______ _____ _____    ______ ____
ROOT
ATOM      1  C   UNL     1      -5.637   0.881 132.685  0.00  0.00    +0.000 C 
ATOM      2  CA  UNL     1      -5.995  -0.361 132.238  0.00  0.00    +0.000 C 
ATOM      3  N   UNL     1      -5.769  -0.718 130.910  0.00  0.00    +0.000 N 
ATOM      4  C   UNL     1      -4.992   0.029 129.937  0.00  0.00    +0.000 C 
ATOM      5  S   UNL     1      -5.286   1.773 130.125  0.00  0.00    +0.000 S 
ATOM      6  C   UNL     1      -4.888   1.887 131.844  0.00  0.00    +0.000 C 
ATOM      7  CA  UNL     1      -5.707  -0.783 128.819  0.00  0.00    +0.000 C 
ATOM      8  C   UNL     1      -6.545  -1.370 130.000  0.00  0.00    +0.000 C 
ATOM      9  O   UNL     1      -7.570  -2.025 130.035  0.00  0.00    +0.000 OA
ENDROOT
BRANCH   7  10
ATOM     10  N   UNL     1      -6.474  -0.162 127.659  0.00  0.00    +0.000 N 
ATOM     11  C   UNL     1      -6.080  -0.001 126.341  0.00  0.00    +0.000 C 
ATOM     12  O   UNL     1      -4.970  -0.285 125.907  0.00  0.00    +0.000 OA
ATOM     13  H   UNL     1      -7.479  -0.108 127.738  0.00  0.00    +0.000 HD
BRANCH  11  14
ATOM     14  C   UNL     1      -7.051   0.524 125.288  0.00  0.00    +0.000 C 
ATOM     15  N   UNL     1      -8.057  -0.182 124.817  0.00  0.00    +0.000 NA
BRANCH  14  16
ATOM     16  C   UNL     1      -6.770   1.911 124.759  0.00  0.00    +0.000 A 
ATOM     17  N   UNL     1      -6.413   2.923 125.565  0.00  0.00    +0.000 NA
ATOM     18  S   UNL     1      -6.130   4.263 124.596  0.00  0.00    +0.000 S 
ATOM     19  C   UNL     1      -6.504   3.451 123.125  0.00  0.00    +0.000 A 
ATOM     20  N   UNL     1      -6.463   4.032 121.911  0.00  0.00    +0.000 N 
ATOM     21  N   UNL     1      -6.833   2.203 123.364  0.00  0.00    +0.000 NA
ATOM     22  H   UNL     1      -6.269   5.017 121.772  0.00  0.00    +0.000 HD
ATOM     23  H   UNL     1      -6.714   3.507 121.080  0.00  0.00    +0.000 HD
ENDBRANCH  14  16
BRANCH  15  24
ATOM     24  O   UNL     1      -8.146  -1.496 125.364  0.00  0.00    +0.000 OA
BRANCH  24  25
ATOM     25  C   UNL     1      -8.059  -2.525 124.365  0.00  0.00    +0.000 C 
ATOM     26  C   UNL     1      -8.268  -3.902 124.998  0.00  0.00    +0.000 C 
ATOM     27  C   UNL     1      -9.102  -2.272 123.271  0.00  0.00    +0.000 C 
BRANCH  25  28
ATOM     28  C   UNL     1      -6.672  -2.548 123.660  0.00  0.00    +0.000 C 
ATOM     29  O   UNL     1      -5.754  -3.276 124.023  0.00  0.00    +0.000 OA
BRANCH  28  30
ATOM     30  O   UNL     1      -6.496  -1.745 122.591  0.00  0.00    +0.000 OA
ATOM     31  H   UNL     1      -6.957  -0.895 122.559  0.00  0.00    +0.000 HD
ENDBRANCH  28  30
ENDBRANCH  25  28
ENDBRANCH  24  25
ENDBRANCH  15  24
ENDBRANCH  11  14
ENDBRANCH   7  10
BRANCH   2  32
ATOM     32  C   UNL     1      -6.671  -1.449 133.218  0.00  0.00    +0.000 C 
ATOM     33  O   UNL     1      -5.865  -2.150 133.880  0.00  0.00    +0.000 OA
ATOM     34  OXT UNL     1      -7.931  -1.401 133.289  0.00  0.00    +0.000 OA
ENDBRANCH   2  32
BRANCH   1  35
ATOM     35  C   UNL     1      -5.941   1.448 134.058  0.00  0.00    +0.000 C 
BRANCH  35  41
ATOM     36  C   UNL     1      -5.709   4.320 135.549  0.00  0.00    +0.000 C 
ATOM     37  N   UNL     1      -6.795   3.801 134.749  0.00  0.00    +0.000 N 
ATOM     38  C   UNL     1      -7.942   4.559 134.534  0.00  0.00    +0.000 A 
ATOM     39  C   UNL     1      -8.819   3.906 133.587  0.00  0.00    +0.000 A 
ATOM     40  C   UNL     1      -8.118   2.666 133.315  0.00  0.00    +0.000 A 
ATOM     41  N   UNL     1      -6.900   2.609 134.082  0.00  0.00    +0.000 N 
BRANCH  39  42
ATOM     42  N   UNL     1     -10.039   4.362 133.056  0.00  0.00    +0.000 N 
ATOM     43  C   UNL     1     -10.160   5.565 132.392  0.00  0.00    +0.000 C 
ATOM     44  O   UNL     1      -9.260   6.375 132.192  0.00  0.00    +0.000 OA
ATOM     45  N   UNL     1     -11.397   5.906 131.933  0.00  0.00    +0.000 N 
ATOM     46  H   UNL     1     -10.846   3.761 133.139  0.00  0.00    +0.000 HD
ATOM     47  H   UNL     1     -12.190   5.289 131.992  0.00  0.00    +0.000 HD
BRANCH  45  48
ATOM     48  C   UNL     1     -11.492   7.187 131.222  0.00  0.00    +0.000 C 
BRANCH  48  49
ATOM     49  C   UNL     1     -11.753   7.044 129.729  0.00  0.00    +0.000 C 
BRANCH  49  50
ATOM     50  N   UNL     1     -12.017   5.659 129.350  0.00  0.00    +0.000 NA
ATOM     51  H   UNL     1     -12.410   5.614 128.410  0.00  0.00    +0.000 HD
ATOM     52  H   UNL     1     -12.720   5.261 129.972  0.00  0.00    +0.000 HD
ENDBRANCH  49  50
ENDBRANCH  48  49
ENDBRANCH  45  48
ENDBRANCH  39  42
BRANCH  38  53
ATOM     53  N   UNL     1      -8.122   5.731 135.190  0.00  0.00    +0.000 N 
ATOM     54  H   UNL     1      -8.171   5.919 136.177  0.00  0.00    +0.000 HD
ATOM     55  H   UNL     1      -8.118   6.611 134.670  0.00  0.00    +0.000 HD
ENDBRANCH  38  53
ENDBRANCH  35  41
ENDBRANCH   1  35
TORSDOF 15
ENDMDL
MODEL 7
REMARK VINA RESULT:      -7.9      3.756      9.166
REMARK  Name = Ceftolozane
REMARK  18 active torsions:
REMARK  status: ('A' for Active; 'I' for Inactive)
REMARK    1  A    between atoms: C_1  and  N_2
REMARK    2  A    between atoms: C_3  and  N_4
REMARK    3  A    between atoms: C_5  and  N_6
REMARK    4  A    between atoms: N_9  and  C_10
REMARK    5  A    between atoms: C_10  and  C_11
REMARK    6  A    between atoms: C_11  and  N_12
REMARK    7  A    between atoms: N_14  and  C_15
REMARK    8  A    between atoms: C_15  and  C_16
REMARK    9  A    between atoms: CA_17  and  C_43
REMARK   10  A    between atoms: CA_22  and  N_23
REMARK   11  A    between atoms: C_24  and  C_26
REMARK   12  A    between atoms: C_26  and  C_35
REMARK   13  A    between atoms: N_27  and  O_28
REMARK   14  A    between atoms: O_28  and  C_29
REMARK   15  A    between atoms: C_29  and  C_30
REMARK   16  A    between atoms: C_29  and  C_31
REMARK   17  A    between atoms: C_29  and  C_32
REMARK   18  A    between atoms: C_32  and  O_33
REMARK                            x       y       z     vdW  Elec       q    Type
REMARK                         _______ _______ _______ _____ _____    ______ ____
ROOT
ATOM      1  C   UNL     1      -5.835  -1.072 127.688  0.00  0.00    +0.000 C 
ATOM      2  CA  UNL     1      -6.751  -0.606 126.788  0.00  0.00    +0.000 C 
ATOM      3  N   UNL     1      -7.052   0.754 126.737  0.00  0.00    +0.000 N 
ATOM      4  C   UNL     1      -6.343   1.819 127.424  0.00  0.00    +0.000 C 
ATOM      5  S   UNL     1      -5.877   1.293 129.057  0.00  0.00    +0.000 S 
ATOM      6  C   UNL     1      -5.015  -0.177 128.585  0.00  0.00    +0.000 C 
ATOM      7  CA  UNL     1      -7.591   2.722 127.203  0.00  0.00    +0.000 C 
ATOM      8  C   UNL     1      -8.235   1.419 126.628  0.00  0.00    +0.000 C 
ATOM      9  O   UNL     1      -9.382   1.123 126.349  0.00  0.00    +0.000 OA
ENDROOT
BRANCH   7  10
ATOM     10  N   UNL     1      -8.343   3.439 128.317  0.00  0.00    +0.000 N 
ATOM     11  C   UNL     1      -7.954   4.542 129.060  0.00  0.00    +0.000 C 
ATOM     12  O   UNL     1      -6.861   5.088 128.974  0.00  0.00    +0.000 OA
ATOM     13  H   UNL     1      -9.344   3.317 128.360  0.00  0.00    +0.000 HD
BRANCH  11  14
ATOM     14  C   UNL     1      -8.913   5.204 130.045  0.00  0.00    +0.000 C 
ATOM     15  N   UNL     1      -8.988   4.869 131.316  0.00  0.00    +0.000 NA
BRANCH  14  16
ATOM     16  C   UNL     1      -9.834   6.254 129.470  0.00  0.00    +0.000 A 
ATOM     17  N   UNL     1      -9.865   6.534 128.158  0.00  0.00    +0.000 NA
ATOM     18  S   UNL     1     -11.051   7.696 127.918  0.00  0.00    +0.000 S 
ATOM     19  C   UNL     1     -11.484   7.797 129.581  0.00  0.00    +0.000 A 
ATOM     20  N   UNL     1     -12.440   8.613 130.064  0.00  0.00    +0.000 N 
ATOM     21  N   UNL     1     -10.749   6.975 130.293  0.00  0.00    +0.000 NA
ATOM     22  H   UNL     1     -12.940   9.282 129.492  0.00  0.00    +0.000 HD
ATOM     23  H   UNL     1     -12.637   8.644 131.059  0.00  0.00    +0.000 HD
ENDBRANCH  14  16
BRANCH  15  24
ATOM     24  O   UNL     1      -8.104   3.814 131.687  0.00  0.00    +0.000 OA
BRANCH  24  25
ATOM     25  C   UNL     1      -8.687   2.904 132.635  0.00  0.00    +0.000 C 
ATOM     26  C   UNL     1      -7.622   1.959 133.193  0.00  0.00    +0.000 C 
ATOM     27  C   UNL     1      -9.353   3.693 133.768  0.00  0.00    +0.000 C 
BRANCH  25  28
ATOM     28  C   UNL     1      -9.798   2.020 131.998  0.00  0.00    +0.000 C 
ATOM     29  O   UNL     1      -9.788   0.794 132.056  0.00  0.00    +0.000 OA
BRANCH  28  30
ATOM     30  O   UNL     1     -10.822   2.644 131.380  0.00  0.00    +0.000 OA
ATOM     31  H   UNL     1     -11.469   2.116 130.891  0.00  0.00    +0.000 HD
ENDBRANCH  28  30
ENDBRANCH  25  28
ENDBRANCH  24  25
ENDBRANCH  15  24
ENDBRANCH  11  14
ENDBRANCH   7  10
BRANCH   2  32
ATOM     32  C   UNL     1      -7.501  -1.593 125.756  0.00  0.00    +0.000 C 
ATOM     33  O   UNL     1      -6.897  -1.799 124.674  0.00  0.00    +0.000 OA
ATOM     34  OXT UNL     1      -8.556  -2.132 126.196  0.00  0.00    +0.000 OA
ENDBRANCH   2  32
BRANCH   1  35
ATOM     35  C   UNL     1      -5.509  -2.532 127.944  0.00  0.00    +0.000 C 
BRANCH  35  41
ATOM     36  C   UNL     1      -7.732  -2.604 130.305  0.00  0.00    +0.000 C 
ATOM     37  N   UNL     1      -6.322  -2.911 130.381  0.00  0.00    +0.000 N 
ATOM     38  C   UNL     1      -5.743  -3.295 131.586  0.00  0.00    +0.000 A 
ATOM     39  C   UNL     1      -4.367  -3.696 131.392  0.00  0.00    +0.000 A 
ATOM     40  C   UNL     1      -4.167  -3.451 129.977  0.00  0.00    +0.000 A 
ATOM     41  N   UNL     1      -5.374  -2.922 129.392  0.00  0.00    +0.000 N 
BRANCH  39  42
ATOM     42  N   UNL     1      -3.456  -4.204 132.334  0.00  0.00    +0.000 N 
ATOM     43  C   UNL     1      -2.829  -3.409 133.270  0.00  0.00    +0.000 C 
ATOM     44  O   UNL     1      -2.966  -2.196 133.396  0.00  0.00    +0.000 OA
ATOM     45  N   UNL     1      -1.957  -4.013 134.124  0.00  0.00    +0.000 N 
ATOM     46  H   UNL     1      -3.286  -5.200 132.341  0.00  0.00    +0.000 HD
ATOM     47  H   UNL     1      -1.815  -5.009 134.145  0.00  0.00    +0.000 HD
BRANCH  45  48
ATOM     48  C   UNL     1      -1.313  -3.142 135.115  0.00  0.00    +0.000 C 
BRANCH  48  49
ATOM     49  C   UNL     1       0.198  -3.045 134.959  0.00  0.00    +0.000 C 
BRANCH  49  50
ATOM     50  N   UNL     1       0.867  -4.293 135.317  0.00  0.00    +0.000 NA
ATOM     51  H   UNL     1       0.346  -5.093 134.959  0.00  0.00    +0.000 HD
ATOM     52  H   UNL     1       0.883  -4.394 136.331  0.00  0.00    +0.000 HD
ENDBRANCH  49  50
ENDBRANCH  48  49
ENDBRANCH  45  48
ENDBRANCH  39  42
BRANCH  38  53
ATOM     53  N   UNL     1      -6.458  -3.245 132.736  0.00  0.00    +0.000 N 
ATOM     54  H   UNL     1      -6.596  -3.947 133.444  0.00  0.00    +0.000 HD
ATOM     55  H   UNL     1      -6.864  -2.359 133.045  0.00  0.00    +0.000 HD
ENDBRANCH  38  53
ENDBRANCH  35  41
ENDBRANCH   1  35
TORSDOF 15
ENDMDL
MODEL 8
REMARK VINA RESULT:      -7.8      3.420      5.896
REMARK  Name = Ceftolozane
REMARK  18 active torsions:
REMARK  status: ('A' for Active; 'I' for Inactive)
REMARK    1  A    between atoms: C_1  and  N_2
REMARK    2  A    between atoms: C_3  and  N_4
REMARK    3  A    between atoms: C_5  and  N_6
REMARK    4  A    between atoms: N_9  and  C_10
REMARK    5  A    between atoms: C_10  and  C_11
REMARK    6  A    between atoms: C_11  and  N_12
REMARK    7  A    between atoms: N_14  and  C_15
REMARK    8  A    between atoms: C_15  and  C_16
REMARK    9  A    between atoms: CA_17  and  C_43
REMARK   10  A    between atoms: CA_22  and  N_23
REMARK   11  A    between atoms: C_24  and  C_26
REMARK   12  A    between atoms: C_26  and  C_35
REMARK   13  A    between atoms: N_27  and  O_28
REMARK   14  A    between atoms: O_28  and  C_29
REMARK   15  A    between atoms: C_29  and  C_30
REMARK   16  A    between atoms: C_29  and  C_31
REMARK   17  A    between atoms: C_29  and  C_32
REMARK   18  A    between atoms: C_32  and  O_33
REMARK                            x       y       z     vdW  Elec       q    Type
REMARK                         _______ _______ _______ _____ _____    ______ ____
ROOT
ATOM      1  C   UNL     1      -8.362   4.064 133.344  0.00  0.00    +0.000 C 
ATOM      2  CA  UNL     1      -8.968   4.533 132.212  0.00  0.00    +0.000 C 
ATOM      3  N   UNL     1      -9.303   3.654 131.183  0.00  0.00    +0.000 N 
ATOM      4  C   UNL     1      -9.260   2.204 131.242  0.00  0.00    +0.000 C 
ATOM      5  S   UNL     1      -7.826   1.667 132.145  0.00  0.00    +0.000 S 
ATOM      6  C   UNL     1      -8.123   2.599 133.618  0.00  0.00    +0.000 C 
ATOM      7  CA  UNL     1      -9.272   2.192 129.686  0.00  0.00    +0.000 C 
ATOM      8  C   UNL     1      -9.170   3.745 129.831  0.00  0.00    +0.000 C 
ATOM      9  O   UNL     1      -8.919   4.630 129.035  0.00  0.00    +0.000 OA
ENDROOT
BRANCH   7  10
ATOM     10  N   UNL     1      -8.225   1.502 128.821  0.00  0.00    +0.000 N 
ATOM     11  C   UNL     1      -8.257   1.233 127.462  0.00  0.00    +0.000 C 
ATOM     12  O   UNL     1      -9.213   1.461 126.731  0.00  0.00    +0.000 OA
ATOM     13  H   UNL     1      -7.276   1.475 129.165  0.00  0.00    +0.000 HD
BRANCH  11  14
ATOM     14  C   UNL     1      -7.042   0.651 126.747  0.00  0.00    +0.000 C 
ATOM     15  N   UNL     1      -5.821   1.118 126.899  0.00  0.00    +0.000 NA
BRANCH  14  16
ATOM     16  C   UNL     1      -7.317  -0.486 125.791  0.00  0.00    +0.000 A 
ATOM     17  N   UNL     1      -7.039  -0.399 124.480  0.00  0.00    +0.000 NA
ATOM     18  S   UNL     1      -7.425  -1.875 123.783  0.00  0.00    +0.000 S 
ATOM     19  C   UNL     1      -7.961  -2.586 125.256  0.00  0.00    +0.000 A 
ATOM     20  N   UNL     1      -8.429  -3.845 125.360  0.00  0.00    +0.000 N 
ATOM     21  N   UNL     1      -7.851  -1.729 126.243  0.00  0.00    +0.000 NA
ATOM     22  H   UNL     1      -8.561  -4.456 124.563  0.00  0.00    +0.000 HD
ATOM     23  H   UNL     1      -8.750  -4.204 126.253  0.00  0.00    +0.000 HD
ENDBRANCH  14  16
BRANCH  15  24
ATOM     24  O   UNL     1      -5.738   2.238 127.779  0.00  0.00    +0.000 OA
BRANCH  24  25
ATOM     25  C   UNL     1      -4.788   3.224 127.341  0.00  0.00    +0.000 C 
ATOM     26  C   UNL     1      -3.472   3.075 128.107  0.00  0.00    +0.000 C 
ATOM     27  C   UNL     1      -4.552   3.081 125.834  0.00  0.00    +0.000 C 
BRANCH  25  28
ATOM     28  C   UNL     1      -5.295   4.676 127.575  0.00  0.00    +0.000 C 
ATOM     29  O   UNL     1      -5.201   5.558 126.728  0.00  0.00    +0.000 OA
BRANCH  28  30
ATOM     30  O   UNL     1      -5.882   4.955 128.758  0.00  0.00    +0.000 OA
ATOM     31  H   UNL     1      -5.869   4.289 129.459  0.00  0.00    +0.000 HD
ENDBRANCH  28  30
ENDBRANCH  25  28
ENDBRANCH  24  25
ENDBRANCH  15  24
ENDBRANCH  11  14
ENDBRANCH   7  10
BRANCH   2  32
ATOM     32  C   UNL     1      -9.325   6.095 132.028  0.00  0.00    +0.000 C 
ATOM     33  O   UNL     1     -10.386   6.473 132.586  0.00  0.00    +0.000 OA
ATOM     34  OXT UNL     1      -8.445   6.783 131.438  0.00  0.00    +0.000 OA
ENDBRANCH   2  32
BRANCH   1  35
ATOM     35  C   UNL     1      -7.825   4.918 134.478  0.00  0.00    +0.000 C 
BRANCH  35  41
ATOM     36  C   UNL     1      -5.481   4.349 136.646  0.00  0.00    +0.000 C 
ATOM     37  N   UNL     1      -5.386   5.005 135.363  0.00  0.00    +0.000 N 
ATOM     38  C   UNL     1      -4.167   5.498 134.907  0.00  0.00    +0.000 A 
ATOM     39  C   UNL     1      -4.280   5.972 133.545  0.00  0.00    +0.000 A 
ATOM     40  C   UNL     1      -5.689   5.775 133.262  0.00  0.00    +0.000 A 
ATOM     41  N   UNL     1      -6.352   5.224 134.417  0.00  0.00    +0.000 N 
BRANCH  39  42
ATOM     42  N   UNL     1      -3.277   6.484 132.704  0.00  0.00    +0.000 N 
ATOM     43  C   UNL     1      -3.153   6.117 131.380  0.00  0.00    +0.000 C 
ATOM     44  O   UNL     1      -3.865   5.315 130.783  0.00  0.00    +0.000 OA
ATOM     45  N   UNL     1      -2.134   6.672 130.667  0.00  0.00    +0.000 N 
ATOM     46  H   UNL     1      -2.648   7.177 133.083  0.00  0.00    +0.000 HD
ATOM     47  H   UNL     1      -1.529   7.384 131.043  0.00  0.00    +0.000 HD
BRANCH  45  48
ATOM     48  C   UNL     1      -2.034   6.269 129.260  0.00  0.00    +0.000 C 
BRANCH  48  49
ATOM     49  C   UNL     1      -2.612   7.286 128.286  0.00  0.00    +0.000 C 
BRANCH  49  50
ATOM     50  N   UNL     1      -3.980   7.661 128.633  0.00  0.00    +0.000 NA
ATOM     51  H   UNL     1      -4.625   7.390 127.892  0.00  0.00    +0.000 HD
ATOM     52  H   UNL     1      -4.046   8.675 128.713  0.00  0.00    +0.000 HD
ENDBRANCH  49  50
ENDBRANCH  48  49
ENDBRANCH  45  48
ENDBRANCH  39  42
BRANCH  38  53
ATOM     53  N   UNL     1      -3.083   5.504 135.719  0.00  0.00    +0.000 N 
ATOM     54  H   UNL     1      -2.972   5.147 136.654  0.00  0.00    +0.000 HD
ATOM     55  H   UNL     1      -2.177   5.813 135.359  0.00  0.00    +0.000 HD
ENDBRANCH  38  53
ENDBRANCH  35  41
ENDBRANCH   1  35
TORSDOF 15
ENDMDL
MODEL 9
REMARK VINA RESULT:      -7.8      2.539      7.331
REMARK  Name = Ceftolozane
REMARK  18 active torsions:
REMARK  status: ('A' for Active; 'I' for Inactive)
REMARK    1  A    between atoms: C_1  and  N_2
REMARK    2  A    between atoms: C_3  and  N_4
REMARK    3  A    between atoms: C_5  and  N_6
REMARK    4  A    between atoms: N_9  and  C_10
REMARK    5  A    between atoms: C_10  and  C_11
REMARK    6  A    between atoms: C_11  and  N_12
REMARK    7  A    between atoms: N_14  and  C_15
REMARK    8  A    between atoms: C_15  and  C_16
REMARK    9  A    between atoms: CA_17  and  C_43
REMARK   10  A    between atoms: CA_22  and  N_23
REMARK   11  A    between atoms: C_24  and  C_26
REMARK   12  A    between atoms: C_26  and  C_35
REMARK   13  A    between atoms: N_27  and  O_28
REMARK   14  A    between atoms: O_28  and  C_29
REMARK   15  A    between atoms: C_29  and  C_30
REMARK   16  A    between atoms: C_29  and  C_31
REMARK   17  A    between atoms: C_29  and  C_32
REMARK   18  A    between atoms: C_32  and  O_33
REMARK                            x       y       z     vdW  Elec       q    Type
REMARK                         _______ _______ _______ _____ _____    ______ ____
ROOT
ATOM      1  C   UNL     1      -7.303   1.000 132.162  0.00  0.00    +0.000 C 
ATOM      2  CA  UNL     1      -6.111   1.503 131.719  0.00  0.00    +0.000 C 
ATOM      3  N   UNL     1      -6.047   2.796 131.204  0.00  0.00    +0.000 N 
ATOM      4  C   UNL     1      -7.099   3.797 131.252  0.00  0.00    +0.000 C 
ATOM      5  S   UNL     1      -8.682   3.038 130.971  0.00  0.00    +0.000 S 
ATOM      6  C   UNL     1      -8.574   1.810 132.240  0.00  0.00    +0.000 C 
ATOM      7  CA  UNL     1      -6.363   4.551 130.108  0.00  0.00    +0.000 C 
ATOM      8  C   UNL     1      -5.416   3.308 130.111  0.00  0.00    +0.000 C 
ATOM      9  O   UNL     1      -4.565   2.921 129.331  0.00  0.00    +0.000 OA
ENDROOT
BRANCH   7  10
ATOM     10  N   UNL     1      -7.002   4.940 128.781  0.00  0.00    +0.000 N 
ATOM     11  C   UNL     1      -7.587   4.126 127.825  0.00  0.00    +0.000 C 
ATOM     12  O   UNL     1      -7.615   2.902 127.876  0.00  0.00    +0.000 OA
ATOM     13  H   UNL     1      -7.312   5.894 128.672  0.00  0.00    +0.000 HD
BRANCH  11  14
ATOM     14  C   UNL     1      -8.300   4.722 126.615  0.00  0.00    +0.000 C 
ATOM     15  N   UNL     1      -9.180   5.697 126.703  0.00  0.00    +0.000 NA
BRANCH  14  16
ATOM     16  C   UNL     1      -7.982   4.091 125.280  0.00  0.00    +0.000 A 
ATOM     17  N   UNL     1      -8.853   3.292 124.643  0.00  0.00    +0.000 NA
ATOM     18  S   UNL     1      -8.158   2.853 123.181  0.00  0.00    +0.000 S 
ATOM     19  C   UNL     1      -6.707   3.739 123.446  0.00  0.00    +0.000 A 
ATOM     20  N   UNL     1      -5.681   3.786 122.575  0.00  0.00    +0.000 N 
ATOM     21  N   UNL     1      -6.750   4.347 124.609  0.00  0.00    +0.000 NA
ATOM     22  H   UNL     1      -5.656   3.249 121.717  0.00  0.00    +0.000 HD
ATOM     23  H   UNL     1      -4.840   4.310 122.797  0.00  0.00    +0.000 HD
ENDBRANCH  14  16
BRANCH  15  24
ATOM     24  O   UNL     1      -9.424   6.135 128.038  0.00  0.00    +0.000 OA
BRANCH  24  25
ATOM     25  C   UNL     1     -10.568   6.998 128.144  0.00  0.00    +0.000 C 
ATOM     26  C   UNL     1     -11.580   6.425 129.138  0.00  0.00    +0.000 C 
ATOM     27  C   UNL     1     -10.121   8.398 128.578  0.00  0.00    +0.000 C 
BRANCH  25  28
ATOM     28  C   UNL     1     -11.305   7.170 126.784  0.00  0.00    +0.000 C 
ATOM     29  O   UNL     1     -12.398   6.663 126.552  0.00  0.00    +0.000 OA
BRANCH  28  30
ATOM     30  O   UNL     1     -10.714   7.931 125.840  0.00  0.00    +0.000 OA
ATOM     31  H   UNL     1     -10.787   7.670 124.911  0.00  0.00    +0.000 HD
ENDBRANCH  28  30
ENDBRANCH  25  28
ENDBRANCH  24  25
ENDBRANCH  15  24
ENDBRANCH  11  14
ENDBRANCH   7  10
BRANCH   2  32
ATOM     32  C   UNL     1      -4.751   0.639 131.786  0.00  0.00    +0.000 C 
ATOM     33  O   UNL     1      -4.499  -0.046 130.763  0.00  0.00    +0.000 OA
ATOM     34  OXT UNL     1      -4.040   0.832 132.812  0.00  0.00    +0.000 OA
ENDBRANCH   2  32
BRANCH   1  35
ATOM     35  C   UNL     1      -7.545  -0.425 132.622  0.00  0.00    +0.000 C 
BRANCH  35  41
ATOM     36  C   UNL     1      -5.815  -3.168 132.552  0.00  0.00    +0.000 C 
ATOM     37  N   UNL     1      -6.672  -2.613 131.530  0.00  0.00    +0.000 N 
ATOM     38  C   UNL     1      -6.841  -3.268 130.313  0.00  0.00    +0.000 A 
ATOM     39  C   UNL     1      -7.853  -2.614 129.513  0.00  0.00    +0.000 A 
ATOM     40  C   UNL     1      -8.217  -1.478 130.338  0.00  0.00    +0.000 A 
ATOM     41  N   UNL     1      -7.439  -1.478 131.550  0.00  0.00    +0.000 N 
BRANCH  39  42
ATOM     42  N   UNL     1      -8.362  -2.989 128.257  0.00  0.00    +0.000 N 
ATOM     43  C   UNL     1      -7.767  -2.617 127.070  0.00  0.00    +0.000 C 
ATOM     44  O   UNL     1      -6.760  -1.926 126.951  0.00  0.00    +0.000 OA
ATOM     45  N   UNL     1      -8.359  -3.031 125.915  0.00  0.00    +0.000 N 
ATOM     46  H   UNL     1      -9.177  -3.585 128.234  0.00  0.00    +0.000 HD
ATOM     47  H   UNL     1      -9.153  -3.649 125.899  0.00  0.00    +0.000 HD
BRANCH  45  48
ATOM     48  C   UNL     1      -7.697  -2.627 124.668  0.00  0.00    +0.000 C 
BRANCH  48  49
ATOM     49  C   UNL     1      -8.619  -2.623 123.457  0.00  0.00    +0.000 C 
BRANCH  49  50
ATOM     50  N   UNL     1      -9.878  -3.311 123.724  0.00  0.00    +0.000 NA
ATOM     51  H   UNL     1     -10.434  -3.383 122.872  0.00  0.00    +0.000 HD
ATOM     52  H   UNL     1     -10.433  -2.765 124.382  0.00  0.00    +0.000 HD
ENDBRANCH  49  50
ENDBRANCH  48  49
ENDBRANCH  45  48
ENDBRANCH  39  42
BRANCH  38  53
ATOM     53  N   UNL     1      -6.092  -4.355 130.011  0.00  0.00    +0.000 N 
ATOM     54  H   UNL     1      -5.662  -4.624 129.141  0.00  0.00    +0.000 HD
ATOM     55  H   UNL     1      -5.796  -4.993 130.753  0.00  0.00    +0.000 HD
ENDBRANCH  38  53
ENDBRANCH  35  41
ENDBRANCH   1  35
TORSDOF 15
ENDMDL
