MODEL 1
REMARK VINA RESULT:      -6.9      0.000      0.000
REMARK  Name = Ceftizoxime
REMARK  7 active torsions:
REMARK  status: ('A' for Active; 'I' for Inactive)
REMARK    1  A    between atoms: CA_6  and  C_24
REMARK    2  A    between atoms: CA_10  and  N_11
REMARK    3  A    between atoms: C_12  and  C_14
REMARK    4  A    between atoms: C_14  and  C_18
REMARK    5  A    between atoms: N_15  and  O_16
REMARK    6  A    between atoms: O_16  and  C_17
REMARK    7  A    between atoms: C_24  and  O_25
REMARK                            x       y       z     vdW  Elec       q    Type
REMARK                         _______ _______ _______ _____ _____    ______ ____
ROOT
ATOM      1  N   UNL     1      -7.221   2.073 125.627  0.00  0.00    +0.000 N 
ATOM      2  C   UNL     1      -7.861   3.277 125.902  0.00  0.00    +0.000 C 
ATOM      3  O   UNL     1      -8.793   3.668 125.208  0.00  0.00    +0.000 OA
ATOM      4  H   UNL     1      -6.438   1.829 126.229  0.00  0.00    +0.000 HD
ENDROOT
BRANCH   1  13
ATOM      5  CE  UNL     1      -6.873  -0.095 124.200  0.00  0.00    +0.000 C 
ATOM      6  SD  UNL     1      -5.659  -0.716 125.403  0.00  0.00    +0.000 S 
ATOM      7  CG  UNL     1      -5.615  -2.375 124.649  0.00  0.00    +0.000 C 
ATOM      8  CB  UNL     1      -6.989  -2.953 124.508  0.00  0.00    +0.000 C 
ATOM      9  CA  UNL     1      -8.136  -2.251 124.409  0.00  0.00    +0.000 C 
ATOM     10  N   UNL     1      -8.105  -0.884 124.309  0.00  0.00    +0.000 N 
ATOM     11  C   UNL     1      -8.812   0.073 124.966  0.00  0.00    +0.000 C 
ATOM     12  O   UNL     1      -9.877  -0.004 125.523  0.00  0.00    +0.000 OA
ATOM     13  CA  UNL     1      -7.735   1.142 124.598  0.00  0.00    +0.000 C 
BRANCH   9  14
ATOM     14  C   UNL     1      -9.413  -3.053 124.372  0.00  0.00    +0.000 C 
ATOM     15  OXT UNL     1      -9.826  -3.590 123.351  0.00  0.00    +0.000 OA
BRANCH  14  16
ATOM     16  O   UNL     1     -10.134  -3.076 125.509  0.00  0.00    +0.000 OA
ATOM     17  H   UNL     1     -10.320  -2.205 125.914  0.00  0.00    +0.000 HD
ENDBRANCH  14  16
ENDBRANCH   9  14
ENDBRANCH   1  13
BRANCH   2  18
ATOM     18  C   UNL     1      -7.336   4.146 127.076  0.00  0.00    +0.000 C 
ATOM     19  N   UNL     1      -6.191   4.793 127.069  0.00  0.00    +0.000 NA
BRANCH  18  20
ATOM     20  C   UNL     1      -8.184   4.332 128.274  0.00  0.00    +0.000 A 
ATOM     21  C   UNL     1      -8.269   3.397 129.291  0.00  0.00    +0.000 A 
ATOM     22  S   UNL     1      -9.311   3.938 130.535  0.00  0.00    +0.000 S 
ATOM     23  C   UNL     1      -9.608   5.382 129.654  0.00  0.00    +0.000 A 
ATOM     24  N   UNL     1     -10.439   6.311 130.144  0.00  0.00    +0.000 N 
ATOM     25  N   UNL     1      -8.970   5.473 128.507  0.00  0.00    +0.000 NA
ATOM     26  H   UNL     1     -10.893   6.206 131.043  0.00  0.00    +0.000 HD
ATOM     27  H   UNL     1     -10.600   7.176 129.644  0.00  0.00    +0.000 HD
ENDBRANCH  18  20
BRANCH  19  28
ATOM     28  O   UNL     1      -5.449   4.582 125.900  0.00  0.00    +0.000 OA
ATOM     29  C   UNL     1      -4.171   4.027 126.175  0.00  0.00    +0.000 C 
ENDBRANCH  19  28
ENDBRANCH   2  18
TORSDOF 6
ENDMDL
MODEL 2
REMARK VINA RESULT:      -6.7      3.302      4.936
REMARK  Name = Ceftizoxime
REMARK  7 active torsions:
REMARK  status: ('A' for Active; 'I' for Inactive)
REMARK    1  A    between atoms: CA_6  and  C_24
REMARK    2  A    between atoms: CA_10  and  N_11
REMARK    3  A    between atoms: C_12  and  C_14
REMARK    4  A    between atoms: C_14  and  C_18
REMARK    5  A    between atoms: N_15  and  O_16
REMARK    6  A    between atoms: O_16  and  C_17
REMARK    7  A    between atoms: C_24  and  O_25
REMARK                            x       y       z     vdW  Elec       q    Type
REMARK                         _______ _______ _______ _____ _____    ______ ____
ROOT
ATOM      1  N   UNL     1      -8.463   3.516 128.644  0.00  0.00    +0.000 N 
ATOM      2  C   UNL     1      -8.736   4.619 129.446  0.00  0.00    +0.000 C 
ATOM      3  O   UNL     1      -8.055   5.636 129.373  0.00  0.00    +0.000 OA
ATOM      4  H   UNL     1      -9.053   2.699 128.782  0.00  0.00    +0.000 HD
ENDROOT
BRANCH   1  13
ATOM      5  CE  UNL     1      -7.004   2.254 126.874  0.00  0.00    +0.000 C 
ATOM      6  SD  UNL     1      -8.141   0.835 126.920  0.00  0.00    +0.000 S 
ATOM      7  CG  UNL     1      -7.373   0.047 125.466  0.00  0.00    +0.000 C 
ATOM      8  CB  UNL     1      -7.296   0.991 124.305  0.00  0.00    +0.000 C 
ATOM      9  CA  UNL     1      -7.258   2.337 124.381  0.00  0.00    +0.000 C 
ATOM     10  N   UNL     1      -7.168   2.959 125.599  0.00  0.00    +0.000 N 
ATOM     11  C   UNL     1      -7.866   4.003 126.119  0.00  0.00    +0.000 C 
ATOM     12  O   UNL     1      -8.475   4.878 125.558  0.00  0.00    +0.000 OA
ATOM     13  CA  UNL     1      -7.453   3.578 127.564  0.00  0.00    +0.000 C 
BRANCH   9  14
ATOM     14  C   UNL     1      -7.279   3.083 123.070  0.00  0.00    +0.000 C 
ATOM     15  OXT UNL     1      -6.270   3.269 122.401  0.00  0.00    +0.000 OA
BRANCH  14  16
ATOM     16  O   UNL     1      -8.460   3.622 122.711  0.00  0.00    +0.000 OA
ATOM     17  H   UNL     1      -8.438   4.222 121.938  0.00  0.00    +0.000 HD
ENDBRANCH  14  16
ENDBRANCH   9  14
ENDBRANCH   1  13
BRANCH   2  18
ATOM     18  C   UNL     1      -9.891   4.519 130.478  0.00  0.00    +0.000 C 
ATOM     19  N   UNL     1      -9.922   3.666 131.479  0.00  0.00    +0.000 NA
BRANCH  18  20
ATOM     20  C   UNL     1     -11.018   5.475 130.398  0.00  0.00    +0.000 A 
ATOM     21  C   UNL     1     -11.415   6.263 131.464  0.00  0.00    +0.000 A 
ATOM     22  S   UNL     1     -12.724   7.273 131.024  0.00  0.00    +0.000 S 
ATOM     23  C   UNL     1     -12.704   6.604 129.443  0.00  0.00    +0.000 A 
ATOM     24  N   UNL     1     -13.590   7.016 128.526  0.00  0.00    +0.000 N 
ATOM     25  N   UNL     1     -11.781   5.690 129.238  0.00  0.00    +0.000 NA
ATOM     26  H   UNL     1     -14.272   7.738 128.724  0.00  0.00    +0.000 HD
ATOM     27  H   UNL     1     -13.570   6.646 127.585  0.00  0.00    +0.000 HD
ENDBRANCH  18  20
BRANCH  19  28
ATOM     28  O   UNL     1      -8.820   2.803 131.500  0.00  0.00    +0.000 OA
ATOM     29  C   UNL     1      -9.209   1.446 131.647  0.00  0.00    +0.000 C 
ENDBRANCH  19  28
ENDBRANCH   2  18
TORSDOF 6
ENDMDL
MODEL 3
REMARK VINA RESULT:      -6.6      3.911      5.241
REMARK  Name = Ceftizoxime
REMARK  7 active torsions:
REMARK  status: ('A' for Active; 'I' for Inactive)
REMARK    1  A    between atoms: CA_6  and  C_24
REMARK    2  A    between atoms: CA_10  and  N_11
REMARK    3  A    between atoms: C_12  and  C_14
REMARK    4  A    between atoms: C_14  and  C_18
REMARK    5  A    between atoms: N_15  and  O_16
REMARK    6  A    between atoms: O_16  and  C_17
REMARK    7  A    between atoms: C_24  and  O_25
REMARK                            x       y       z     vdW  Elec       q    Type
REMARK                         _______ _______ _______ _____ _____    ______ ____
ROOT
ATOM      1  N   UNL     1      -7.684   3.759 127.499  0.00  0.00    +0.000 N 
ATOM      2  C   UNL     1      -7.602   4.597 128.607  0.00  0.00    +0.000 C 
ATOM      3  O   UNL     1      -6.539   5.120 128.923  0.00  0.00    +0.000 OA
ATOM      4  H   UNL     1      -8.592   3.339 127.317  0.00  0.00    +0.000 HD
ENDROOT
BRANCH   1  13
ATOM      5  CE  UNL     1      -6.603   2.464 125.497  0.00  0.00    +0.000 C 
ATOM      6  SD  UNL     1      -8.238   1.853 124.985  0.00  0.00    +0.000 S 
ATOM      7  CG  UNL     1      -7.609   1.210 123.399  0.00  0.00    +0.000 C 
ATOM      8  CB  UNL     1      -6.858   2.259 122.639  0.00  0.00    +0.000 C 
ATOM      9  CA  UNL     1      -6.233   3.328 123.172  0.00  0.00    +0.000 C 
ATOM     10  N   UNL     1      -6.143   3.469 124.533  0.00  0.00    +0.000 N 
ATOM     11  C   UNL     1      -6.389   4.538 125.335  0.00  0.00    +0.000 C 
ATOM     12  O   UNL     1      -6.394   5.713 125.071  0.00  0.00    +0.000 OA
ATOM     13  CA  UNL     1      -6.545   3.595 126.569  0.00  0.00    +0.000 C 
BRANCH   9  14
ATOM     14  C   UNL     1      -5.622   4.304 122.197  0.00  0.00    +0.000 C 
ATOM     15  OXT UNL     1      -4.586   4.912 122.434  0.00  0.00    +0.000 OA
BRANCH  14  16
ATOM     16  O   UNL     1      -6.329   4.545 121.076  0.00  0.00    +0.000 OA
ATOM     17  H   UNL     1      -6.418   3.792 120.458  0.00  0.00    +0.000 HD
ENDBRANCH  14  16
ENDBRANCH   9  14
ENDBRANCH   1  13
BRANCH   2  18
ATOM     18  C   UNL     1      -8.873   4.815 129.470  0.00  0.00    +0.000 C 
ATOM     19  N   UNL     1      -9.880   5.590 129.129  0.00  0.00    +0.000 NA
BRANCH  18  20
ATOM     20  C   UNL     1      -9.024   4.065 130.737  0.00  0.00    +0.000 A 
ATOM     21  C   UNL     1      -8.895   2.690 130.821  0.00  0.00    +0.000 A 
ATOM     22  S   UNL     1      -9.100   2.153 132.432  0.00  0.00    +0.000 S 
ATOM     23  C   UNL     1      -9.362   3.774 132.936  0.00  0.00    +0.000 A 
ATOM     24  N   UNL     1      -9.615   4.046 134.223  0.00  0.00    +0.000 N 
ATOM     25  N   UNL     1      -9.296   4.671 131.976  0.00  0.00    +0.000 NA
ATOM     26  H   UNL     1      -9.637   3.323 134.931  0.00  0.00    +0.000 HD
ATOM     27  H   UNL     1      -9.745   5.000 134.533  0.00  0.00    +0.000 HD
ENDBRANCH  18  20
BRANCH  19  28
ATOM     28  O   UNL     1      -9.673   6.255 127.915  0.00  0.00    +0.000 OA
ATOM     29  C   UNL     1     -10.617   7.296 127.712  0.00  0.00    +0.000 C 
ENDBRANCH  19  28
ENDBRANCH   2  18
TORSDOF 6
ENDMDL
MODEL 4
REMARK VINA RESULT:      -6.5      2.104      3.628
REMARK  Name = Ceftizoxime
REMARK  7 active torsions:
REMARK  status: ('A' for Active; 'I' for Inactive)
REMARK    1  A    between atoms: CA_6  and  C_24
REMARK    2  A    between atoms: CA_10  and  N_11
REMARK    3  A    between atoms: C_12  and  C_14
REMARK    4  A    between atoms: C_14  and  C_18
REMARK    5  A    between atoms: N_15  and  O_16
REMARK    6  A    between atoms: O_16  and  C_17
REMARK    7  A    between atoms: C_24  and  O_25
REMARK                            x       y       z     vdW  Elec       q    Type
REMARK                         _______ _______ _______ _____ _____    ______ ____
ROOT
ATOM      1  N   UNL     1      -6.728   1.852 126.012  0.00  0.00    +0.000 N 
ATOM      2  C   UNL     1      -6.925   3.226 126.107  0.00  0.00    +0.000 C 
ATOM      3  O   UNL     1      -7.507   3.842 125.222  0.00  0.00    +0.000 OA
ATOM      4  H   UNL     1      -6.211   1.416 126.771  0.00  0.00    +0.000 HD
ENDROOT
BRANCH   1  13
ATOM      5  CE  UNL     1      -6.618  -0.223 124.419  0.00  0.00    +0.000 C 
ATOM      6  SD  UNL     1      -5.450  -1.048 125.544  0.00  0.00    +0.000 S 
ATOM      7  CG  UNL     1      -5.580  -2.641 124.667  0.00  0.00    +0.000 C 
ATOM      8  CB  UNL     1      -7.007  -3.071 124.516  0.00  0.00    +0.000 C 
ATOM      9  CA  UNL     1      -8.081  -2.257 124.497  0.00  0.00    +0.000 C 
ATOM     10  N   UNL     1      -7.918  -0.896 124.499  0.00  0.00    +0.000 N 
ATOM     11  C   UNL     1      -8.517   0.071 125.241  0.00  0.00    +0.000 C 
ATOM     12  O   UNL     1      -9.576   0.055 125.817  0.00  0.00    +0.000 OA
ATOM     13  CA  UNL     1      -7.348   1.057 124.929  0.00  0.00    +0.000 C 
BRANCH   9  14
ATOM     14  C   UNL     1      -9.431  -2.928 124.431  0.00  0.00    +0.000 C 
ATOM     15  OXT UNL     1      -9.921  -3.324 123.381  0.00  0.00    +0.000 OA
BRANCH  14  16
ATOM     16  O   UNL     1     -10.121  -2.990 125.586  0.00  0.00    +0.000 OA
ATOM     17  H   UNL     1     -10.654  -3.799 125.721  0.00  0.00    +0.000 HD
ENDBRANCH  14  16
ENDBRANCH   9  14
ENDBRANCH   1  13
BRANCH   2  18
ATOM     18  C   UNL     1      -6.344   3.976 127.336  0.00  0.00    +0.000 C 
ATOM     19  N   UNL     1      -7.049   4.350 128.381  0.00  0.00    +0.000 NA
BRANCH  18  20
ATOM     20  C   UNL     1      -4.890   4.249 127.397  0.00  0.00    +0.000 A 
ATOM     21  C   UNL     1      -4.345   5.267 128.158  0.00  0.00    +0.000 A 
ATOM     22  S   UNL     1      -2.640   5.285 128.025  0.00  0.00    +0.000 S 
ATOM     23  C   UNL     1      -2.713   3.945 126.953  0.00  0.00    +0.000 A 
ATOM     24  N   UNL     1      -1.587   3.438 126.433  0.00  0.00    +0.000 N 
ATOM     25  N   UNL     1      -3.924   3.497 126.706  0.00  0.00    +0.000 NA
ATOM     26  H   UNL     1      -0.673   3.805 126.668  0.00  0.00    +0.000 HD
ATOM     27  H   UNL     1      -1.618   2.633 125.820  0.00  0.00    +0.000 HD
ENDBRANCH  18  20
BRANCH  19  28
ATOM     28  O   UNL     1      -8.412   4.048 128.260  0.00  0.00    +0.000 OA
ATOM     29  C   UNL     1      -8.846   3.139 129.260  0.00  0.00    +0.000 C 
ENDBRANCH  19  28
ENDBRANCH   2  18
TORSDOF 6
ENDMDL
MODEL 5
REMARK VINA RESULT:      -6.4      5.591      7.670
REMARK  Name = Ceftizoxime
REMARK  7 active torsions:
REMARK  status: ('A' for Active; 'I' for Inactive)
REMARK    1  A    between atoms: CA_6  and  C_24
REMARK    2  A    between atoms: CA_10  and  N_11
REMARK    3  A    between atoms: C_12  and  C_14
REMARK    4  A    between atoms: C_14  and  C_18
REMARK    5  A    between atoms: N_15  and  O_16
REMARK    6  A    between atoms: O_16  and  C_17
REMARK    7  A    between atoms: C_24  and  O_25
REMARK                            x       y       z     vdW  Elec       q    Type
REMARK                         _______ _______ _______ _____ _____    ______ ____
ROOT
ATOM      1  N   UNL     1      -7.225   4.232 130.135  0.00  0.00    +0.000 N 
ATOM      2  C   UNL     1      -8.243   4.871 130.834  0.00  0.00    +0.000 C 
ATOM      3  O   UNL     1      -8.005   5.505 131.856  0.00  0.00    +0.000 OA
ATOM      4  H   UNL     1      -7.505   3.701 129.313  0.00  0.00    +0.000 HD
ENDROOT
BRANCH   1  13
ATOM      5  CE  UNL     1      -4.711   3.642 129.702  0.00  0.00    +0.000 C 
ATOM      6  SD  UNL     1      -5.112   3.082 128.018  0.00  0.00    +0.000 S 
ATOM      7  CG  UNL     1      -3.358   2.964 127.535  0.00  0.00    +0.000 C 
ATOM      8  CB  UNL     1      -2.623   4.239 127.815  0.00  0.00    +0.000 C 
ATOM      9  CA  UNL     1      -2.955   5.155 128.746  0.00  0.00    +0.000 C 
ATOM     10  N   UNL     1      -3.979   4.911 129.624  0.00  0.00    +0.000 N 
ATOM     11  C   UNL     1      -5.026   5.686 130.010  0.00  0.00    +0.000 C 
ATOM     12  O   UNL     1      -5.147   6.885 129.981  0.00  0.00    +0.000 OA
ATOM     13  CA  UNL     1      -5.803   4.423 130.496  0.00  0.00    +0.000 C 
BRANCH   9  14
ATOM     14  C   UNL     1      -2.118   6.410 128.781  0.00  0.00    +0.000 C 
ATOM     15  OXT UNL     1      -2.131   7.237 127.878  0.00  0.00    +0.000 OA
BRANCH  14  16
ATOM     16  O   UNL     1      -1.276   6.534 129.825  0.00  0.00    +0.000 OA
ATOM     17  H   UNL     1      -1.311   5.817 130.489  0.00  0.00    +0.000 HD
ENDBRANCH  14  16
ENDBRANCH   9  14
ENDBRANCH   1  13
BRANCH   2  18
ATOM     18  C   UNL     1      -9.702   4.721 130.325  0.00  0.00    +0.000 C 
ATOM     19  N   UNL     1     -10.349   3.578 130.248  0.00  0.00    +0.000 NA
BRANCH  18  20
ATOM     20  C   UNL     1     -10.467   5.932 129.954  0.00  0.00    +0.000 A 
ATOM     21  C   UNL     1     -11.644   6.302 130.580  0.00  0.00    +0.000 A 
ATOM     22  S   UNL     1     -12.250   7.763 129.929  0.00  0.00    +0.000 S 
ATOM     23  C   UNL     1     -10.925   7.824 128.840  0.00  0.00    +0.000 A 
ATOM     24  N   UNL     1     -10.820   8.832 127.963  0.00  0.00    +0.000 N 
ATOM     25  N   UNL     1     -10.071   6.829 128.948  0.00  0.00    +0.000 NA
ATOM     26  H   UNL     1     -11.493   9.588 127.930  0.00  0.00    +0.000 HD
ATOM     27  H   UNL     1     -10.029   8.890 127.335  0.00  0.00    +0.000 HD
ENDBRANCH  18  20
BRANCH  19  28
ATOM     28  O   UNL     1      -9.569   2.479 130.627  0.00  0.00    +0.000 OA
ATOM     29  C   UNL     1      -9.963   1.956 131.886  0.00  0.00    +0.000 C 
ENDBRANCH  19  28
ENDBRANCH   2  18
TORSDOF 6
ENDMDL
MODEL 6
REMARK VINA RESULT:      -6.4      6.474      8.640
REMARK  Name = Ceftizoxime
REMARK  7 active torsions:
REMARK  status: ('A' for Active; 'I' for Inactive)
REMARK    1  A    between atoms: CA_6  and  C_24
REMARK    2  A    between atoms: CA_10  and  N_11
REMARK    3  A    between atoms: C_12  and  C_14
REMARK    4  A    between atoms: C_14  and  C_18
REMARK    5  A    between atoms: N_15  and  O_16
REMARK    6  A    between atoms: O_16  and  C_17
REMARK    7  A    between atoms: C_24  and  O_25
REMARK                            x       y       z     vdW  Elec       q    Type
REMARK                         _______ _______ _______ _____ _____    ______ ____
ROOT
ATOM      1  N   UNL     1      -8.784   3.991 131.555  0.00  0.00    +0.000 N 
ATOM      2  C   UNL     1      -8.918   2.946 132.465  0.00  0.00    +0.000 C 
ATOM      3  O   UNL     1      -9.897   2.210 132.438  0.00  0.00    +0.000 OA
ATOM      4  H   UNL     1      -7.959   4.576 131.658  0.00  0.00    +0.000 HD
ENDROOT
BRANCH   1  13
ATOM      5  CE  UNL     1     -11.017   5.002 130.638  0.00  0.00    +0.000 C 
ATOM      6  SD  UNL     1     -11.014   6.255 131.957  0.00  0.00    +0.000 S 
ATOM      7  CG  UNL     1     -12.367   7.207 131.190  0.00  0.00    +0.000 C 
ATOM      8  CB  UNL     1     -12.068   7.532 129.759  0.00  0.00    +0.000 C 
ATOM      9  CA  UNL     1     -11.253   6.834 128.943  0.00  0.00    +0.000 C 
ATOM     10  N   UNL     1     -10.703   5.650 129.360  0.00  0.00    +0.000 N 
ATOM     11  C   UNL     1      -9.427   5.188 129.293  0.00  0.00    +0.000 C 
ATOM     12  O   UNL     1      -8.532   5.507 128.552  0.00  0.00    +0.000 OA
ATOM     13  CA  UNL     1      -9.725   4.156 130.426  0.00  0.00    +0.000 C 
BRANCH   9  14
ATOM     14  C   UNL     1     -11.031   7.409 127.565  0.00  0.00    +0.000 C 
ATOM     15  OXT UNL     1     -10.699   8.573 127.381  0.00  0.00    +0.000 OA
BRANCH  14  16
ATOM     16  O   UNL     1     -11.307   6.593 126.529  0.00  0.00    +0.000 OA
ATOM     17  H   UNL     1     -12.125   6.797 126.032  0.00  0.00    +0.000 HD
ENDBRANCH  14  16
ENDBRANCH   9  14
ENDBRANCH   1  13
BRANCH   2  18
ATOM     18  C   UNL     1      -7.826   2.763 133.552  0.00  0.00    +0.000 C 
ATOM     19  N   UNL     1      -7.185   1.638 133.782  0.00  0.00    +0.000 NA
BRANCH  18  20
ATOM     20  C   UNL     1      -7.408   3.930 134.361  0.00  0.00    +0.000 A 
ATOM     21  C   UNL     1      -6.092   4.345 134.461  0.00  0.00    +0.000 A 
ATOM     22  S   UNL     1      -5.962   5.737 135.447  0.00  0.00    +0.000 S 
ATOM     23  C   UNL     1      -7.661   5.711 135.701  0.00  0.00    +0.000 A 
ATOM     24  N   UNL     1      -8.240   6.636 136.478  0.00  0.00    +0.000 N 
ATOM     25  N   UNL     1      -8.298   4.737 135.090  0.00  0.00    +0.000 NA
ATOM     26  H   UNL     1      -7.709   7.381 136.913  0.00  0.00    +0.000 HD
ATOM     27  H   UNL     1      -9.242   6.644 136.613  0.00  0.00    +0.000 HD
ENDBRANCH  18  20
BRANCH  19  28
ATOM     28  O   UNL     1      -7.623   0.582 132.972  0.00  0.00    +0.000 OA
ATOM     29  C   UNL     1      -6.540  -0.172 132.449  0.00  0.00    +0.000 C 
ENDBRANCH  19  28
ENDBRANCH   2  18
TORSDOF 6
ENDMDL
MODEL 7
REMARK VINA RESULT:      -6.3      3.094      4.069
REMARK  Name = Ceftizoxime
REMARK  7 active torsions:
REMARK  status: ('A' for Active; 'I' for Inactive)
REMARK    1  A    between atoms: CA_6  and  C_24
REMARK    2  A    between atoms: CA_10  and  N_11
REMARK    3  A    between atoms: C_12  and  C_14
REMARK    4  A    between atoms: C_14  and  C_18
REMARK    5  A    between atoms: N_15  and  O_16
REMARK    6  A    between atoms: O_16  and  C_17
REMARK    7  A    between atoms: C_24  and  O_25
REMARK                            x       y       z     vdW  Elec       q    Type
REMARK                         _______ _______ _______ _____ _____    ______ ____
ROOT
ATOM      1  N   UNL     1      -8.496   2.957 128.895  0.00  0.00    +0.000 N 
ATOM      2  C   UNL     1      -8.139   4.296 129.016  0.00  0.00    +0.000 C 
ATOM      3  O   UNL     1      -7.125   4.729 128.480  0.00  0.00    +0.000 OA
ATOM      4  H   UNL     1      -9.334   2.666 129.391  0.00  0.00    +0.000 HD
ENDROOT
BRANCH   1  13
ATOM      5  CE  UNL     1      -7.185   0.715 128.564  0.00  0.00    +0.000 C 
ATOM      6  SD  UNL     1      -7.948   0.026 130.065  0.00  0.00    +0.000 S 
ATOM      7  CG  UNL     1      -7.336  -1.657 129.720  0.00  0.00    +0.000 C 
ATOM      8  CB  UNL     1      -7.707  -2.105 128.340  0.00  0.00    +0.000 C 
ATOM      9  CA  UNL     1      -7.953  -1.301 127.286  0.00  0.00    +0.000 C 
ATOM     10  N   UNL     1      -7.757   0.052 127.388  0.00  0.00    +0.000 N 
ATOM     11  C   UNL     1      -8.547   1.096 127.024  0.00  0.00    +0.000 C 
ATOM     12  O   UNL     1      -9.435   1.142 126.211  0.00  0.00    +0.000 OA
ATOM     13  CA  UNL     1      -7.766   2.043 127.989  0.00  0.00    +0.000 C 
BRANCH   9  14
ATOM     14  C   UNL     1      -8.403  -1.978 126.016  0.00  0.00    +0.000 C 
ATOM     15  OXT UNL     1      -7.622  -2.527 125.248  0.00  0.00    +0.000 OA
BRANCH  14  16
ATOM     16  O   UNL     1      -9.712  -1.871 125.717  0.00  0.00    +0.000 OA
ATOM     17  H   UNL     1     -10.088  -0.969 125.766  0.00  0.00    +0.000 HD
ENDBRANCH  14  16
ENDBRANCH   9  14
ENDBRANCH   1  13
BRANCH   2  18
ATOM     18  C   UNL     1      -9.022   5.224 129.892  0.00  0.00    +0.000 C 
ATOM     19  N   UNL     1      -9.062   5.191 131.206  0.00  0.00    +0.000 NA
BRANCH  18  20
ATOM     20  C   UNL     1      -9.840   6.271 129.239  0.00  0.00    +0.000 A 
ATOM     21  C   UNL     1     -10.588   7.195 129.948  0.00  0.00    +0.000 A 
ATOM     22  S   UNL     1     -11.387   8.276 128.890  0.00  0.00    +0.000 S 
ATOM     23  C   UNL     1     -10.708   7.456 127.544  0.00  0.00    +0.000 A 
ATOM     24  N   UNL     1     -10.990   7.859 126.297  0.00  0.00    +0.000 N 
ATOM     25  N   UNL     1      -9.926   6.442 127.847  0.00  0.00    +0.000 NA
ATOM     26  H   UNL     1     -11.583   8.659 126.113  0.00  0.00    +0.000 HD
ATOM     27  H   UNL     1     -10.575   7.397 125.499  0.00  0.00    +0.000 HD
ENDBRANCH  18  20
BRANCH  19  28
ATOM     28  O   UNL     1      -8.255   4.187 131.754  0.00  0.00    +0.000 OA
ATOM     29  C   UNL     1      -9.002   3.281 132.552  0.00  0.00    +0.000 C 
ENDBRANCH  19  28
ENDBRANCH   2  18
TORSDOF 6
ENDMDL
MODEL 8
REMARK VINA RESULT:      -6.2      3.825      4.800
REMARK  Name = Ceftizoxime
REMARK  7 active torsions:
REMARK  status: ('A' for Active; 'I' for Inactive)
REMARK    1  A    between atoms: CA_6  and  C_24
REMARK    2  A    between atoms: CA_10  and  N_11
REMARK    3  A    between atoms: C_12  and  C_14
REMARK    4  A    between atoms: C_14  and  C_18
REMARK    5  A    between atoms: N_15  and  O_16
REMARK    6  A    between atoms: O_16  and  C_17
REMARK    7  A    between atoms: C_24  and  O_25
REMARK                            x       y       z     vdW  Elec       q    Type
REMARK                         _______ _______ _______ _____ _____    ______ ____
ROOT
ATOM      1  N   UNL     1      -6.389   3.960 126.491  0.00  0.00    +0.000 N 
ATOM      2  C   UNL     1      -6.338   3.295 127.712  0.00  0.00    +0.000 C 
ATOM      3  O   UNL     1      -6.070   2.100 127.768  0.00  0.00    +0.000 OA
ATOM      4  H   UNL     1      -6.646   4.943 126.523  0.00  0.00    +0.000 HD
ENDROOT
BRANCH   1  13
ATOM      5  CE  UNL     1      -7.014   2.476 124.427  0.00  0.00    +0.000 C 
ATOM      6  SD  UNL     1      -8.775   2.874 124.651  0.00  0.00    +0.000 S 
ATOM      7  CG  UNL     1      -9.245   2.141 123.048  0.00  0.00    +0.000 C 
ATOM      8  CB  UNL     1      -8.421   2.696 121.927  0.00  0.00    +0.000 C 
ATOM      9  CA  UNL     1      -7.183   3.218 122.038  0.00  0.00    +0.000 C 
ATOM     10  N   UNL     1      -6.514   3.166 123.234  0.00  0.00    +0.000 N 
ATOM     11  C   UNL     1      -5.835   4.125 123.916  0.00  0.00    +0.000 C 
ATOM     12  O   UNL     1      -5.329   5.143 123.515  0.00  0.00    +0.000 OA
ATOM     13  CA  UNL     1      -5.967   3.301 125.235  0.00  0.00    +0.000 C 
BRANCH   9  14
ATOM     14  C   UNL     1      -6.587   3.805 120.782  0.00  0.00    +0.000 C 
ATOM     15  OXT UNL     1      -7.274   4.230 119.862  0.00  0.00    +0.000 OA
BRANCH  14  16
ATOM     16  O   UNL     1      -5.245   3.755 120.682  0.00  0.00    +0.000 OA
ATOM     17  H   UNL     1      -4.860   2.865 120.551  0.00  0.00    +0.000 HD
ENDBRANCH  14  16
ENDBRANCH   9  14
ENDBRANCH   1  13
BRANCH   2  18
ATOM     18  C   UNL     1      -6.680   4.085 129.003  0.00  0.00    +0.000 C 
ATOM     19  N   UNL     1      -6.059   5.176 129.395  0.00  0.00    +0.000 NA
BRANCH  18  20
ATOM     20  C   UNL     1      -7.820   3.646 129.839  0.00  0.00    +0.000 A 
ATOM     21  C   UNL     1      -7.667   2.876 130.979  0.00  0.00    +0.000 A 
ATOM     22  S   UNL     1      -9.178   2.573 131.721  0.00  0.00    +0.000 S 
ATOM     23  C   UNL     1      -9.961   3.471 130.484  0.00  0.00    +0.000 A 
ATOM     24  N   UNL     1     -11.294   3.610 130.494  0.00  0.00    +0.000 N 
ATOM     25  N   UNL     1      -9.159   3.977 129.573  0.00  0.00    +0.000 NA
ATOM     26  H   UNL     1     -11.870   3.218 131.229  0.00  0.00    +0.000 HD
ATOM     27  H   UNL     1     -11.762   4.158 129.784  0.00  0.00    +0.000 HD
ENDBRANCH  18  20
BRANCH  19  28
ATOM     28  O   UNL     1      -5.002   5.539 128.551  0.00  0.00    +0.000 OA
ATOM     29  C   UNL     1      -4.047   6.352 129.214  0.00  0.00    +0.000 C 
ENDBRANCH  19  28
ENDBRANCH   2  18
TORSDOF 6
ENDMDL
MODEL 9
REMARK VINA RESULT:      -6.2      5.484      6.148
REMARK  Name = Ceftizoxime
REMARK  7 active torsions:
REMARK  status: ('A' for Active; 'I' for Inactive)
REMARK    1  A    between atoms: CA_6  and  C_24
REMARK    2  A    between atoms: CA_10  and  N_11
REMARK    3  A    between atoms: C_12  and  C_14
REMARK    4  A    between atoms: C_14  and  C_18
REMARK    5  A    between atoms: N_15  and  O_16
REMARK    6  A    between atoms: O_16  and  C_17
REMARK    7  A    between atoms: C_24  and  O_25
REMARK                            x       y       z     vdW  Elec       q    Type
REMARK                         _______ _______ _______ _____ _____    ______ ____
ROOT
ATOM      1  N   UNL     1      -9.139   3.695 130.728  0.00  0.00    +0.000 N 
ATOM      2  C   UNL     1      -9.221   4.753 129.828  0.00  0.00    +0.000 C 
ATOM      3  O   UNL     1      -8.891   4.609 128.656  0.00  0.00    +0.000 OA
ATOM      4  H   UNL     1      -9.402   3.899 131.689  0.00  0.00    +0.000 HD
ENDROOT
BRANCH   1  13
ATOM      5  CE  UNL     1      -7.318   1.872 130.264  0.00  0.00    +0.000 C 
ATOM      6  SD  UNL     1      -6.152   2.730 131.366  0.00  0.00    +0.000 S 
ATOM      7  CG  UNL     1      -4.970   1.342 131.355  0.00  0.00    +0.000 C 
ATOM      8  CB  UNL     1      -5.634   0.050 131.720  0.00  0.00    +0.000 C 
ATOM      9  CA  UNL     1      -6.941  -0.240 131.560  0.00  0.00    +0.000 C 
ATOM     10  N   UNL     1      -7.771   0.637 130.912  0.00  0.00    +0.000 N 
ATOM     11  C   UNL     1      -9.001   1.110 131.244  0.00  0.00    +0.000 C 
ATOM     12  O   UNL     1      -9.836   0.638 131.973  0.00  0.00    +0.000 OA
ATOM     13  CA  UNL     1      -8.811   2.324 130.280  0.00  0.00    +0.000 C 
BRANCH   9  14
ATOM     14  C   UNL     1      -7.401  -1.575 132.091  0.00  0.00    +0.000 C 
ATOM     15  OXT UNL     1      -7.297  -2.613 131.449  0.00  0.00    +0.000 OA
BRANCH  14  16
ATOM     16  O   UNL     1      -8.023  -1.558 133.286  0.00  0.00    +0.000 OA
ATOM     17  H   UNL     1      -7.476  -1.278 134.047  0.00  0.00    +0.000 HD
ENDBRANCH  14  16
ENDBRANCH   9  14
ENDBRANCH   1  13
BRANCH   2  18
ATOM     18  C   UNL     1      -9.688   6.138 130.349  0.00  0.00    +0.000 C 
ATOM     19  N   UNL     1      -9.030   6.863 131.227  0.00  0.00    +0.000 NA
BRANCH  18  20
ATOM     20  C   UNL     1     -10.920   6.742 129.795  0.00  0.00    +0.000 A 
ATOM     21  C   UNL     1     -12.065   6.011 129.530  0.00  0.00    +0.000 A 
ATOM     22  S   UNL     1     -13.308   7.019 128.926  0.00  0.00    +0.000 S 
ATOM     23  C   UNL     1     -12.259   8.374 129.036  0.00  0.00    +0.000 A 
ATOM     24  N   UNL     1     -12.684   9.588 128.660  0.00  0.00    +0.000 N 
ATOM     25  N   UNL     1     -11.057   8.109 129.500  0.00  0.00    +0.000 NA
ATOM     26  H   UNL     1     -13.627   9.747 128.328  0.00  0.00    +0.000 HD
ATOM     27  H   UNL     1     -12.082  10.396 128.746  0.00  0.00    +0.000 HD
ENDBRANCH  18  20
BRANCH  19  28
ATOM     28  O   UNL     1      -7.869   6.236 131.698  0.00  0.00    +0.000 OA
ATOM     29  C   UNL     1      -6.692   6.879 131.234  0.00  0.00    +0.000 C 
ENDBRANCH  19  28
ENDBRANCH   2  18
TORSDOF 6
ENDMDL
