MODEL 1
REMARK VINA RESULT:      -8.7      0.000      0.000
REMARK  Name = Ceftobiprole
REMARK  8 active torsions:
REMARK  status: ('A' for Active; 'I' for Inactive)
REMARK    1  A    between atoms: CA_2  and  N_3
REMARK    2  A    between atoms: C_4  and  C_6
REMARK    3  A    between atoms: C_6  and  C_9
REMARK    4  A    between atoms: N_7  and  O_8
REMARK    5  A    between atoms: CA_18  and  C_19
REMARK    6  A    between atoms: C_19  and  O_20
REMARK    7  A    between atoms: C_22  and  C_27
REMARK    8  A    between atoms: N_31  and  C_34
REMARK                            x       y       z     vdW  Elec       q    Type
REMARK                         _______ _______ _______ _____ _____    ______ ____
ROOT
ATOM      1  CA  UNL     1      -7.236   4.482 131.059  0.00  0.00    +0.000 C 
ATOM      2  C   UNL     1      -6.582   4.421 129.647  0.00  0.00    +0.000 C 
ATOM      3  O   UNL     1      -6.281   5.170 128.754  0.00  0.00    +0.000 OA
ATOM      4  N   UNL     1      -6.307   3.098 129.803  0.00  0.00    +0.000 N 
ATOM      5  CA  UNL     1      -6.038   2.114 128.879  0.00  0.00    +0.000 C 
ATOM      6  C   UNL     1      -6.632   0.896 128.998  0.00  0.00    +0.000 C 
ATOM      7  C   UNL     1      -7.653   0.536 130.059  0.00  0.00    +0.000 C 
ATOM      8  S   UNL     1      -8.528   1.913 130.796  0.00  0.00    +0.000 S 
ATOM      9  C   UNL     1      -7.068   2.928 131.040  0.00  0.00    +0.000 C 
ENDROOT
BRANCH   6  10
ATOM     10  C   UNL     1      -6.353  -0.222 128.092  0.00  0.00    +0.000 C 
ATOM     11  C   UNL     1      -7.024  -0.493 126.963  0.00  0.00    +0.000 C 
ATOM     12  C   UNL     1      -8.178   0.237 126.359  0.00  0.00    +0.000 C 
ATOM     13  C   UNL     1      -8.404  -0.465 125.035  0.00  0.00    +0.000 C 
ATOM     14  N   UNL     1      -7.589  -1.661 125.067  0.00  0.00    +0.000 N 
ATOM     15  C   UNL     1      -6.677  -1.659 126.102  0.00  0.00    +0.000 C 
ATOM     16  O   UNL     1      -5.801  -2.475 126.324  0.00  0.00    +0.000 OA
BRANCH  14  17
ATOM     17  C   UNL     1      -7.679  -2.740 124.077  0.00  0.00    +0.000 C 
ATOM     18  C   UNL     1      -8.052  -2.247 122.686  0.00  0.00    +0.000 C 
ATOM     19  C   UNL     1      -9.565  -2.307 122.695  0.00  0.00    +0.000 C 
ATOM     20  N   UNL     1      -9.881  -3.549 123.412  0.00  0.00    +0.000 NA
ATOM     21  C   UNL     1      -8.797  -3.745 124.403  0.00  0.00    +0.000 C 
ATOM     22  H   UNL     1      -9.833  -4.318 122.742  0.00  0.00    +0.000 HD
ENDBRANCH  14  17
ENDBRANCH   6  10
BRANCH   1  23
ATOM     23  N   UNL     1      -8.579   5.106 131.251  0.00  0.00    +0.000 N 
ATOM     24  C   UNL     1      -8.984   6.360 130.800  0.00  0.00    +0.000 C 
ATOM     25  O   UNL     1      -8.222   7.133 130.236  0.00  0.00    +0.000 OA
ATOM     26  H   UNL     1      -9.247   4.649 131.872  0.00  0.00    +0.000 HD
BRANCH  24  27
ATOM     27  C   UNL     1     -10.441   6.809 131.077  0.00  0.00    +0.000 C 
ATOM     28  N   UNL     1     -10.988   6.841 132.274  0.00  0.00    +0.000 NA
BRANCH  27  29
ATOM     29  C   UNL     1     -11.273   7.261 129.916  0.00  0.00    +0.000 A 
ATOM     30  N   UNL     1     -11.370   6.513 128.802  0.00  0.00    +0.000 NA
ATOM     31  S   UNL     1     -12.410   7.299 127.754  0.00  0.00    +0.000 S 
ATOM     32  C   UNL     1     -12.643   8.646 128.801  0.00  0.00    +0.000 A 
ATOM     33  N   UNL     1     -13.404   9.709 128.483  0.00  0.00    +0.000 N 
ATOM     34  N   UNL     1     -11.978   8.491 129.926  0.00  0.00    +0.000 NA
ATOM     35  H   UNL     1     -13.910   9.793 127.608  0.00  0.00    +0.000 HD
ATOM     36  H   UNL     1     -13.511  10.478 129.135  0.00  0.00    +0.000 HD
ENDBRANCH  27  29
BRANCH  28  37
ATOM     37  O   UNL     1     -10.166   6.383 133.318  0.00  0.00    +0.000 OA
ATOM     38  H   UNL     1      -9.980   5.453 133.072  0.00  0.00    +0.000 HD
ENDBRANCH  28  37
ENDBRANCH  24  27
ENDBRANCH   1  23
BRANCH   5  39
ATOM     39  C   UNL     1      -5.054   2.360 127.736  0.00  0.00    +0.000 C 
ATOM     40  OXT UNL     1      -5.376   2.730 126.615  0.00  0.00    +0.000 OA
BRANCH  39  41
ATOM     41  O   UNL     1      -3.765   2.036 127.972  0.00  0.00    +0.000 OA
ATOM     42  H   UNL     1      -3.097   2.667 127.643  0.00  0.00    +0.000 HD
ENDBRANCH  39  41
ENDBRANCH   5  39
TORSDOF 8
ENDMDL
MODEL 2
REMARK VINA RESULT:      -8.3      4.696     10.238
REMARK  Name = Ceftobiprole
REMARK  8 active torsions:
REMARK  status: ('A' for Active; 'I' for Inactive)
REMARK    1  A    between atoms: CA_2  and  N_3
REMARK    2  A    between atoms: C_4  and  C_6
REMARK    3  A    between atoms: C_6  and  C_9
REMARK    4  A    between atoms: N_7  and  O_8
REMARK    5  A    between atoms: CA_18  and  C_19
REMARK    6  A    between atoms: C_19  and  O_20
REMARK    7  A    between atoms: C_22  and  C_27
REMARK    8  A    between atoms: N_31  and  C_34
REMARK                            x       y       z     vdW  Elec       q    Type
REMARK                         _______ _______ _______ _____ _____    ______ ____
ROOT
ATOM      1  CA  UNL     1      -7.554  -1.808 130.781  0.00  0.00    +0.000 C 
ATOM      2  C   UNL     1      -7.266  -0.951 129.513  0.00  0.00    +0.000 C 
ATOM      3  O   UNL     1      -6.729  -1.071 128.441  0.00  0.00    +0.000 OA
ATOM      4  N   UNL     1      -8.011   0.075 130.003  0.00  0.00    +0.000 N 
ATOM      5  CA  UNL     1      -8.024   1.415 129.690  0.00  0.00    +0.000 C 
ATOM      6  C   UNL     1      -8.061   2.341 130.686  0.00  0.00    +0.000 C 
ATOM      7  C   UNL     1      -8.019   2.015 132.166  0.00  0.00    +0.000 C 
ATOM      8  S   UNL     1      -7.311   0.427 132.594  0.00  0.00    +0.000 S 
ATOM      9  C   UNL     1      -8.199  -0.496 131.336  0.00  0.00    +0.000 C 
ENDROOT
BRANCH   6  10
ATOM     10  C   UNL     1      -8.137   3.784 130.436  0.00  0.00    +0.000 C 
ATOM     11  C   UNL     1      -9.268   4.500 130.360  0.00  0.00    +0.000 C 
ATOM     12  C   UNL     1     -10.681   4.040 130.502  0.00  0.00    +0.000 C 
ATOM     13  C   UNL     1     -11.491   5.321 130.450  0.00  0.00    +0.000 C 
ATOM     14  N   UNL     1     -10.574   6.361 130.036  0.00  0.00    +0.000 N 
ATOM     15  C   UNL     1      -9.253   5.966 130.094  0.00  0.00    +0.000 C 
ATOM     16  O   UNL     1      -8.263   6.648 129.903  0.00  0.00    +0.000 OA
BRANCH  14  17
ATOM     17  C   UNL     1     -10.992   7.713 129.647  0.00  0.00    +0.000 C 
ATOM     18  C   UNL     1     -12.491   7.937 129.774  0.00  0.00    +0.000 C 
ATOM     19  C   UNL     1     -13.017   7.525 128.415  0.00  0.00    +0.000 C 
ATOM     20  N   UNL     1     -12.026   8.044 127.463  0.00  0.00    +0.000 NA
ATOM     21  C   UNL     1     -10.720   8.007 128.161  0.00  0.00    +0.000 C 
ATOM     22  H   UNL     1     -12.253   9.021 127.278  0.00  0.00    +0.000 HD
ENDBRANCH  14  17
ENDBRANCH   6  10
BRANCH   1  23
ATOM     23  N   UNL     1      -6.443  -2.485 131.513  0.00  0.00    +0.000 N 
ATOM     24  C   UNL     1      -5.721  -3.596 131.082  0.00  0.00    +0.000 C 
ATOM     25  O   UNL     1      -5.986  -4.189 130.045  0.00  0.00    +0.000 OA
ATOM     26  H   UNL     1      -6.251  -2.210 132.476  0.00  0.00    +0.000 HD
BRANCH  24  27
ATOM     27  C   UNL     1      -4.578  -4.127 131.982  0.00  0.00    +0.000 C 
ATOM     28  N   UNL     1      -3.298  -3.919 131.750  0.00  0.00    +0.000 NA
BRANCH  27  29
ATOM     29  C   UNL     1      -4.948  -4.904 133.209  0.00  0.00    +0.000 A 
ATOM     30  N   UNL     1      -4.042  -5.672 133.840  0.00  0.00    +0.000 NA
ATOM     31  S   UNL     1      -4.789  -6.338 135.179  0.00  0.00    +0.000 S 
ATOM     32  C   UNL     1      -6.319  -5.629 134.831  0.00  0.00    +0.000 A 
ATOM     33  N   UNL     1      -7.419  -5.834 135.578  0.00  0.00    +0.000 N 
ATOM     34  N   UNL     1      -6.258  -4.882 133.749  0.00  0.00    +0.000 NA
ATOM     35  H   UNL     1      -7.428  -6.411 136.412  0.00  0.00    +0.000 HD
ATOM     36  H   UNL     1      -8.297  -5.392 135.332  0.00  0.00    +0.000 HD
ENDBRANCH  27  29
BRANCH  28  37
ATOM     37  O   UNL     1      -3.014  -3.205 130.573  0.00  0.00    +0.000 OA
ATOM     38  H   UNL     1      -3.825  -3.318 130.036  0.00  0.00    +0.000 HD
ENDBRANCH  28  37
ENDBRANCH  24  27
ENDBRANCH   1  23
BRANCH   5  39
ATOM     39  C   UNL     1      -8.030   1.879 128.234  0.00  0.00    +0.000 C 
ATOM     40  OXT UNL     1      -9.042   2.049 127.568  0.00  0.00    +0.000 OA
BRANCH  39  41
ATOM     41  O   UNL     1      -6.826   1.996 127.635  0.00  0.00    +0.000 OA
ATOM     42  H   UNL     1      -6.439   2.892 127.620  0.00  0.00    +0.000 HD
ENDBRANCH  39  41
ENDBRANCH   5  39
TORSDOF 8
ENDMDL
MODEL 3
REMARK VINA RESULT:      -8.2      3.940      5.094
REMARK  Name = Ceftobiprole
REMARK  8 active torsions:
REMARK  status: ('A' for Active; 'I' for Inactive)
REMARK    1  A    between atoms: CA_2  and  N_3
REMARK    2  A    between atoms: C_4  and  C_6
REMARK    3  A    between atoms: C_6  and  C_9
REMARK    4  A    between atoms: N_7  and  O_8
REMARK    5  A    between atoms: CA_18  and  C_19
REMARK    6  A    between atoms: C_19  and  O_20
REMARK    7  A    between atoms: C_22  and  C_27
REMARK    8  A    between atoms: N_31  and  C_34
REMARK                            x       y       z     vdW  Elec       q    Type
REMARK                         _______ _______ _______ _____ _____    ______ ____
ROOT
ATOM      1  CA  UNL     1      -7.197   5.091 129.929  0.00  0.00    +0.000 C 
ATOM      2  C   UNL     1      -6.804   3.903 129.001  0.00  0.00    +0.000 C 
ATOM      3  O   UNL     1      -7.103   3.457 127.923  0.00  0.00    +0.000 OA
ATOM      4  N   UNL     1      -5.799   3.542 129.843  0.00  0.00    +0.000 N 
ATOM      5  CA  UNL     1      -5.126   2.352 129.992  0.00  0.00    +0.000 C 
ATOM      6  C   UNL     1      -4.886   1.862 131.239  0.00  0.00    +0.000 C 
ATOM      7  C   UNL     1      -5.374   2.504 132.523  0.00  0.00    +0.000 C 
ATOM      8  S   UNL     1      -6.787   3.592 132.363  0.00  0.00    +0.000 S 
ATOM      9  C   UNL     1      -6.165   4.461 130.920  0.00  0.00    +0.000 C 
ENDROOT
BRANCH   6  10
ATOM     10  C   UNL     1      -4.125   0.634 131.484  0.00  0.00    +0.000 C 
ATOM     11  C   UNL     1      -4.649  -0.596 131.591  0.00  0.00    +0.000 C 
ATOM     12  C   UNL     1      -6.077  -1.019 131.493  0.00  0.00    +0.000 C 
ATOM     13  C   UNL     1      -6.017  -2.533 131.563  0.00  0.00    +0.000 C 
ATOM     14  N   UNL     1      -4.661  -2.866 131.945  0.00  0.00    +0.000 N 
ATOM     15  C   UNL     1      -3.799  -1.792 131.849  0.00  0.00    +0.000 C 
ATOM     16  O   UNL     1      -2.592  -1.791 132.008  0.00  0.00    +0.000 OA
BRANCH  14  17
ATOM     17  C   UNL     1      -4.229  -4.210 132.341  0.00  0.00    +0.000 C 
ATOM     18  C   UNL     1      -5.359  -5.230 132.333  0.00  0.00    +0.000 C 
ATOM     19  C   UNL     1      -5.914  -5.137 133.740  0.00  0.00    +0.000 C 
ATOM     20  N   UNL     1      -4.729  -4.994 134.595  0.00  0.00    +0.000 NA
ATOM     21  C   UNL     1      -3.722  -4.262 133.792  0.00  0.00    +0.000 C 
ATOM     22  H   UNL     1      -4.361  -5.928 134.779  0.00  0.00    +0.000 HD
ENDBRANCH  14  17
ENDBRANCH   6  10
BRANCH   1  23
ATOM     23  N   UNL     1      -8.618   5.305 130.334  0.00  0.00    +0.000 N 
ATOM     24  C   UNL     1      -9.281   6.527 130.420  0.00  0.00    +0.000 C 
ATOM     25  O   UNL     1      -8.718   7.595 130.228  0.00  0.00    +0.000 OA
ATOM     26  H   UNL     1      -9.145   4.516 130.706  0.00  0.00    +0.000 HD
BRANCH  24  27
ATOM     27  C   UNL     1     -10.775   6.528 130.830  0.00  0.00    +0.000 C 
ATOM     28  N   UNL     1     -11.219   6.112 131.998  0.00  0.00    +0.000 NA
BRANCH  27  29
ATOM     29  C   UNL     1     -11.777   7.059 129.851  0.00  0.00    +0.000 A 
ATOM     30  N   UNL     1     -12.418   6.235 129.003  0.00  0.00    +0.000 NA
ATOM     31  S   UNL     1     -13.482   7.161 128.106  0.00  0.00    +0.000 S 
ATOM     32  C   UNL     1     -13.000   8.645 128.837  0.00  0.00    +0.000 A 
ATOM     33  N   UNL     1     -13.505   9.842 128.489  0.00  0.00    +0.000 N 
ATOM     34  N   UNL     1     -12.082   8.440 129.757  0.00  0.00    +0.000 NA
ATOM     35  H   UNL     1     -14.219   9.962 127.778  0.00  0.00    +0.000 HD
ATOM     36  H   UNL     1     -13.189  10.687 128.951  0.00  0.00    +0.000 HD
ENDBRANCH  27  29
BRANCH  28  37
ATOM     37  O   UNL     1     -10.236   5.604 132.864  0.00  0.00    +0.000 OA
ATOM     38  H   UNL     1     -10.559   5.859 133.752  0.00  0.00    +0.000 HD
ENDBRANCH  28  37
ENDBRANCH  24  27
ENDBRANCH   1  23
BRANCH   5  39
ATOM     39  C   UNL     1      -4.612   1.584 128.774  0.00  0.00    +0.000 C 
ATOM     40  OXT UNL     1      -5.181   0.624 128.273  0.00  0.00    +0.000 OA
BRANCH  39  41
ATOM     41  O   UNL     1      -3.396   1.939 128.309  0.00  0.00    +0.000 OA
ATOM     42  H   UNL     1      -3.321   2.843 127.949  0.00  0.00    +0.000 HD
ENDBRANCH  39  41
ENDBRANCH   5  39
TORSDOF 8
ENDMDL
MODEL 4
REMARK VINA RESULT:      -8.1      5.969     10.292
REMARK  Name = Ceftobiprole
REMARK  8 active torsions:
REMARK  status: ('A' for Active; 'I' for Inactive)
REMARK    1  A    between atoms: CA_2  and  N_3
REMARK    2  A    between atoms: C_4  and  C_6
REMARK    3  A    between atoms: C_6  and  C_9
REMARK    4  A    between atoms: N_7  and  O_8
REMARK    5  A    between atoms: CA_18  and  C_19
REMARK    6  A    between atoms: C_19  and  O_20
REMARK    7  A    between atoms: C_22  and  C_27
REMARK    8  A    between atoms: N_31  and  C_34
REMARK                            x       y       z     vdW  Elec       q    Type
REMARK                         _______ _______ _______ _____ _____    ______ ____
ROOT
ATOM      1  CA  UNL     1      -7.435   4.851 131.492  0.00  0.00    +0.000 C 
ATOM      2  C   UNL     1      -6.990   5.404 132.879  0.00  0.00    +0.000 C 
ATOM      3  O   UNL     1      -7.490   5.822 133.891  0.00  0.00    +0.000 OA
ATOM      4  N   UNL     1      -5.688   5.119 132.604  0.00  0.00    +0.000 N 
ATOM      5  CA  UNL     1      -4.521   5.606 133.147  0.00  0.00    +0.000 C 
ATOM      6  C   UNL     1      -3.490   5.953 132.331  0.00  0.00    +0.000 C 
ATOM      7  C   UNL     1      -3.541   5.913 130.816  0.00  0.00    +0.000 C 
ATOM      8  S   UNL     1      -5.177   5.979 130.089  0.00  0.00    +0.000 S 
ATOM      9  C   UNL     1      -5.901   4.769 131.201  0.00  0.00    +0.000 C 
ENDROOT
BRANCH   6  10
ATOM     10  C   UNL     1      -2.195   6.422 132.832  0.00  0.00    +0.000 C 
ATOM     11  C   UNL     1      -1.811   7.705 132.912  0.00  0.00    +0.000 C 
ATOM     12  C   UNL     1      -2.565   8.935 132.529  0.00  0.00    +0.000 C 
ATOM     13  C   UNL     1      -1.665  10.070 132.976  0.00  0.00    +0.000 C 
ATOM     14  N   UNL     1      -0.397   9.467 133.326  0.00  0.00    +0.000 N 
ATOM     15  C   UNL     1      -0.469   8.092 133.429  0.00  0.00    +0.000 C 
ATOM     16  O   UNL     1       0.403   7.328 133.800  0.00  0.00    +0.000 OA
BRANCH  14  17
ATOM     17  C   UNL     1       0.826  10.230 133.598  0.00  0.00    +0.000 C 
ATOM     18  C   UNL     1       0.998  10.581 135.069  0.00  0.00    +0.000 C 
ATOM     19  C   UNL     1       0.295  11.917 135.187  0.00  0.00    +0.000 C 
ATOM     20  N   UNL     1       0.658  12.636 133.959  0.00  0.00    +0.000 NA
ATOM     21  C   UNL     1       0.827  11.605 132.909  0.00  0.00    +0.000 C 
ATOM     22  H   UNL     1       1.566  13.076 134.112  0.00  0.00    +0.000 HD
ENDBRANCH  14  17
ENDBRANCH   6  10
BRANCH   1  23
ATOM     23  N   UNL     1      -8.342   5.643 130.610  0.00  0.00    +0.000 N 
ATOM     24  C   UNL     1      -9.096   5.159 129.544  0.00  0.00    +0.000 C 
ATOM     25  O   UNL     1      -9.032   3.996 129.170  0.00  0.00    +0.000 OA
ATOM     26  H   UNL     1      -8.338   6.660 130.691  0.00  0.00    +0.000 HD
BRANCH  24  27
ATOM     27  C   UNL     1     -10.005   6.148 128.773  0.00  0.00    +0.000 C 
ATOM     28  N   UNL     1      -9.916   6.375 127.479  0.00  0.00    +0.000 NA
BRANCH  27  29
ATOM     29  C   UNL     1     -11.070   6.873 129.539  0.00  0.00    +0.000 A 
ATOM     30  N   UNL     1     -11.637   6.319 130.625  0.00  0.00    +0.000 NA
ATOM     31  S   UNL     1     -12.732   7.423 131.241  0.00  0.00    +0.000 S 
ATOM     32  C   UNL     1     -12.456   8.578 129.994  0.00  0.00    +0.000 A 
ATOM     33  N   UNL     1     -13.113   9.749 129.909  0.00  0.00    +0.000 N 
ATOM     34  N   UNL     1     -11.538   8.154 129.152  0.00  0.00    +0.000 NA
ATOM     35  H   UNL     1     -13.811  10.048 130.582  0.00  0.00    +0.000 HD
ATOM     36  H   UNL     1     -12.913  10.397 129.156  0.00  0.00    +0.000 HD
ENDBRANCH  27  29
BRANCH  28  37
ATOM     37  O   UNL     1      -8.884   5.685 126.821  0.00  0.00    +0.000 OA
ATOM     38  H   UNL     1      -9.134   5.746 125.876  0.00  0.00    +0.000 HD
ENDBRANCH  28  37
ENDBRANCH  24  27
ENDBRANCH   1  23
BRANCH   5  39
ATOM     39  C   UNL     1      -4.354   5.732 134.661  0.00  0.00    +0.000 C 
ATOM     40  OXT UNL     1      -3.925   4.843 135.385  0.00  0.00    +0.000 OA
BRANCH  39  41
ATOM     41  O   UNL     1      -4.821   6.866 135.225  0.00  0.00    +0.000 OA
ATOM     42  H   UNL     1      -5.616   7.254 134.813  0.00  0.00    +0.000 HD
ENDBRANCH  39  41
ENDBRANCH   5  39
TORSDOF 8
ENDMDL
MODEL 5
REMARK VINA RESULT:      -8.1      4.698     10.195
REMARK  Name = Ceftobiprole
REMARK  8 active torsions:
REMARK  status: ('A' for Active; 'I' for Inactive)
REMARK    1  A    between atoms: CA_2  and  N_3
REMARK    2  A    between atoms: C_4  and  C_6
REMARK    3  A    between atoms: C_6  and  C_9
REMARK    4  A    between atoms: N_7  and  O_8
REMARK    5  A    between atoms: CA_18  and  C_19
REMARK    6  A    between atoms: C_19  and  O_20
REMARK    7  A    between atoms: C_22  and  C_27
REMARK    8  A    between atoms: N_31  and  C_34
REMARK                            x       y       z     vdW  Elec       q    Type
REMARK                         _______ _______ _______ _____ _____    ______ ____
ROOT
ATOM      1  CA  UNL     1      -6.904   3.824 126.358  0.00  0.00    +0.000 C 
ATOM      2  C   UNL     1      -5.372   4.043 126.183  0.00  0.00    +0.000 C 
ATOM      3  O   UNL     1      -4.539   3.973 125.316  0.00  0.00    +0.000 OA
ATOM      4  N   UNL     1      -5.268   4.518 127.454  0.00  0.00    +0.000 N 
ATOM      5  CA  UNL     1      -4.183   4.630 128.292  0.00  0.00    +0.000 C 
ATOM      6  C   UNL     1      -4.295   4.257 129.595  0.00  0.00    +0.000 C 
ATOM      7  C   UNL     1      -5.537   3.642 130.210  0.00  0.00    +0.000 C 
ATOM      8  S   UNL     1      -6.663   2.850 129.065  0.00  0.00    +0.000 S 
ATOM      9  C   UNL     1      -6.632   4.176 127.856  0.00  0.00    +0.000 C 
ENDROOT
BRANCH   6  10
ATOM     10  C   UNL     1      -3.206   4.401 130.566  0.00  0.00    +0.000 C 
ATOM     11  C   UNL     1      -2.865   5.539 131.188  0.00  0.00    +0.000 C 
ATOM     12  C   UNL     1      -3.475   6.897 131.061  0.00  0.00    +0.000 C 
ATOM     13  C   UNL     1      -2.749   7.724 132.103  0.00  0.00    +0.000 C 
ATOM     14  N   UNL     1      -1.640   6.914 132.561  0.00  0.00    +0.000 N 
ATOM     15  C   UNL     1      -1.736   5.597 132.158  0.00  0.00    +0.000 C 
ATOM     16  O   UNL     1      -1.012   4.669 132.469  0.00  0.00    +0.000 OA
BRANCH  14  17
ATOM     17  C   UNL     1      -0.553   7.417 133.408  0.00  0.00    +0.000 C 
ATOM     18  C   UNL     1      -0.753   7.109 134.885  0.00  0.00    +0.000 C 
ATOM     19  C   UNL     1      -1.524   8.313 135.385  0.00  0.00    +0.000 C 
ATOM     20  N   UNL     1      -0.910   9.456 134.697  0.00  0.00    +0.000 NA
ATOM     21  C   UNL     1      -0.449   8.951 133.383  0.00  0.00    +0.000 C 
ATOM     22  H   UNL     1      -0.086   9.735 135.230  0.00  0.00    +0.000 HD
ENDBRANCH  14  17
ENDBRANCH   6  10
BRANCH   1  23
ATOM     23  N   UNL     1      -7.537   2.526 125.978  0.00  0.00    +0.000 N 
ATOM     24  C   UNL     1      -8.361   2.295 124.879  0.00  0.00    +0.000 C 
ATOM     25  O   UNL     1      -8.716   3.190 124.124  0.00  0.00    +0.000 OA
ATOM     26  H   UNL     1      -7.481   1.745 126.630  0.00  0.00    +0.000 HD
BRANCH  24  27
ATOM     27  C   UNL     1      -8.892   0.858 124.644  0.00  0.00    +0.000 C 
ATOM     28  N   UNL     1     -10.153   0.568 124.403  0.00  0.00    +0.000 NA
BRANCH  27  29
ATOM     29  C   UNL     1      -7.906  -0.270 124.664  0.00  0.00    +0.000 A 
ATOM     30  N   UNL     1      -6.597  -0.041 124.869  0.00  0.00    +0.000 NA
ATOM     31  S   UNL     1      -5.819  -1.521 124.876  0.00  0.00    +0.000 S 
ATOM     32  C   UNL     1      -7.253  -2.414 124.538  0.00  0.00    +0.000 A 
ATOM     33  N   UNL     1      -7.274  -3.750 124.377  0.00  0.00    +0.000 N 
ATOM     34  N   UNL     1      -8.297  -1.617 124.454  0.00  0.00    +0.000 NA
ATOM     35  H   UNL     1      -6.450  -4.335 124.456  0.00  0.00    +0.000 HD
ATOM     36  H   UNL     1      -8.145  -4.229 124.180  0.00  0.00    +0.000 HD
ENDBRANCH  27  29
BRANCH  28  37
ATOM     37  O   UNL     1     -11.032   1.665 124.421  0.00  0.00    +0.000 OA
ATOM     38  H   UNL     1     -10.549   2.353 123.919  0.00  0.00    +0.000 HD
ENDBRANCH  28  37
ENDBRANCH  24  27
ENDBRANCH   1  23
BRANCH   5  39
ATOM     39  C   UNL     1      -2.858   5.200 127.787  0.00  0.00    +0.000 C 
ATOM     40  OXT UNL     1      -2.575   6.391 127.782  0.00  0.00    +0.000 OA
BRANCH  39  41
ATOM     41  O   UNL     1      -2.007   4.325 127.211  0.00  0.00    +0.000 OA
ATOM     42  H   UNL     1      -1.056   4.516 127.319  0.00  0.00    +0.000 HD
ENDBRANCH  39  41
ENDBRANCH   5  39
TORSDOF 8
ENDMDL
MODEL 6
REMARK VINA RESULT:      -8.0      6.576      9.534
REMARK  Name = Ceftobiprole
REMARK  8 active torsions:
REMARK  status: ('A' for Active; 'I' for Inactive)
REMARK    1  A    between atoms: CA_2  and  N_3
REMARK    2  A    between atoms: C_4  and  C_6
REMARK    3  A    between atoms: C_6  and  C_9
REMARK    4  A    between atoms: N_7  and  O_8
REMARK    5  A    between atoms: CA_18  and  C_19
REMARK    6  A    between atoms: C_19  and  O_20
REMARK    7  A    between atoms: C_22  and  C_27
REMARK    8  A    between atoms: N_31  and  C_34
REMARK                            x       y       z     vdW  Elec       q    Type
REMARK                         _______ _______ _______ _____ _____    ______ ____
ROOT
ATOM      1  CA  UNL     1      -1.313   6.634 132.262  0.00  0.00    +0.000 C 
ATOM      2  C   UNL     1      -2.087   6.559 130.913  0.00  0.00    +0.000 C 
ATOM      3  O   UNL     1      -2.002   6.993 129.793  0.00  0.00    +0.000 OA
ATOM      4  N   UNL     1      -2.940   5.630 131.423  0.00  0.00    +0.000 N 
ATOM      5  CA  UNL     1      -4.198   5.241 131.026  0.00  0.00    +0.000 C 
ATOM      6  C   UNL     1      -5.178   5.071 131.954  0.00  0.00    +0.000 C 
ATOM      7  C   UNL     1      -5.016   5.350 133.436  0.00  0.00    +0.000 C 
ATOM      8  S   UNL     1      -3.702   6.483 133.877  0.00  0.00    +0.000 S 
ATOM      9  C   UNL     1      -2.471   5.736 132.804  0.00  0.00    +0.000 C 
ENDROOT
BRANCH   6  10
ATOM     10  C   UNL     1      -6.525   4.601 131.620  0.00  0.00    +0.000 C 
ATOM     11  C   UNL     1      -7.552   5.382 131.253  0.00  0.00    +0.000 C 
ATOM     12  C   UNL     1      -7.592   6.866 131.097  0.00  0.00    +0.000 C 
ATOM     13  C   UNL     1      -8.975   7.139 130.538  0.00  0.00    +0.000 C 
ATOM     14  N   UNL     1      -9.708   5.896 130.650  0.00  0.00    +0.000 N 
ATOM     15  C   UNL     1      -8.895   4.818 130.938  0.00  0.00    +0.000 C 
ATOM     16  O   UNL     1      -9.208   3.643 130.994  0.00  0.00    +0.000 OA
BRANCH  14  17
ATOM     17  C   UNL     1     -11.153   5.774 130.429  0.00  0.00    +0.000 C 
ATOM     18  C   UNL     1     -11.626   6.470 129.161  0.00  0.00    +0.000 C 
ATOM     19  C   UNL     1     -11.949   7.871 129.638  0.00  0.00    +0.000 C 
ATOM     20  N   UNL     1     -12.588   7.676 130.946  0.00  0.00    +0.000 NA
ATOM     21  C   UNL     1     -11.977   6.462 131.532  0.00  0.00    +0.000 C 
ATOM     22  H   UNL     1     -13.577   7.480 130.785  0.00  0.00    +0.000 HD
ENDBRANCH  14  17
ENDBRANCH   6  10
BRANCH   1  23
ATOM     23  N   UNL     1      -1.005   7.952 132.892  0.00  0.00    +0.000 N 
ATOM     24  C   UNL     1      -0.029   8.206 133.853  0.00  0.00    +0.000 C 
ATOM     25  O   UNL     1       0.654   7.318 134.345  0.00  0.00    +0.000 OA
ATOM     26  H   UNL     1      -1.630   8.738 132.714  0.00  0.00    +0.000 HD
BRANCH  24  27
ATOM     27  C   UNL     1       0.152   9.660 134.355  0.00  0.00    +0.000 C 
ATOM     28  N   UNL     1       0.283   9.991 135.623  0.00  0.00    +0.000 NA
BRANCH  27  29
ATOM     29  C   UNL     1       0.209  10.757 133.337  0.00  0.00    +0.000 A 
ATOM     30  N   UNL     1       1.387  11.276 132.946  0.00  0.00    +0.000 NA
ATOM     31  S   UNL     1       1.069  12.428 131.776  0.00  0.00    +0.000 S 
ATOM     32  C   UNL     1      -0.640  12.239 131.880  0.00  0.00    +0.000 A 
ATOM     33  N   UNL     1      -1.512  12.967 131.160  0.00  0.00    +0.000 N 
ATOM     34  N   UNL     1      -0.960  11.308 132.753  0.00  0.00    +0.000 NA
ATOM     35  H   UNL     1      -1.230  13.674 130.489  0.00  0.00    +0.000 HD
ATOM     36  H   UNL     1      -2.510  12.817 131.256  0.00  0.00    +0.000 HD
ENDBRANCH  27  29
BRANCH  28  37
ATOM     37  O   UNL     1       0.197   8.922 136.531  0.00  0.00    +0.000 OA
ATOM     38  H   UNL     1      -0.435   9.245 137.205  0.00  0.00    +0.000 HD
ENDBRANCH  28  37
ENDBRANCH  24  27
ENDBRANCH   1  23
BRANCH   5  39
ATOM     39  C   UNL     1      -4.504   4.963 129.554  0.00  0.00    +0.000 C 
ATOM     40  OXT UNL     1      -4.345   3.880 129.008  0.00  0.00    +0.000 OA
BRANCH  39  41
ATOM     41  O   UNL     1      -4.866   6.026 128.804  0.00  0.00    +0.000 OA
ATOM     42  H   UNL     1      -5.035   5.847 127.860  0.00  0.00    +0.000 HD
ENDBRANCH  39  41
ENDBRANCH   5  39
TORSDOF 8
ENDMDL
MODEL 7
REMARK VINA RESULT:      -8.0      5.019      7.461
REMARK  Name = Ceftobiprole
REMARK  8 active torsions:
REMARK  status: ('A' for Active; 'I' for Inactive)
REMARK    1  A    between atoms: CA_2  and  N_3
REMARK    2  A    between atoms: C_4  and  C_6
REMARK    3  A    between atoms: C_6  and  C_9
REMARK    4  A    between atoms: N_7  and  O_8
REMARK    5  A    between atoms: CA_18  and  C_19
REMARK    6  A    between atoms: C_19  and  O_20
REMARK    7  A    between atoms: C_22  and  C_27
REMARK    8  A    between atoms: N_31  and  C_34
REMARK                            x       y       z     vdW  Elec       q    Type
REMARK                         _______ _______ _______ _____ _____    ______ ____
ROOT
ATOM      1  CA  UNL     1      -8.909   2.372 130.141  0.00  0.00    +0.000 C 
ATOM      2  C   UNL     1      -8.987   1.205 131.170  0.00  0.00    +0.000 C 
ATOM      3  O   UNL     1      -9.775   0.734 131.950  0.00  0.00    +0.000 OA
ATOM      4  N   UNL     1      -7.768   0.743 130.779  0.00  0.00    +0.000 N 
ATOM      5  CA  UNL     1      -6.865  -0.077 131.413  0.00  0.00    +0.000 C 
ATOM      6  C   UNL     1      -5.542   0.241 131.407  0.00  0.00    +0.000 C 
ATOM      7  C   UNL     1      -4.965   1.503 130.797  0.00  0.00    +0.000 C 
ATOM      8  S   UNL     1      -6.105   2.872 130.612  0.00  0.00    +0.000 S 
ATOM      9  C   UNL     1      -7.439   1.886 129.927  0.00  0.00    +0.000 C 
ENDROOT
BRANCH   6  10
ATOM     10  C   UNL     1      -4.510  -0.610 132.006  0.00  0.00    +0.000 C 
ATOM     11  C   UNL     1      -4.155  -0.606 133.300  0.00  0.00    +0.000 C 
ATOM     12  C   UNL     1      -4.691   0.228 134.417  0.00  0.00    +0.000 C 
ATOM     13  C   UNL     1      -3.992  -0.317 135.647  0.00  0.00    +0.000 C 
ATOM     14  N   UNL     1      -2.954  -1.201 135.164  0.00  0.00    +0.000 N 
ATOM     15  C   UNL     1      -3.087  -1.502 133.824  0.00  0.00    +0.000 C 
ATOM     16  O   UNL     1      -2.428  -2.289 133.169  0.00  0.00    +0.000 OA
BRANCH  14  17
ATOM     17  C   UNL     1      -1.899  -1.767 136.013  0.00  0.00    +0.000 C 
ATOM     18  C   UNL     1      -2.062  -3.260 136.258  0.00  0.00    +0.000 C 
ATOM     19  C   UNL     1      -2.915  -3.311 137.509  0.00  0.00    +0.000 C 
ATOM     20  N   UNL     1      -2.393  -2.231 138.355  0.00  0.00    +0.000 NA
ATOM     21  C   UNL     1      -1.909  -1.177 137.434  0.00  0.00    +0.000 C 
ATOM     22  H   UNL     1      -1.587  -2.595 138.864  0.00  0.00    +0.000 HD
ENDBRANCH  14  17
ENDBRANCH   6  10
BRANCH   1  23
ATOM     23  N   UNL     1      -9.200   3.776 130.558  0.00  0.00    +0.000 N 
ATOM     24  C   UNL     1     -10.441   4.407 130.538  0.00  0.00    +0.000 C 
ATOM     25  O   UNL     1     -11.446   3.868 130.094  0.00  0.00    +0.000 OA
ATOM     26  H   UNL     1      -8.419   4.397 130.765  0.00  0.00    +0.000 HD
BRANCH  24  27
ATOM     27  C   UNL     1     -10.535   5.868 131.047  0.00  0.00    +0.000 C 
ATOM     28  N   UNL     1     -10.369   6.223 132.304  0.00  0.00    +0.000 NA
BRANCH  27  29
ATOM     29  C   UNL     1     -10.803   6.949 130.044  0.00  0.00    +0.000 A 
ATOM     30  N   UNL     1      -9.960   7.163 129.018  0.00  0.00    +0.000 NA
ATOM     31  S   UNL     1     -10.599   8.398 128.089  0.00  0.00    +0.000 S 
ATOM     32  C   UNL     1     -11.949   8.648 129.130  0.00  0.00    +0.000 A 
ATOM     33  N   UNL     1     -12.878   9.599 128.925  0.00  0.00    +0.000 N 
ATOM     34  N   UNL     1     -11.933   7.799 130.135  0.00  0.00    +0.000 NA
ATOM     35  H   UNL     1     -12.863  10.233 128.133  0.00  0.00    +0.000 HD
ATOM     36  H   UNL     1     -13.655   9.705 129.566  0.00  0.00    +0.000 HD
ENDBRANCH  27  29
BRANCH  28  37
ATOM     37  O   UNL     1     -10.144   5.163 133.199  0.00  0.00    +0.000 OA
ATOM     38  H   UNL     1      -9.986   4.396 132.610  0.00  0.00    +0.000 HD
ENDBRANCH  28  37
ENDBRANCH  24  27
ENDBRANCH   1  23
BRANCH   5  39
ATOM     39  C   UNL     1      -7.323  -1.364 132.100  0.00  0.00    +0.000 C 
ATOM     40  OXT UNL     1      -7.424  -2.447 131.541  0.00  0.00    +0.000 OA
BRANCH  39  41
ATOM     41  O   UNL     1      -7.742  -1.247 133.378  0.00  0.00    +0.000 OA
ATOM     42  H   UNL     1      -7.526  -1.992 133.970  0.00  0.00    +0.000 HD
ENDBRANCH  39  41
ENDBRANCH   5  39
TORSDOF 8
ENDMDL
MODEL 8
REMARK VINA RESULT:      -7.9      5.321      7.425
REMARK  Name = Ceftobiprole
REMARK  8 active torsions:
REMARK  status: ('A' for Active; 'I' for Inactive)
REMARK    1  A    between atoms: CA_2  and  N_3
REMARK    2  A    between atoms: C_4  and  C_6
REMARK    3  A    between atoms: C_6  and  C_9
REMARK    4  A    between atoms: N_7  and  O_8
REMARK    5  A    between atoms: CA_18  and  C_19
REMARK    6  A    between atoms: C_19  and  O_20
REMARK    7  A    between atoms: C_22  and  C_27
REMARK    8  A    between atoms: N_31  and  C_34
REMARK                            x       y       z     vdW  Elec       q    Type
REMARK                         _______ _______ _______ _____ _____    ______ ____
ROOT
ATOM      1  CA  UNL     1      -7.691   3.443 130.498  0.00  0.00    +0.000 C 
ATOM      2  C   UNL     1      -8.137   2.042 131.012  0.00  0.00    +0.000 C 
ATOM      3  O   UNL     1      -9.095   1.315 130.947  0.00  0.00    +0.000 OA
ATOM      4  N   UNL     1      -6.899   1.807 131.526  0.00  0.00    +0.000 N 
ATOM      5  CA  UNL     1      -6.473   0.927 132.493  0.00  0.00    +0.000 C 
ATOM      6  C   UNL     1      -5.607   1.347 133.455  0.00  0.00    +0.000 C 
ATOM      7  C   UNL     1      -5.105   2.770 133.598  0.00  0.00    +0.000 C 
ATOM      8  S   UNL     1      -6.131   4.036 132.854  0.00  0.00    +0.000 S 
ATOM      9  C   UNL     1      -6.385   3.159 131.309  0.00  0.00    +0.000 C 
ENDROOT
BRANCH   6  10
ATOM     10  C   UNL     1      -5.059   0.458 134.483  0.00  0.00    +0.000 C 
ATOM     11  C   UNL     1      -3.902  -0.213 134.394  0.00  0.00    +0.000 C 
ATOM     12  C   UNL     1      -2.912  -0.233 133.275  0.00  0.00    +0.000 C 
ATOM     13  C   UNL     1      -1.763  -1.060 133.817  0.00  0.00    +0.000 C 
ATOM     14  N   UNL     1      -2.241  -1.661 135.044  0.00  0.00    +0.000 N 
ATOM     15  C   UNL     1      -3.423  -1.104 135.488  0.00  0.00    +0.000 C 
ATOM     16  O   UNL     1      -4.008  -1.333 136.531  0.00  0.00    +0.000 OA
BRANCH  14  17
ATOM     17  C   UNL     1      -1.524  -2.713 135.774  0.00  0.00    +0.000 C 
ATOM     18  C   UNL     1      -0.093  -2.332 136.122  0.00  0.00    +0.000 C 
ATOM     19  C   UNL     1       0.692  -2.814 134.919  0.00  0.00    +0.000 C 
ATOM     20  N   UNL     1       0.078  -4.101 134.570  0.00  0.00    +0.000 NA
ATOM     21  C   UNL     1      -1.352  -3.994 134.940  0.00  0.00    +0.000 C 
ATOM     22  H   UNL     1       0.500  -4.819 135.160  0.00  0.00    +0.000 HD
ENDBRANCH  14  17
ENDBRANCH   6  10
BRANCH   1  23
ATOM     23  N   UNL     1      -8.518   4.655 130.776  0.00  0.00    +0.000 N 
ATOM     24  C   UNL     1      -9.867   4.827 130.475  0.00  0.00    +0.000 C 
ATOM     25  O   UNL     1     -10.516   3.987 129.866  0.00  0.00    +0.000 OA
ATOM     26  H   UNL     1      -8.052   5.501 131.104  0.00  0.00    +0.000 HD
BRANCH  24  27
ATOM     27  C   UNL     1     -10.550   6.157 130.879  0.00  0.00    +0.000 C 
ATOM     28  N   UNL     1     -10.815   6.502 132.122  0.00  0.00    +0.000 NA
BRANCH  27  29
ATOM     29  C   UNL     1     -10.907   7.126 129.794  0.00  0.00    +0.000 A 
ATOM     30  N   UNL     1     -10.173   7.205 128.669  0.00  0.00    +0.000 NA
ATOM     31  S   UNL     1     -10.889   8.344 127.676  0.00  0.00    +0.000 S 
ATOM     32  C   UNL     1     -12.120   8.741 128.814  0.00  0.00    +0.000 A 
ATOM     33  N   UNL     1     -13.054   9.685 128.598  0.00  0.00    +0.000 N 
ATOM     34  N   UNL     1     -12.011   8.009 129.902  0.00  0.00    +0.000 NA
ATOM     35  H   UNL     1     -13.112  10.227 127.742  0.00  0.00    +0.000 HD
ATOM     36  H   UNL     1     -13.758   9.881 129.299  0.00  0.00    +0.000 HD
ENDBRANCH  27  29
BRANCH  28  37
ATOM     37  O   UNL     1     -10.479   5.543 133.092  0.00  0.00    +0.000 OA
ATOM     38  H   UNL     1     -10.496   4.699 132.595  0.00  0.00    +0.000 HD
ENDBRANCH  28  37
ENDBRANCH  24  27
ENDBRANCH   1  23
BRANCH   5  39
ATOM     39  C   UNL     1      -6.934  -0.530 132.485  0.00  0.00    +0.000 C 
ATOM     40  OXT UNL     1      -6.328  -1.444 131.943  0.00  0.00    +0.000 OA
BRANCH  39  41
ATOM     41  O   UNL     1      -8.148  -0.780 133.021  0.00  0.00    +0.000 OA
ATOM     42  H   UNL     1      -8.824  -0.087 132.893  0.00  0.00    +0.000 HD
ENDBRANCH  39  41
ENDBRANCH   5  39
TORSDOF 8
ENDMDL
MODEL 9
REMARK VINA RESULT:      -7.8      4.174      5.850
REMARK  Name = Ceftobiprole
REMARK  8 active torsions:
REMARK  status: ('A' for Active; 'I' for Inactive)
REMARK    1  A    between atoms: CA_2  and  N_3
REMARK    2  A    between atoms: C_4  and  C_6
REMARK    3  A    between atoms: C_6  and  C_9
REMARK    4  A    between atoms: N_7  and  O_8
REMARK    5  A    between atoms: CA_18  and  C_19
REMARK    6  A    between atoms: C_19  and  O_20
REMARK    7  A    between atoms: C_22  and  C_27
REMARK    8  A    between atoms: N_31  and  C_34
REMARK                            x       y       z     vdW  Elec       q    Type
REMARK                         _______ _______ _______ _____ _____    ______ ____
ROOT
ATOM      1  CA  UNL     1      -8.257   3.948 130.053  0.00  0.00    +0.000 C 
ATOM      2  C   UNL     1      -8.300   2.673 129.161  0.00  0.00    +0.000 C 
ATOM      3  O   UNL     1      -8.736   2.328 128.092  0.00  0.00    +0.000 OA
ATOM      4  N   UNL     1      -7.481   2.011 130.021  0.00  0.00    +0.000 N 
ATOM      5  CA  UNL     1      -7.260   0.666 130.207  0.00  0.00    +0.000 C 
ATOM      6  C   UNL     1      -7.204   0.158 131.468  0.00  0.00    +0.000 C 
ATOM      7  C   UNL     1      -7.438   0.964 132.731  0.00  0.00    +0.000 C 
ATOM      8  S   UNL     1      -8.388   2.469 132.529  0.00  0.00    +0.000 S 
ATOM      9  C   UNL     1      -7.506   3.029 131.070  0.00  0.00    +0.000 C 
ENDROOT
BRANCH   6  10
ATOM     10  C   UNL     1      -6.914  -1.250 131.753  0.00  0.00    +0.000 C 
ATOM     11  C   UNL     1      -5.751  -1.724 132.224  0.00  0.00    +0.000 C 
ATOM     12  C   UNL     1      -4.503  -0.978 132.565  0.00  0.00    +0.000 C 
ATOM     13  C   UNL     1      -3.597  -2.034 133.166  0.00  0.00    +0.000 C 
ATOM     14  N   UNL     1      -4.234  -3.308 132.906  0.00  0.00    +0.000 N 
ATOM     15  C   UNL     1      -5.540  -3.176 132.479  0.00  0.00    +0.000 C 
ATOM     16  O   UNL     1      -6.350  -4.063 132.279  0.00  0.00    +0.000 OA
BRANCH  14  17
ATOM     17  C   UNL     1      -3.587  -4.606 133.123  0.00  0.00    +0.000 C 
ATOM     18  C   UNL     1      -4.493  -5.622 133.804  0.00  0.00    +0.000 C 
ATOM     19  C   UNL     1      -4.224  -5.389 135.276  0.00  0.00    +0.000 C 
ATOM     20  N   UNL     1      -2.776  -5.161 135.355  0.00  0.00    +0.000 NA
ATOM     21  C   UNL     1      -2.387  -4.513 134.081  0.00  0.00    +0.000 C 
ATOM     22  H   UNL     1      -2.317  -6.072 135.393  0.00  0.00    +0.000 HD
ENDBRANCH  14  17
ENDBRANCH   6  10
BRANCH   1  23
ATOM     23  N   UNL     1      -9.516   4.651 130.440  0.00  0.00    +0.000 N 
ATOM     24  C   UNL     1      -9.807   6.000 130.249  0.00  0.00    +0.000 C 
ATOM     25  O   UNL     1      -8.993   6.788 129.786  0.00  0.00    +0.000 OA
ATOM     26  H   UNL     1     -10.200   4.154 131.009  0.00  0.00    +0.000 HD
BRANCH  24  27
ATOM     27  C   UNL     1     -11.194   6.527 130.695  0.00  0.00    +0.000 C 
ATOM     28  N   UNL     1     -11.654   6.442 131.926  0.00  0.00    +0.000 NA
BRANCH  27  29
ATOM     29  C   UNL     1     -12.056   7.200 129.671  0.00  0.00    +0.000 A 
ATOM     30  N   UNL     1     -12.571   6.508 128.639  0.00  0.00    +0.000 NA
ATOM     31  S   UNL     1     -13.510   7.562 127.742  0.00  0.00    +0.000 S 
ATOM     32  C   UNL     1     -13.141   8.925 128.729  0.00  0.00    +0.000 A 
ATOM     33  N   UNL     1     -13.602  10.165 128.484  0.00  0.00    +0.000 N 
ATOM     34  N   UNL     1     -12.355   8.585 129.728  0.00  0.00    +0.000 NA
ATOM     35  H   UNL     1     -14.213  10.389 127.706  0.00  0.00    +0.000 HD
ATOM     36  H   UNL     1     -13.357  10.934 129.096  0.00  0.00    +0.000 HD
ENDBRANCH  27  29
BRANCH  28  37
ATOM     37  O   UNL     1     -10.810   5.780 132.834  0.00  0.00    +0.000 OA
ATOM     38  H   UNL     1     -10.403   6.511 133.342  0.00  0.00    +0.000 HD
ENDBRANCH  28  37
ENDBRANCH  24  27
ENDBRANCH   1  23
BRANCH   5  39
ATOM     39  C   UNL     1      -7.045  -0.266 129.014  0.00  0.00    +0.000 C 
ATOM     40  OXT UNL     1      -7.915  -0.973 128.525  0.00  0.00    +0.000 OA
BRANCH  39  41
ATOM     41  O   UNL     1      -5.778  -0.380 128.561  0.00  0.00    +0.000 OA
ATOM     42  H   UNL     1      -5.160  -0.868 129.136  0.00  0.00    +0.000 HD
ENDBRANCH  39  41
ENDBRANCH   5  39
TORSDOF 8
ENDMDL
