MODEL 1
REMARK VINA RESULT:      -8.9      0.000      0.000
REMARK  Name = Ceftazidime
REMARK  12 active torsions:
REMARK  status: ('A' for Active; 'I' for Inactive)
REMARK    1  A    between atoms: C_2  and  CA_4
REMARK    2  A    between atoms: C_5  and  C_32
REMARK    3  A    between atoms: CA_10  and  N_11
REMARK    4  A    between atoms: C_12  and  C_14
REMARK    5  A    between atoms: C_14  and  C_23
REMARK    6  A    between atoms: N_15  and  O_16
REMARK    7  A    between atoms: O_16  and  C_17
REMARK    8  A    between atoms: C_17  and  C_18
REMARK    9  A    between atoms: C_17  and  C_19
REMARK   10  A    between atoms: C_17  and  C_20
REMARK   11  A    between atoms: C_20  and  O_21
REMARK   12  A    between atoms: C_32  and  N_33
REMARK                            x       y       z     vdW  Elec       q    Type
REMARK                         _______ _______ _______ _____ _____    ______ ____
ROOT
ATOM      1  N   UNL     1      -8.282   4.421 128.482  0.00  0.00    +0.000 N 
ATOM      2  C   UNL     1      -8.002   5.231 129.558  0.00  0.00    +0.000 C 
ATOM      3  O   UNL     1      -6.922   5.758 129.761  0.00  0.00    +0.000 OA
ATOM      4  H   UNL     1      -9.192   4.018 128.594  0.00  0.00    +0.000 HD
ENDROOT
BRANCH   1  10
ATOM      5  CA  UNL     1      -7.878   2.026 124.617  0.00  0.00    +0.000 C 
ATOM      6  C   UNL     1      -8.265   0.751 124.887  0.00  0.00    +0.000 C 
ATOM      7  C   UNL     1      -8.315   0.220 126.297  0.00  0.00    +0.000 C 
ATOM      8  S   UNL     1      -8.594   1.411 127.598  0.00  0.00    +0.000 S 
ATOM      9  C   UNL     1      -7.294   2.499 127.015  0.00  0.00    +0.000 C 
ATOM     10  CA  UNL     1      -7.414   4.001 127.357  0.00  0.00    +0.000 C 
ATOM     11  C   UNL     1      -7.842   4.173 125.874  0.00  0.00    +0.000 C 
ATOM     12  O   UNL     1      -8.310   5.064 125.217  0.00  0.00    +0.000 OA
ATOM     13  N   UNL     1      -7.506   2.872 125.631  0.00  0.00    +0.000 N 
BRANCH   5  15
ATOM     14  O   UNL     1      -6.604   2.506 122.637  0.00  0.00    +0.000 OA
ATOM     15  C   UNL     1      -7.782   2.498 123.103  0.00  0.00    +0.000 C 
ATOM     16  OXT UNL     1      -8.831   3.044 122.666  0.00  0.00    +0.000 OA
ENDBRANCH   5  15
BRANCH   6  17
ATOM     17  C   UNL     1      -8.660  -0.188 123.736  0.00  0.00    +0.000 C 
BRANCH  17  18
ATOM     18  N   UNL     1      -7.807  -1.414 123.674  0.00  0.00    +0.000 N 
ATOM     19  C   UNL     1      -8.346  -2.615 123.998  0.00  0.00    +0.000 A 
ATOM     20  C   UNL     1      -7.512  -3.664 124.367  0.00  0.00    +0.000 A 
ATOM     21  C   UNL     1      -6.153  -3.563 124.109  0.00  0.00    +0.000 A 
ATOM     22  C   UNL     1      -5.663  -2.418 123.496  0.00  0.00    +0.000 A 
ATOM     23  C   UNL     1      -6.500  -1.315 123.349  0.00  0.00    +0.000 A 
ENDBRANCH  17  18
ENDBRANCH   6  17
ENDBRANCH   1  10
BRANCH   2  24
ATOM     24  C   UNL     1      -9.191   5.399 130.560  0.00  0.00    +0.000 C 
ATOM     25  N   UNL     1     -10.416   5.775 130.233  0.00  0.00    +0.000 NA
BRANCH  24  26
ATOM     26  C   UNL     1      -8.952   5.092 131.982  0.00  0.00    +0.000 A 
ATOM     27  C   UNL     1      -8.897   3.813 132.507  0.00  0.00    +0.000 A 
ATOM     28  S   UNL     1      -8.572   3.865 134.189  0.00  0.00    +0.000 S 
ATOM     29  C   UNL     1      -8.542   5.579 134.126  0.00  0.00    +0.000 A 
ATOM     30  N   UNL     1      -8.333   6.306 135.232  0.00  0.00    +0.000 N 
ATOM     31  N   UNL     1      -8.755   6.096 132.939  0.00  0.00    +0.000 NA
ATOM     32  H   UNL     1      -8.125   5.876 136.123  0.00  0.00    +0.000 HD
ATOM     33  H   UNL     1      -8.248   7.311 135.166  0.00  0.00    +0.000 HD
ENDBRANCH  24  26
BRANCH  25  34
ATOM     34  O   UNL     1     -10.618   6.086 128.866  0.00  0.00    +0.000 OA
BRANCH  34  35
ATOM     35  C   UNL     1     -11.419   7.260 128.644  0.00  0.00    +0.000 C 
ATOM     36  C   UNL     1     -12.199   7.633 129.904  0.00  0.00    +0.000 C 
ATOM     37  C   UNL     1     -10.556   8.438 128.180  0.00  0.00    +0.000 C 
BRANCH  35  38
ATOM     38  C   UNL     1     -12.456   6.988 127.519  0.00  0.00    +0.000 C 
ATOM     39  O   UNL     1     -13.667   7.077 127.680  0.00  0.00    +0.000 OA
BRANCH  38  40
ATOM     40  O   UNL     1     -11.969   6.650 126.303  0.00  0.00    +0.000 OA
ATOM     41  H   UNL     1     -11.134   7.062 126.047  0.00  0.00    +0.000 HD
ENDBRANCH  38  40
ENDBRANCH  35  38
ENDBRANCH  34  35
ENDBRANCH  25  34
ENDBRANCH   2  24
TORSDOF 10
ENDMDL
MODEL 2
REMARK VINA RESULT:      -8.5      1.445      1.705
REMARK  Name = Ceftazidime
REMARK  12 active torsions:
REMARK  status: ('A' for Active; 'I' for Inactive)
REMARK    1  A    between atoms: C_2  and  CA_4
REMARK    2  A    between atoms: C_5  and  C_32
REMARK    3  A    between atoms: CA_10  and  N_11
REMARK    4  A    between atoms: C_12  and  C_14
REMARK    5  A    between atoms: C_14  and  C_23
REMARK    6  A    between atoms: N_15  and  O_16
REMARK    7  A    between atoms: O_16  and  C_17
REMARK    8  A    between atoms: C_17  and  C_18
REMARK    9  A    between atoms: C_17  and  C_19
REMARK   10  A    between atoms: C_17  and  C_20
REMARK   11  A    between atoms: C_20  and  O_21
REMARK   12  A    between atoms: C_32  and  N_33
REMARK                            x       y       z     vdW  Elec       q    Type
REMARK                         _______ _______ _______ _____ _____    ______ ____
ROOT
ATOM      1  N   UNL     1      -8.057   4.215 128.528  0.00  0.00    +0.000 N 
ATOM      2  C   UNL     1      -7.846   4.975 129.655  0.00  0.00    +0.000 C 
ATOM      3  O   UNL     1      -6.917   5.752 129.797  0.00  0.00    +0.000 OA
ATOM      4  H   UNL     1      -8.810   3.576 128.693  0.00  0.00    +0.000 HD
ENDROOT
BRANCH   1  10
ATOM      5  CA  UNL     1      -6.862   1.748 124.878  0.00  0.00    +0.000 C 
ATOM      6  C   UNL     1      -6.379   0.561 125.331  0.00  0.00    +0.000 C 
ATOM      7  C   UNL     1      -5.907   0.388 126.753  0.00  0.00    +0.000 C 
ATOM      8  S   UNL     1      -6.650   1.447 127.983  0.00  0.00    +0.000 S 
ATOM      9  C   UNL     1      -6.342   2.934 127.031  0.00  0.00    +0.000 C 
ATOM     10  CA  UNL     1      -7.276   4.141 127.271  0.00  0.00    +0.000 C 
ATOM     11  C   UNL     1      -7.926   3.743 125.918  0.00  0.00    +0.000 C 
ATOM     12  O   UNL     1      -8.916   4.064 125.317  0.00  0.00    +0.000 OA
ATOM     13  N   UNL     1      -6.925   2.838 125.709  0.00  0.00    +0.000 N 
BRANCH   5  15
ATOM     14  O   UNL     1      -6.426   2.487 122.634  0.00  0.00    +0.000 OA
ATOM     15  C   UNL     1      -7.276   1.879 123.350  0.00  0.00    +0.000 C 
ATOM     16  OXT UNL     1      -8.485   1.605 123.119  0.00  0.00    +0.000 OA
ENDBRANCH   5  15
BRANCH   6  17
ATOM     17  C   UNL     1      -6.298  -0.644 124.381  0.00  0.00    +0.000 C 
BRANCH  17  18
ATOM     18  N   UNL     1      -7.549  -1.463 124.382  0.00  0.00    +0.000 N 
ATOM     19  C   UNL     1      -8.112  -1.814 125.565  0.00  0.00    +0.000 A 
ATOM     20  C   UNL     1      -8.982  -2.896 125.616  0.00  0.00    +0.000 A 
ATOM     21  C   UNL     1      -9.491  -3.404 124.431  0.00  0.00    +0.000 A 
ATOM     22  C   UNL     1      -9.115  -2.823 123.227  0.00  0.00    +0.000 A 
ATOM     23  C   UNL     1      -8.080  -1.893 123.217  0.00  0.00    +0.000 A 
ENDBRANCH  17  18
ENDBRANCH   6  17
ENDBRANCH   1  10
BRANCH   2  24
ATOM     24  C   UNL     1      -8.885   4.732 130.797  0.00  0.00    +0.000 C 
ATOM     25  N   UNL     1     -10.199   4.770 130.652  0.00  0.00    +0.000 NA
BRANCH  24  26
ATOM     26  C   UNL     1      -8.380   4.407 132.143  0.00  0.00    +0.000 A 
ATOM     27  C   UNL     1      -7.618   3.292 132.444  0.00  0.00    +0.000 A 
ATOM     28  S   UNL     1      -7.198   3.278 134.105  0.00  0.00    +0.000 S 
ATOM     29  C   UNL     1      -8.065   4.741 134.332  0.00  0.00    +0.000 A 
ATOM     30  N   UNL     1      -8.150   5.311 135.542  0.00  0.00    +0.000 N 
ATOM     31  N   UNL     1      -8.634   5.224 133.253  0.00  0.00    +0.000 NA
ATOM     32  H   UNL     1      -7.661   4.939 136.344  0.00  0.00    +0.000 HD
ATOM     33  H   UNL     1      -8.605   6.208 135.645  0.00  0.00    +0.000 HD
ENDBRANCH  24  26
BRANCH  25  34
ATOM     34  O   UNL     1     -10.664   5.106 129.356  0.00  0.00    +0.000 OA
BRANCH  34  35
ATOM     35  C   UNL     1     -11.165   6.450 129.242  0.00  0.00    +0.000 C 
ATOM     36  C   UNL     1     -12.641   6.449 128.846  0.00  0.00    +0.000 C 
ATOM     37  C   UNL     1     -10.962   7.227 130.546  0.00  0.00    +0.000 C 
BRANCH  35  38
ATOM     38  C   UNL     1     -10.387   7.212 128.134  0.00  0.00    +0.000 C 
ATOM     39  O   UNL     1     -10.216   8.425 128.140  0.00  0.00    +0.000 OA
BRANCH  38  40
ATOM     40  O   UNL     1      -9.870   6.472 127.127  0.00  0.00    +0.000 OA
ATOM     41  H   UNL     1      -9.684   5.546 127.329  0.00  0.00    +0.000 HD
ENDBRANCH  38  40
ENDBRANCH  35  38
ENDBRANCH  34  35
ENDBRANCH  25  34
ENDBRANCH   2  24
TORSDOF 10
ENDMDL
MODEL 3
REMARK VINA RESULT:      -8.3      2.036      2.468
REMARK  Name = Ceftazidime
REMARK  12 active torsions:
REMARK  status: ('A' for Active; 'I' for Inactive)
REMARK    1  A    between atoms: C_2  and  CA_4
REMARK    2  A    between atoms: C_5  and  C_32
REMARK    3  A    between atoms: CA_10  and  N_11
REMARK    4  A    between atoms: C_12  and  C_14
REMARK    5  A    between atoms: C_14  and  C_23
REMARK    6  A    between atoms: N_15  and  O_16
REMARK    7  A    between atoms: O_16  and  C_17
REMARK    8  A    between atoms: C_17  and  C_18
REMARK    9  A    between atoms: C_17  and  C_19
REMARK   10  A    between atoms: C_17  and  C_20
REMARK   11  A    between atoms: C_20  and  O_21
REMARK   12  A    between atoms: C_32  and  N_33
REMARK                            x       y       z     vdW  Elec       q    Type
REMARK                         _______ _______ _______ _____ _____    ______ ____
ROOT
ATOM      1  N   UNL     1      -7.485   3.986 128.490  0.00  0.00    +0.000 N 
ATOM      2  C   UNL     1      -8.511   3.216 128.986  0.00  0.00    +0.000 C 
ATOM      3  O   UNL     1      -9.171   2.437 128.320  0.00  0.00    +0.000 OA
ATOM      4  H   UNL     1      -7.174   4.624 129.197  0.00  0.00    +0.000 HD
ENDROOT
BRANCH   1  10
ATOM      5  CA  UNL     1      -7.167   2.092 124.349  0.00  0.00    +0.000 C 
ATOM      6  C   UNL     1      -6.733   0.816 124.518  0.00  0.00    +0.000 C 
ATOM      7  C   UNL     1      -6.049   0.374 125.787  0.00  0.00    +0.000 C 
ATOM      8  S   UNL     1      -6.467   1.259 127.280  0.00  0.00    +0.000 S 
ATOM      9  C   UNL     1      -6.180   2.860 126.528  0.00  0.00    +0.000 C 
ATOM     10  CA  UNL     1      -6.938   4.071 127.115  0.00  0.00    +0.000 C 
ATOM     11  C   UNL     1      -7.841   3.953 125.858  0.00  0.00    +0.000 C 
ATOM     12  O   UNL     1      -8.882   4.438 125.503  0.00  0.00    +0.000 OA
ATOM     13  N   UNL     1      -6.983   3.029 125.334  0.00  0.00    +0.000 N 
BRANCH   5  15
ATOM     14  O   UNL     1      -7.041   3.155 122.197  0.00  0.00    +0.000 OA
ATOM     15  C   UNL     1      -7.818   2.508 122.959  0.00  0.00    +0.000 C 
ATOM     16  OXT UNL     1      -9.071   2.373 122.917  0.00  0.00    +0.000 OA
ENDBRANCH   5  15
BRANCH   6  17
ATOM     17  C   UNL     1      -6.932  -0.215 123.395  0.00  0.00    +0.000 C 
BRANCH  17  18
ATOM     18  N   UNL     1      -7.556  -1.483 123.881  0.00  0.00    +0.000 N 
ATOM     19  C   UNL     1      -8.776  -1.440 124.471  0.00  0.00    +0.000 A 
ATOM     20  C   UNL     1      -9.176  -2.484 125.298  0.00  0.00    +0.000 A 
ATOM     21  C   UNL     1      -8.465  -3.674 125.267  0.00  0.00    +0.000 A 
ATOM     22  C   UNL     1      -7.373  -3.789 124.417  0.00  0.00    +0.000 A 
ATOM     23  C   UNL     1      -6.886  -2.651 123.780  0.00  0.00    +0.000 A 
ENDBRANCH  17  18
ENDBRANCH   6  17
ENDBRANCH   1  10
BRANCH   2  24
ATOM     24  C   UNL     1      -8.813   3.449 130.502  0.00  0.00    +0.000 C 
ATOM     25  N   UNL     1      -9.901   4.028 130.982  0.00  0.00    +0.000 NA
BRANCH  24  26
ATOM     26  C   UNL     1      -7.831   2.967 131.491  0.00  0.00    +0.000 A 
ATOM     27  C   UNL     1      -8.150   2.205 132.601  0.00  0.00    +0.000 A 
ATOM     28  S   UNL     1      -6.738   1.817 133.491  0.00  0.00    +0.000 S 
ATOM     29  C   UNL     1      -5.791   2.696 132.364  0.00  0.00    +0.000 A 
ATOM     30  N   UNL     1      -4.464   2.808 132.518  0.00  0.00    +0.000 N 
ATOM     31  N   UNL     1      -6.463   3.247 131.381  0.00  0.00    +0.000 NA
ATOM     32  H   UNL     1      -3.969   2.332 133.260  0.00  0.00    +0.000 HD
ATOM     33  H   UNL     1      -3.912   3.269 131.808  0.00  0.00    +0.000 HD
ENDBRANCH  24  26
BRANCH  25  34
ATOM     34  O   UNL     1     -10.820   4.503 130.015  0.00  0.00    +0.000 OA
BRANCH  34  35
ATOM     35  C   UNL     1     -11.043   5.924 130.066  0.00  0.00    +0.000 C 
ATOM     36  C   UNL     1     -12.405   6.283 129.472  0.00  0.00    +0.000 C 
ATOM     37  C   UNL     1     -10.929   6.450 131.499  0.00  0.00    +0.000 C 
BRANCH  35  38
ATOM     38  C   UNL     1      -9.962   6.659 129.225  0.00  0.00    +0.000 C 
ATOM     39  O   UNL     1      -9.342   7.637 129.627  0.00  0.00    +0.000 OA
BRANCH  38  40
ATOM     40  O   UNL     1      -9.701   6.166 127.993  0.00  0.00    +0.000 OA
ATOM     41  H   UNL     1      -8.814   6.330 127.646  0.00  0.00    +0.000 HD
ENDBRANCH  38  40
ENDBRANCH  35  38
ENDBRANCH  34  35
ENDBRANCH  25  34
ENDBRANCH   2  24
TORSDOF 10
ENDMDL
MODEL 4
REMARK VINA RESULT:      -8.3      2.031      4.206
REMARK  Name = Ceftazidime
REMARK  12 active torsions:
REMARK  status: ('A' for Active; 'I' for Inactive)
REMARK    1  A    between atoms: C_2  and  CA_4
REMARK    2  A    between atoms: C_5  and  C_32
REMARK    3  A    between atoms: CA_10  and  N_11
REMARK    4  A    between atoms: C_12  and  C_14
REMARK    5  A    between atoms: C_14  and  C_23
REMARK    6  A    between atoms: N_15  and  O_16
REMARK    7  A    between atoms: O_16  and  C_17
REMARK    8  A    between atoms: C_17  and  C_18
REMARK    9  A    between atoms: C_17  and  C_19
REMARK   10  A    between atoms: C_17  and  C_20
REMARK   11  A    between atoms: C_20  and  O_21
REMARK   12  A    between atoms: C_32  and  N_33
REMARK                            x       y       z     vdW  Elec       q    Type
REMARK                         _______ _______ _______ _____ _____    ______ ____
ROOT
ATOM      1  N   UNL     1      -8.114   4.384 128.510  0.00  0.00    +0.000 N 
ATOM      2  C   UNL     1      -7.754   5.100 129.628  0.00  0.00    +0.000 C 
ATOM      3  O   UNL     1      -6.632   5.526 129.841  0.00  0.00    +0.000 OA
ATOM      4  H   UNL     1      -9.053   4.049 128.615  0.00  0.00    +0.000 HD
ENDROOT
BRANCH   1  10
ATOM      5  CA  UNL     1      -7.887   1.985 124.632  0.00  0.00    +0.000 C 
ATOM      6  C   UNL     1      -8.252   0.709 124.923  0.00  0.00    +0.000 C 
ATOM      7  C   UNL     1      -8.229   0.180 126.335  0.00  0.00    +0.000 C 
ATOM      8  S   UNL     1      -8.450   1.371 127.646  0.00  0.00    +0.000 S 
ATOM      9  C   UNL     1      -7.188   2.466 126.998  0.00  0.00    +0.000 C 
ATOM     10  CA  UNL     1      -7.300   3.968 127.344  0.00  0.00    +0.000 C 
ATOM     11  C   UNL     1      -7.802   4.135 125.884  0.00  0.00    +0.000 C 
ATOM     12  O   UNL     1      -8.308   5.022 125.249  0.00  0.00    +0.000 OA
ATOM     13  N   UNL     1      -7.471   2.836 125.626  0.00  0.00    +0.000 N 
BRANCH   5  15
ATOM     14  O   UNL     1      -6.721   2.425 122.577  0.00  0.00    +0.000 OA
ATOM     15  C   UNL     1      -7.868   2.456 123.115  0.00  0.00    +0.000 C 
ATOM     16  OXT UNL     1      -8.924   3.037 122.743  0.00  0.00    +0.000 OA
ENDBRANCH   5  15
BRANCH   6  17
ATOM     17  C   UNL     1      -8.697  -0.234 123.794  0.00  0.00    +0.000 C 
BRANCH  17  18
ATOM     18  N   UNL     1      -7.839  -1.454 123.691  0.00  0.00    +0.000 N 
ATOM     19  C   UNL     1      -8.345  -2.656 124.065  0.00  0.00    +0.000 A 
ATOM     20  C   UNL     1      -7.480  -3.693 124.390  0.00  0.00    +0.000 A 
ATOM     21  C   UNL     1      -6.142  -3.585 124.042  0.00  0.00    +0.000 A 
ATOM     22  C   UNL     1      -5.703  -2.444 123.383  0.00  0.00    +0.000 A 
ATOM     23  C   UNL     1      -6.557  -1.350 123.279  0.00  0.00    +0.000 A 
ENDBRANCH  17  18
ENDBRANCH   6  17
ENDBRANCH   1  10
BRANCH   2  24
ATOM     24  C   UNL     1      -8.910   5.299 130.662  0.00  0.00    +0.000 C 
ATOM     25  N   UNL     1      -8.980   4.715 131.846  0.00  0.00    +0.000 NA
BRANCH  24  26
ATOM     26  C   UNL     1     -10.003   6.226 130.318  0.00  0.00    +0.000 A 
ATOM     27  C   UNL     1     -11.215   6.286 130.982  0.00  0.00    +0.000 A 
ATOM     28  S   UNL     1     -12.211   7.508 130.311  0.00  0.00    +0.000 S 
ATOM     29  C   UNL     1     -10.984   7.874 129.168  0.00  0.00    +0.000 A 
ATOM     30  N   UNL     1     -11.166   8.827 128.244  0.00  0.00    +0.000 N 
ATOM     31  N   UNL     1      -9.897   7.146 129.267  0.00  0.00    +0.000 NA
ATOM     32  H   UNL     1     -11.997   9.403 128.224  0.00  0.00    +0.000 HD
ATOM     33  H   UNL     1     -10.408   9.078 127.624  0.00  0.00    +0.000 HD
ENDBRANCH  24  26
BRANCH  25  34
ATOM     34  O   UNL     1      -7.932   3.811 132.148  0.00  0.00    +0.000 OA
BRANCH  34  35
ATOM     35  C   UNL     1      -7.511   3.838 133.524  0.00  0.00    +0.000 C 
ATOM     36  C   UNL     1      -8.672   4.225 134.441  0.00  0.00    +0.000 C 
ATOM     37  C   UNL     1      -6.920   2.491 133.948  0.00  0.00    +0.000 C 
BRANCH  35  38
ATOM     38  C   UNL     1      -6.396   4.904 133.715  0.00  0.00    +0.000 C 
ATOM     39  O   UNL     1      -5.596   4.886 134.642  0.00  0.00    +0.000 OA
BRANCH  38  40
ATOM     40  O   UNL     1      -6.317   5.883 132.785  0.00  0.00    +0.000 OA
ATOM     41  H   UNL     1      -6.841   5.755 131.984  0.00  0.00    +0.000 HD
ENDBRANCH  38  40
ENDBRANCH  35  38
ENDBRANCH  34  35
ENDBRANCH  25  34
ENDBRANCH   2  24
TORSDOF 10
ENDMDL
MODEL 5
REMARK VINA RESULT:      -8.2      3.511      4.461
REMARK  Name = Ceftazidime
REMARK  12 active torsions:
REMARK  status: ('A' for Active; 'I' for Inactive)
REMARK    1  A    between atoms: C_2  and  CA_4
REMARK    2  A    between atoms: C_5  and  C_32
REMARK    3  A    between atoms: CA_10  and  N_11
REMARK    4  A    between atoms: C_12  and  C_14
REMARK    5  A    between atoms: C_14  and  C_23
REMARK    6  A    between atoms: N_15  and  O_16
REMARK    7  A    between atoms: O_16  and  C_17
REMARK    8  A    between atoms: C_17  and  C_18
REMARK    9  A    between atoms: C_17  and  C_19
REMARK   10  A    between atoms: C_17  and  C_20
REMARK   11  A    between atoms: C_20  and  O_21
REMARK   12  A    between atoms: C_32  and  N_33
REMARK                            x       y       z     vdW  Elec       q    Type
REMARK                         _______ _______ _______ _____ _____    ______ ____
ROOT
ATOM      1  N   UNL     1      -6.029   4.430 126.978  0.00  0.00    +0.000 N 
ATOM      2  C   UNL     1      -4.824   4.632 127.609  0.00  0.00    +0.000 C 
ATOM      3  O   UNL     1      -3.745   4.661 127.042  0.00  0.00    +0.000 OA
ATOM      4  H   UNL     1      -6.754   4.334 127.664  0.00  0.00    +0.000 HD
ENDROOT
BRANCH   1  10
ATOM      5  CA  UNL     1      -7.950   1.768 123.806  0.00  0.00    +0.000 C 
ATOM      6  C   UNL     1      -7.442   0.517 123.964  0.00  0.00    +0.000 C 
ATOM      7  C   UNL     1      -6.159   0.272 124.716  0.00  0.00    +0.000 C 
ATOM      8  S   UNL     1      -5.728   1.453 125.984  0.00  0.00    +0.000 S 
ATOM      9  C   UNL     1      -5.964   2.857 124.894  0.00  0.00    +0.000 C 
ATOM     10  CA  UNL     1      -6.326   4.211 125.543  0.00  0.00    +0.000 C 
ATOM     11  C   UNL     1      -7.764   3.926 125.031  0.00  0.00    +0.000 C 
ATOM     12  O   UNL     1      -8.848   4.413 125.210  0.00  0.00    +0.000 OA
ATOM     13  N   UNL     1      -7.295   2.857 124.322  0.00  0.00    +0.000 N 
BRANCH   5  15
ATOM     14  O   UNL     1      -9.097   2.613 121.871  0.00  0.00    +0.000 OA
ATOM     15  C   UNL     1      -9.270   1.961 122.943  0.00  0.00    +0.000 C 
ATOM     16  OXT UNL     1     -10.334   1.679 123.558  0.00  0.00    +0.000 OA
ENDBRANCH   5  15
BRANCH   6  17
ATOM     17  C   UNL     1      -8.181  -0.689 123.362  0.00  0.00    +0.000 C 
BRANCH  17  18
ATOM     18  N   UNL     1      -8.488  -1.742 124.377  0.00  0.00    +0.000 N 
ATOM     19  C   UNL     1      -9.081  -1.387 125.544  0.00  0.00    +0.000 A 
ATOM     20  C   UNL     1      -8.984  -2.228 126.646  0.00  0.00    +0.000 A 
ATOM     21  C   UNL     1      -8.552  -3.532 126.460  0.00  0.00    +0.000 A 
ATOM     22  C   UNL     1      -8.223  -3.961 125.180  0.00  0.00    +0.000 A 
ATOM     23  C   UNL     1      -8.129  -3.025 124.154  0.00  0.00    +0.000 A 
ENDBRANCH  17  18
ENDBRANCH   6  17
ENDBRANCH   1  10
BRANCH   2  24
ATOM     24  C   UNL     1      -4.930   4.783 129.162  0.00  0.00    +0.000 C 
ATOM     25  N   UNL     1      -5.418   3.870 129.984  0.00  0.00    +0.000 NA
BRANCH  24  26
ATOM     26  C   UNL     1      -4.428   6.024 129.778  0.00  0.00    +0.000 A 
ATOM     27  C   UNL     1      -3.890   6.103 131.051  0.00  0.00    +0.000 A 
ATOM     28  S   UNL     1      -3.391   7.705 131.398  0.00  0.00    +0.000 S 
ATOM     29  C   UNL     1      -3.934   8.204 129.848  0.00  0.00    +0.000 A 
ATOM     30  N   UNL     1      -3.837   9.484 129.465  0.00  0.00    +0.000 N 
ATOM     31  N   UNL     1      -4.452   7.253 129.108  0.00  0.00    +0.000 NA
ATOM     32  H   UNL     1      -3.389  10.184 130.040  0.00  0.00    +0.000 HD
ATOM     33  H   UNL     1      -4.096   9.748 128.524  0.00  0.00    +0.000 HD
ENDBRANCH  24  26
BRANCH  25  34
ATOM     34  O   UNL     1      -5.916   2.694 129.370  0.00  0.00    +0.000 OA
BRANCH  34  35
ATOM     35  C   UNL     1      -7.239   2.324 129.798  0.00  0.00    +0.000 C 
ATOM     36  C   UNL     1      -7.405   0.804 129.798  0.00  0.00    +0.000 C 
ATOM     37  C   UNL     1      -7.552   2.896 131.183  0.00  0.00    +0.000 C 
BRANCH  35  38
ATOM     38  C   UNL     1      -8.295   2.906 128.818  0.00  0.00    +0.000 C 
ATOM     39  O   UNL     1      -9.038   2.212 128.134  0.00  0.00    +0.000 OA
BRANCH  38  40
ATOM     40  O   UNL     1      -8.388   4.253 128.744  0.00  0.00    +0.000 OA
ATOM     41  H   UNL     1      -8.757   4.612 127.926  0.00  0.00    +0.000 HD
ENDBRANCH  38  40
ENDBRANCH  35  38
ENDBRANCH  34  35
ENDBRANCH  25  34
ENDBRANCH   2  24
TORSDOF 10
ENDMDL
MODEL 6
REMARK VINA RESULT:      -8.1      3.299      3.984
REMARK  Name = Ceftazidime
REMARK  12 active torsions:
REMARK  status: ('A' for Active; 'I' for Inactive)
REMARK    1  A    between atoms: C_2  and  CA_4
REMARK    2  A    between atoms: C_5  and  C_32
REMARK    3  A    between atoms: CA_10  and  N_11
REMARK    4  A    between atoms: C_12  and  C_14
REMARK    5  A    between atoms: C_14  and  C_23
REMARK    6  A    between atoms: N_15  and  O_16
REMARK    7  A    between atoms: O_16  and  C_17
REMARK    8  A    between atoms: C_17  and  C_18
REMARK    9  A    between atoms: C_17  and  C_19
REMARK   10  A    between atoms: C_17  and  C_20
REMARK   11  A    between atoms: C_20  and  O_21
REMARK   12  A    between atoms: C_32  and  N_33
REMARK                            x       y       z     vdW  Elec       q    Type
REMARK                         _______ _______ _______ _____ _____    ______ ____
ROOT
ATOM      1  N   UNL     1      -4.724   4.682 128.072  0.00  0.00    +0.000 N 
ATOM      2  C   UNL     1      -4.422   5.879 128.677  0.00  0.00    +0.000 C 
ATOM      3  O   UNL     1      -4.019   6.866 128.088  0.00  0.00    +0.000 OA
ATOM      4  H   UNL     1      -4.923   3.993 128.772  0.00  0.00    +0.000 HD
ENDROOT
BRANCH   1  10
ATOM      5  CA  UNL     1      -6.662   2.464 124.584  0.00  0.00    +0.000 C 
ATOM      6  C   UNL     1      -6.894   1.189 124.992  0.00  0.00    +0.000 C 
ATOM      7  C   UNL     1      -6.174   0.593 126.175  0.00  0.00    +0.000 C 
ATOM      8  S   UNL     1      -5.621   1.726 127.438  0.00  0.00    +0.000 S 
ATOM      9  C   UNL     1      -4.818   2.807 126.255  0.00  0.00    +0.000 C 
ATOM     10  CA  UNL     1      -4.653   4.293 126.643  0.00  0.00    +0.000 C 
ATOM     11  C   UNL     1      -5.827   4.547 125.659  0.00  0.00    +0.000 C 
ATOM     12  O   UNL     1      -6.538   5.480 125.398  0.00  0.00    +0.000 OA
ATOM     13  N   UNL     1      -5.748   3.251 125.237  0.00  0.00    +0.000 N 
BRANCH   5  15
ATOM     14  O   UNL     1      -6.654   3.125 122.273  0.00  0.00    +0.000 OA
ATOM     15  C   UNL     1      -7.405   3.006 123.287  0.00  0.00    +0.000 C 
ATOM     16  OXT UNL     1      -8.548   3.486 123.512  0.00  0.00    +0.000 OA
ENDBRANCH   5  15
BRANCH   6  17
ATOM     17  C   UNL     1      -7.909   0.317 124.236  0.00  0.00    +0.000 C 
BRANCH  17  18
ATOM     18  N   UNL     1      -7.420  -1.079 124.020  0.00  0.00    +0.000 N 
ATOM     19  C   UNL     1      -8.040  -2.106 124.654  0.00  0.00    +0.000 A 
ATOM     20  C   UNL     1      -7.371  -3.312 124.822  0.00  0.00    +0.000 A 
ATOM     21  C   UNL     1      -6.218  -3.548 124.088  0.00  0.00    +0.000 A 
ATOM     22  C   UNL     1      -5.762  -2.573 123.210  0.00  0.00    +0.000 A 
ATOM     23  C   UNL     1      -6.340  -1.307 123.242  0.00  0.00    +0.000 A 
ENDBRANCH  17  18
ENDBRANCH   6  17
ENDBRANCH   1  10
BRANCH   2  24
ATOM     24  C   UNL     1      -4.592   5.872 130.232  0.00  0.00    +0.000 C 
ATOM     25  N   UNL     1      -5.736   6.037 130.873  0.00  0.00    +0.000 NA
BRANCH  24  26
ATOM     26  C   UNL     1      -3.397   5.638 131.063  0.00  0.00    +0.000 A 
ATOM     27  C   UNL     1      -3.222   4.541 131.888  0.00  0.00    +0.000 A 
ATOM     28  S   UNL     1      -1.697   4.609 132.666  0.00  0.00    +0.000 S 
ATOM     29  C   UNL     1      -1.367   6.096 131.878  0.00  0.00    +0.000 A 
ATOM     30  N   UNL     1      -0.219   6.752 132.099  0.00  0.00    +0.000 N 
ATOM     31  N   UNL     1      -2.316   6.528 131.083  0.00  0.00    +0.000 NA
ATOM     32  H   UNL     1       0.513   6.369 132.682  0.00  0.00    +0.000 HD
ATOM     33  H   UNL     1      -0.009   7.590 131.574  0.00  0.00    +0.000 HD
ENDBRANCH  24  26
BRANCH  25  34
ATOM     34  O   UNL     1      -6.868   6.283 130.057  0.00  0.00    +0.000 OA
BRANCH  34  35
ATOM     35  C   UNL     1      -8.127   6.062 130.717  0.00  0.00    +0.000 C 
ATOM     36  C   UNL     1      -7.948   6.033 132.235  0.00  0.00    +0.000 C 
ATOM     37  C   UNL     1      -9.154   7.125 130.319  0.00  0.00    +0.000 C 
BRANCH  35  38
ATOM     38  C   UNL     1      -8.711   4.685 130.293  0.00  0.00    +0.000 C 
ATOM     39  O   UNL     1      -9.767   4.558 129.683  0.00  0.00    +0.000 OA
BRANCH  38  40
ATOM     40  O   UNL     1      -7.990   3.587 130.613  0.00  0.00    +0.000 OA
ATOM     41  H   UNL     1      -8.075   3.270 131.522  0.00  0.00    +0.000 HD
ENDBRANCH  38  40
ENDBRANCH  35  38
ENDBRANCH  34  35
ENDBRANCH  25  34
ENDBRANCH   2  24
TORSDOF 10
ENDMDL
MODEL 7
REMARK VINA RESULT:      -8.0      2.230      4.096
REMARK  Name = Ceftazidime
REMARK  12 active torsions:
REMARK  status: ('A' for Active; 'I' for Inactive)
REMARK    1  A    between atoms: C_2  and  CA_4
REMARK    2  A    between atoms: C_5  and  C_32
REMARK    3  A    between atoms: CA_10  and  N_11
REMARK    4  A    between atoms: C_12  and  C_14
REMARK    5  A    between atoms: C_14  and  C_23
REMARK    6  A    between atoms: N_15  and  O_16
REMARK    7  A    between atoms: O_16  and  C_17
REMARK    8  A    between atoms: C_17  and  C_18
REMARK    9  A    between atoms: C_17  and  C_19
REMARK   10  A    between atoms: C_17  and  C_20
REMARK   11  A    between atoms: C_20  and  O_21
REMARK   12  A    between atoms: C_32  and  N_33
REMARK                            x       y       z     vdW  Elec       q    Type
REMARK                         _______ _______ _______ _____ _____    ______ ____
ROOT
ATOM      1  N   UNL     1      -8.347   3.792 128.535  0.00  0.00    +0.000 N 
ATOM      2  C   UNL     1      -9.017   4.959 128.823  0.00  0.00    +0.000 C 
ATOM      3  O   UNL     1      -8.994   5.957 128.124  0.00  0.00    +0.000 OA
ATOM      4  H   UNL     1      -8.426   3.161 129.309  0.00  0.00    +0.000 HD
ENDROOT
BRANCH   1  10
ATOM      5  CA  UNL     1      -7.860   1.441 124.652  0.00  0.00    +0.000 C 
ATOM      6  C   UNL     1      -8.121   0.137 124.932  0.00  0.00    +0.000 C 
ATOM      7  C   UNL     1      -8.075  -0.395 126.342  0.00  0.00    +0.000 C 
ATOM      8  S   UNL     1      -8.416   0.766 127.654  0.00  0.00    +0.000 S 
ATOM      9  C   UNL     1      -7.240   1.967 127.030  0.00  0.00    +0.000 C 
ATOM     10  CA  UNL     1      -7.483   3.452 127.379  0.00  0.00    +0.000 C 
ATOM     11  C   UNL     1      -7.975   3.584 125.913  0.00  0.00    +0.000 C 
ATOM     12  O   UNL     1      -8.544   4.428 125.274  0.00  0.00    +0.000 OA
ATOM     13  N   UNL     1      -7.532   2.318 125.655  0.00  0.00    +0.000 N 
BRANCH   5  15
ATOM     14  O   UNL     1      -6.701   2.059 122.640  0.00  0.00    +0.000 OA
ATOM     15  C   UNL     1      -7.858   1.920 123.136  0.00  0.00    +0.000 C 
ATOM     16  OXT UNL     1      -8.974   2.343 122.729  0.00  0.00    +0.000 OA
ENDBRANCH   5  15
BRANCH   6  17
ATOM     17  C   UNL     1      -8.468  -0.834 123.792  0.00  0.00    +0.000 C 
BRANCH  17  18
ATOM     18  N   UNL     1      -7.476  -1.945 123.660  0.00  0.00    +0.000 N 
ATOM     19  C   UNL     1      -7.784  -3.173 124.147  0.00  0.00    +0.000 A 
ATOM     20  C   UNL     1      -6.765  -4.074 124.429  0.00  0.00    +0.000 A 
ATOM     21  C   UNL     1      -5.494  -3.826 123.934  0.00  0.00    +0.000 A 
ATOM     22  C   UNL     1      -5.273  -2.683 123.175  0.00  0.00    +0.000 A 
ATOM     23  C   UNL     1      -6.266  -1.711 123.108  0.00  0.00    +0.000 A 
ENDBRANCH  17  18
ENDBRANCH   6  17
ENDBRANCH   1  10
BRANCH   2  24
ATOM     24  C   UNL     1      -9.798   4.932 130.177  0.00  0.00    +0.000 C 
ATOM     25  N   UNL     1      -9.452   4.228 131.242  0.00  0.00    +0.000 NA
BRANCH  24  26
ATOM     26  C   UNL     1     -11.003   5.772 130.304  0.00  0.00    +0.000 A 
ATOM     27  C   UNL     1     -11.405   6.388 131.476  0.00  0.00    +0.000 A 
ATOM     28  S   UNL     1     -12.833   7.300 131.218  0.00  0.00    +0.000 S 
ATOM     29  C   UNL     1     -12.844   6.809 129.574  0.00  0.00    +0.000 A 
ATOM     30  N   UNL     1     -13.818   7.206 128.744  0.00  0.00    +0.000 N 
ATOM     31  N   UNL     1     -11.856   6.021 129.222  0.00  0.00    +0.000 NA
ATOM     32  H   UNL     1     -14.539   7.852 129.034  0.00  0.00    +0.000 HD
ATOM     33  H   UNL     1     -13.771   6.967 127.763  0.00  0.00    +0.000 HD
ENDBRANCH  24  26
BRANCH  25  34
ATOM     34  O   UNL     1      -8.305   3.411 131.092  0.00  0.00    +0.000 OA
BRANCH  34  35
ATOM     35  C   UNL     1      -8.193   2.369 132.077  0.00  0.00    +0.000 C 
ATOM     36  C   UNL     1      -6.820   1.699 132.009  0.00  0.00    +0.000 C 
ATOM     37  C   UNL     1      -8.455   2.910 133.486  0.00  0.00    +0.000 C 
BRANCH  35  38
ATOM     38  C   UNL     1      -9.259   1.270 131.809  0.00  0.00    +0.000 C 
ATOM     39  O   UNL     1      -8.992   0.168 131.344  0.00  0.00    +0.000 OA
BRANCH  38  40
ATOM     40  O   UNL     1     -10.540   1.566 132.127  0.00  0.00    +0.000 OA
ATOM     41  H   UNL     1     -11.100   0.820 132.381  0.00  0.00    +0.000 HD
ENDBRANCH  38  40
ENDBRANCH  35  38
ENDBRANCH  34  35
ENDBRANCH  25  34
ENDBRANCH   2  24
TORSDOF 10
ENDMDL
MODEL 8
REMARK VINA RESULT:      -8.0      2.909      4.640
REMARK  Name = Ceftazidime
REMARK  12 active torsions:
REMARK  status: ('A' for Active; 'I' for Inactive)
REMARK    1  A    between atoms: C_2  and  CA_4
REMARK    2  A    between atoms: C_5  and  C_32
REMARK    3  A    between atoms: CA_10  and  N_11
REMARK    4  A    between atoms: C_12  and  C_14
REMARK    5  A    between atoms: C_14  and  C_23
REMARK    6  A    between atoms: N_15  and  O_16
REMARK    7  A    between atoms: O_16  and  C_17
REMARK    8  A    between atoms: C_17  and  C_18
REMARK    9  A    between atoms: C_17  and  C_19
REMARK   10  A    between atoms: C_17  and  C_20
REMARK   11  A    between atoms: C_20  and  O_21
REMARK   12  A    between atoms: C_32  and  N_33
REMARK                            x       y       z     vdW  Elec       q    Type
REMARK                         _______ _______ _______ _____ _____    ______ ____
ROOT
ATOM      1  N   UNL     1      -7.645   4.375 128.055  0.00  0.00    +0.000 N 
ATOM      2  C   UNL     1      -8.571   3.863 128.934  0.00  0.00    +0.000 C 
ATOM      3  O   UNL     1      -9.141   2.796 128.791  0.00  0.00    +0.000 OA
ATOM      4  H   UNL     1      -7.406   5.309 128.327  0.00  0.00    +0.000 HD
ENDROOT
BRANCH   1  10
ATOM      5  CA  UNL     1      -6.787   0.642 125.571  0.00  0.00    +0.000 C 
ATOM      6  C   UNL     1      -6.036  -0.192 126.337  0.00  0.00    +0.000 C 
ATOM      7  C   UNL     1      -5.276   0.308 127.540  0.00  0.00    +0.000 C 
ATOM      8  S   UNL     1      -5.932   1.747 128.368  0.00  0.00    +0.000 S 
ATOM      9  C   UNL     1      -6.064   2.683 126.845  0.00  0.00    +0.000 C 
ATOM     10  CA  UNL     1      -7.122   3.809 126.789  0.00  0.00    +0.000 C 
ATOM     11  C   UNL     1      -7.945   2.816 125.925  0.00  0.00    +0.000 C 
ATOM     12  O   UNL     1      -9.073   2.775 125.509  0.00  0.00    +0.000 OA
ATOM     13  N   UNL     1      -6.868   1.979 125.867  0.00  0.00    +0.000 N 
BRANCH   5  15
ATOM     14  O   UNL     1      -6.888   0.293 123.196  0.00  0.00    +0.000 OA
ATOM     15  C   UNL     1      -7.506   0.062 124.277  0.00  0.00    +0.000 C 
ATOM     16  OXT UNL     1      -8.696  -0.304 124.470  0.00  0.00    +0.000 OA
ENDBRANCH   5  15
BRANCH   6  17
ATOM     17  C   UNL     1      -5.942  -1.683 125.979  0.00  0.00    +0.000 C 
BRANCH  17  18
ATOM     18  N   UNL     1      -6.852  -2.533 126.806  0.00  0.00    +0.000 N 
ATOM     19  C   UNL     1      -7.919  -3.131 126.219  0.00  0.00    +0.000 A 
ATOM     20  C   UNL     1      -8.989  -3.545 127.002  0.00  0.00    +0.000 A 
ATOM     21  C   UNL     1      -8.826  -3.619 128.377  0.00  0.00    +0.000 A 
ATOM     22  C   UNL     1      -7.602  -3.272 128.934  0.00  0.00    +0.000 A 
ATOM     23  C   UNL     1      -6.642  -2.659 128.134  0.00  0.00    +0.000 A 
ENDBRANCH  17  18
ENDBRANCH   6  17
ENDBRANCH   1  10
BRANCH   2  24
ATOM     24  C   UNL     1      -8.887   4.798 130.148  0.00  0.00    +0.000 C 
ATOM     25  N   UNL     1      -8.361   4.682 131.355  0.00  0.00    +0.000 NA
BRANCH  24  26
ATOM     26  C   UNL     1      -9.823   5.918 129.940  0.00  0.00    +0.000 A 
ATOM     27  C   UNL     1     -10.951   6.146 130.710  0.00  0.00    +0.000 A 
ATOM     28  S   UNL     1     -11.765   7.558 130.181  0.00  0.00    +0.000 S 
ATOM     29  C   UNL     1     -10.586   7.773 128.954  0.00  0.00    +0.000 A 
ATOM     30  N   UNL     1     -10.669   8.795 128.091  0.00  0.00    +0.000 N 
ATOM     31  N   UNL     1      -9.640   6.865 128.926  0.00  0.00    +0.000 NA
ATOM     32  H   UNL     1     -11.384   9.505 128.169  0.00  0.00    +0.000 HD
ATOM     33  H   UNL     1      -9.929   8.948 127.419  0.00  0.00    +0.000 HD
ENDBRANCH  24  26
BRANCH  25  34
ATOM     34  O   UNL     1      -7.482   3.586 131.540  0.00  0.00    +0.000 OA
BRANCH  34  35
ATOM     35  C   UNL     1      -7.774   2.789 132.701  0.00  0.00    +0.000 C 
ATOM     36  C   UNL     1      -7.074   1.432 132.620  0.00  0.00    +0.000 C 
ATOM     37  C   UNL     1      -7.378   3.519 133.987  0.00  0.00    +0.000 C 
BRANCH  35  38
ATOM     38  C   UNL     1      -9.302   2.517 132.786  0.00  0.00    +0.000 C 
ATOM     39  O   UNL     1      -9.862   1.608 132.185  0.00  0.00    +0.000 OA
BRANCH  38  40
ATOM     40  O   UNL     1     -10.027   3.334 133.585  0.00  0.00    +0.000 OA
ATOM     41  H   UNL     1     -10.485   2.912 134.324  0.00  0.00    +0.000 HD
ENDBRANCH  38  40
ENDBRANCH  35  38
ENDBRANCH  34  35
ENDBRANCH  25  34
ENDBRANCH   2  24
TORSDOF 10
ENDMDL
MODEL 9
REMARK VINA RESULT:      -7.9      2.598      3.326
REMARK  Name = Ceftazidime
REMARK  12 active torsions:
REMARK  status: ('A' for Active; 'I' for Inactive)
REMARK    1  A    between atoms: C_2  and  CA_4
REMARK    2  A    between atoms: C_5  and  C_32
REMARK    3  A    between atoms: CA_10  and  N_11
REMARK    4  A    between atoms: C_12  and  C_14
REMARK    5  A    between atoms: C_14  and  C_23
REMARK    6  A    between atoms: N_15  and  O_16
REMARK    7  A    between atoms: O_16  and  C_17
REMARK    8  A    between atoms: C_17  and  C_18
REMARK    9  A    between atoms: C_17  and  C_19
REMARK   10  A    between atoms: C_17  and  C_20
REMARK   11  A    between atoms: C_20  and  O_21
REMARK   12  A    between atoms: C_32  and  N_33
REMARK                            x       y       z     vdW  Elec       q    Type
REMARK                         _______ _______ _______ _____ _____    ______ ____
ROOT
ATOM      1  N   UNL     1      -5.712   4.326 129.299  0.00  0.00    +0.000 N 
ATOM      2  C   UNL     1      -5.283   5.559 129.731  0.00  0.00    +0.000 C 
ATOM      3  O   UNL     1      -4.571   6.306 129.082  0.00  0.00    +0.000 OA
ATOM      4  H   UNL     1      -6.186   3.856 130.047  0.00  0.00    +0.000 HD
ENDROOT
BRANCH   1  10
ATOM      5  CA  UNL     1      -7.449   2.209 125.646  0.00  0.00    +0.000 C 
ATOM      6  C   UNL     1      -8.276   1.231 126.099  0.00  0.00    +0.000 C 
ATOM      7  C   UNL     1      -8.184   0.706 127.509  0.00  0.00    +0.000 C 
ATOM      8  S   UNL     1      -7.551   1.825 128.747  0.00  0.00    +0.000 S 
ATOM      9  C   UNL     1      -6.108   2.245 127.771  0.00  0.00    +0.000 C 
ATOM     10  CA  UNL     1      -5.452   3.621 128.022  0.00  0.00    +0.000 C 
ATOM     11  C   UNL     1      -6.132   4.044 126.691  0.00  0.00    +0.000 C 
ATOM     12  O   UNL     1      -6.309   5.083 126.114  0.00  0.00    +0.000 OA
ATOM     13  N   UNL     1      -6.487   2.745 126.465  0.00  0.00    +0.000 N 
BRANCH   5  15
ATOM     14  O   UNL     1      -8.510   3.465 123.894  0.00  0.00    +0.000 OA
ATOM     15  C   UNL     1      -7.554   2.667 124.128  0.00  0.00    +0.000 C 
ATOM     16  OXT UNL     1      -6.856   1.981 123.334  0.00  0.00    +0.000 OA
ENDBRANCH   5  15
BRANCH   6  17
ATOM     17  C   UNL     1      -9.334   0.630 125.160  0.00  0.00    +0.000 C 
BRANCH  17  18
ATOM     18  N   UNL     1      -9.029  -0.782 124.778  0.00  0.00    +0.000 N 
ATOM     19  C   UNL     1      -8.610  -1.054 123.517  0.00  0.00    +0.000 A 
ATOM     20  C   UNL     1      -8.737  -2.343 123.014  0.00  0.00    +0.000 A 
ATOM     21  C   UNL     1      -9.002  -3.383 123.892  0.00  0.00    +0.000 A 
ATOM     22  C   UNL     1      -9.139  -3.107 125.247  0.00  0.00    +0.000 A 
ATOM     23  C   UNL     1      -9.220  -1.782 125.666  0.00  0.00    +0.000 A 
ENDBRANCH  17  18
ENDBRANCH   6  17
ENDBRANCH   1  10
BRANCH   2  24
ATOM     24  C   UNL     1      -5.748   5.930 131.177  0.00  0.00    +0.000 C 
ATOM     25  N   UNL     1      -6.866   6.567 131.477  0.00  0.00    +0.000 NA
BRANCH  24  26
ATOM     26  C   UNL     1      -4.897   5.522 132.309  0.00  0.00    +0.000 A 
ATOM     27  C   UNL     1      -4.813   6.205 133.510  0.00  0.00    +0.000 A 
ATOM     28  S   UNL     1      -3.745   5.406 134.585  0.00  0.00    +0.000 S 
ATOM     29  C   UNL     1      -3.442   4.212 133.391  0.00  0.00    +0.000 A 
ATOM     30  N   UNL     1      -2.588   3.207 133.623  0.00  0.00    +0.000 N 
ATOM     31  N   UNL     1      -4.087   4.380 132.261  0.00  0.00    +0.000 NA
ATOM     32  H   UNL     1      -2.142   3.079 134.521  0.00  0.00    +0.000 HD
ATOM     33  H   UNL     1      -2.474   2.474 132.936  0.00  0.00    +0.000 HD
ENDBRANCH  24  26
BRANCH  25  34
ATOM     34  O   UNL     1      -7.658   6.971 130.374  0.00  0.00    +0.000 OA
BRANCH  34  35
ATOM     35  C   UNL     1      -9.027   6.531 130.442  0.00  0.00    +0.000 C 
ATOM     36  C   UNL     1      -9.394   6.113 131.866  0.00  0.00    +0.000 C 
ATOM     37  C   UNL     1      -9.982   7.617 129.940  0.00  0.00    +0.000 C 
BRANCH  35  38
ATOM     38  C   UNL     1      -9.229   5.290 129.528  0.00  0.00    +0.000 C 
ATOM     39  O   UNL     1      -8.680   5.154 128.441  0.00  0.00    +0.000 OA
BRANCH  38  40
ATOM     40  O   UNL     1     -10.051   4.318 129.985  0.00  0.00    +0.000 OA
ATOM     41  H   UNL     1     -10.457   4.473 130.849  0.00  0.00    +0.000 HD
ENDBRANCH  38  40
ENDBRANCH  35  38
ENDBRANCH  34  35
ENDBRANCH  25  34
ENDBRANCH   2  24
TORSDOF 10
ENDMDL
