MODEL 1
REMARK VINA RESULT:      -8.6      0.000      0.000
REMARK  Name = Ceftaroline fosamil
REMARK  14 active torsions:
REMARK  status: ('A' for Active; 'I' for Inactive)
REMARK    1  A    between atoms: C_5  and  S_6
REMARK    2  A    between atoms: S_6  and  C_7
REMARK    3  A    between atoms: C_9  and  C_12
REMARK    4  A    between atoms: N_15  and  C_16
REMARK    5  A    between atoms: CA_19  and  C_42
REMARK    6  A    between atoms: CA_23  and  N_24
REMARK    7  A    between atoms: C_25  and  C_27
REMARK    8  A    between atoms: C_27  and  C_32
REMARK    9  A    between atoms: N_28  and  O_29
REMARK   10  A    between atoms: O_29  and  C_30
REMARK   11  A    between atoms: C_30  and  C_31
REMARK   12  A    between atoms: N_36  and  P_37
REMARK   13  A    between atoms: P_37  and  O_38
REMARK   14  A    between atoms: P_37  and  O_39
REMARK                            x       y       z     vdW  Elec       q    Type
REMARK                         _______ _______ _______ _____ _____    ______ ____
ROOT
ATOM      1  C   UNL     1      -5.028  -0.039 129.356  0.00  0.00    +0.000 C 
ATOM      2  S   UNL     1      -4.797   1.593 128.595  0.00  0.00    +0.000 S 
ATOM      3  C   UNL     1      -4.354   2.354 130.196  0.00  0.00    +0.000 C 
ATOM      4  C   UNL     1      -5.353   2.143 131.315  0.00  0.00    +0.000 C 
ATOM      5  CA  UNL     1      -6.199   1.061 131.334  0.00  0.00    +0.000 C 
ATOM      6  N   UNL     1      -6.093   0.080 130.337  0.00  0.00    +0.000 N 
ATOM      7  C   UNL     1      -7.031  -0.590 129.593  0.00  0.00    +0.000 C 
ATOM      8  O   UNL     1      -8.233  -0.668 129.577  0.00  0.00    +0.000 OA
ATOM      9  CA  UNL     1      -5.920  -1.075 128.607  0.00  0.00    +0.000 C 
ENDROOT
BRANCH   9  10
ATOM     10  N   UNL     1      -6.124  -0.914 127.129  0.00  0.00    +0.000 N 
ATOM     11  C   UNL     1      -7.027  -1.690 126.406  0.00  0.00    +0.000 C 
ATOM     12  O   UNL     1      -7.597  -2.653 126.907  0.00  0.00    +0.000 OA
ATOM     13  H   UNL     1      -5.693  -0.128 126.646  0.00  0.00    +0.000 HD
BRANCH  11  14
ATOM     14  C   UNL     1      -7.290  -1.364 124.909  0.00  0.00    +0.000 C 
ATOM     15  N   UNL     1      -6.797  -2.053 123.898  0.00  0.00    +0.000 NA
BRANCH  14  16
ATOM     16  C   UNL     1      -8.177  -0.190 124.598  0.00  0.00    +0.000 A 
ATOM     17  N   UNL     1      -9.324  -0.353 123.917  0.00  0.00    +0.000 NA
ATOM     18  S   UNL     1     -10.040   1.146 123.754  0.00  0.00    +0.000 S 
ATOM     19  C   UNL     1      -8.775   2.003 124.574  0.00  0.00    +0.000 A 
ATOM     20  N   UNL     1      -8.822   3.354 124.773  0.00  0.00    +0.000 N 
ATOM     21  N   UNL     1      -7.856   1.150 124.988  0.00  0.00    +0.000 NA
ATOM     22  H   UNL     1      -9.625   3.887 124.490  0.00  0.00    +0.000 HD
BRANCH  20  23
ATOM     23  P   UNL     1      -7.454   4.082 125.649  0.00  0.00    +0.000 P 
ATOM     24  O   UNL     1      -6.264   4.714 126.412  0.00  0.00    +0.000 OA
BRANCH  23  25
ATOM     25  O   UNL     1      -8.270   5.504 125.525  0.00  0.00    +0.000 OA
ATOM     26  H   UNL     1      -7.778   6.291 125.270  0.00  0.00    +0.000 HD
ENDBRANCH  23  25
BRANCH  23  27
ATOM     27  O   UNL     1      -8.238   3.585 127.009  0.00  0.00    +0.000 OA
ATOM     28  H   UNL     1      -8.993   3.006 126.811  0.00  0.00    +0.000 HD
ENDBRANCH  23  27
ENDBRANCH  20  23
ENDBRANCH  14  16
BRANCH  15  29
ATOM     29  O   UNL     1      -5.944  -3.085 124.321  0.00  0.00    +0.000 OA
BRANCH  29  30
ATOM     30  C   UNL     1      -4.751  -3.172 123.544  0.00  0.00    +0.000 C 
ATOM     31  C   UNL     1      -4.324  -4.636 123.541  0.00  0.00    +0.000 C 
ENDBRANCH  29  30
ENDBRANCH  15  29
ENDBRANCH  11  14
ENDBRANCH   9  10
BRANCH   5  32
ATOM     32  C   UNL     1      -7.318   0.802 132.493  0.00  0.00    +0.000 C 
ATOM     33  O   UNL     1      -6.916   0.092 133.460  0.00  0.00    +0.000 OA
ATOM     34  OXT UNL     1      -8.434   1.377 132.368  0.00  0.00    +0.000 OA
ENDBRANCH   5  32
BRANCH   4  35
ATOM     35  S   UNL     1      -5.381   3.367 132.608  0.00  0.00    +0.000 S 
BRANCH  35  36
ATOM     36  C   UNL     1      -6.121   4.817 131.982  0.00  0.00    +0.000 A 
ATOM     37  N   UNL     1      -7.427   4.996 131.895  0.00  0.00    +0.000 NA
ATOM     38  C   UNL     1      -7.706   6.265 131.414  0.00  0.00    +0.000 A 
ATOM     39  C   UNL     1      -6.606   7.065 131.189  0.00  0.00    +0.000 A 
ATOM     40  S   UNL     1      -5.177   6.208 131.604  0.00  0.00    +0.000 S 
BRANCH  38  41
ATOM     41  C   UNL     1      -9.078   6.667 131.145  0.00  0.00    +0.000 A 
ATOM     42  C   UNL     1     -10.112   6.225 131.967  0.00  0.00    +0.000 A 
ATOM     43  C   UNL     1     -11.435   6.450 131.596  0.00  0.00    +0.000 A 
ATOM     44  N   UNL     1     -11.728   7.085 130.437  0.00  0.00    +0.000 N 
ATOM     45  C   UNL     1     -13.121   7.112 129.945  0.00  0.00    +0.000 C 
ATOM     46  C   UNL     1     -10.740   7.616 129.679  0.00  0.00    +0.000 A 
ATOM     47  C   UNL     1      -9.402   7.417 130.015  0.00  0.00    +0.000 A 
ENDBRANCH  38  41
ENDBRANCH  35  36
ENDBRANCH   4  35
TORSDOF 12
ENDMDL
MODEL 2
REMARK VINA RESULT:      -8.4      1.662      2.011
REMARK  Name = Ceftaroline fosamil
REMARK  14 active torsions:
REMARK  status: ('A' for Active; 'I' for Inactive)
REMARK    1  A    between atoms: C_5  and  S_6
REMARK    2  A    between atoms: S_6  and  C_7
REMARK    3  A    between atoms: C_9  and  C_12
REMARK    4  A    between atoms: N_15  and  C_16
REMARK    5  A    between atoms: CA_19  and  C_42
REMARK    6  A    between atoms: CA_23  and  N_24
REMARK    7  A    between atoms: C_25  and  C_27
REMARK    8  A    between atoms: C_27  and  C_32
REMARK    9  A    between atoms: N_28  and  O_29
REMARK   10  A    between atoms: O_29  and  C_30
REMARK   11  A    between atoms: C_30  and  C_31
REMARK   12  A    between atoms: N_36  and  P_37
REMARK   13  A    between atoms: P_37  and  O_38
REMARK   14  A    between atoms: P_37  and  O_39
REMARK                            x       y       z     vdW  Elec       q    Type
REMARK                         _______ _______ _______ _____ _____    ______ ____
ROOT
ATOM      1  C   UNL     1      -5.463   0.529 129.148  0.00  0.00    +0.000 C 
ATOM      2  S   UNL     1      -5.968   2.203 128.657  0.00  0.00    +0.000 S 
ATOM      3  C   UNL     1      -4.964   2.968 129.977  0.00  0.00    +0.000 C 
ATOM      4  C   UNL     1      -5.223   2.448 131.376  0.00  0.00    +0.000 C 
ATOM      5  CA  UNL     1      -5.714   1.185 131.598  0.00  0.00    +0.000 C 
ATOM      6  N   UNL     1      -5.913   0.318 130.514  0.00  0.00    +0.000 N 
ATOM      7  C   UNL     1      -6.938  -0.532 130.183  0.00  0.00    +0.000 C 
ATOM      8  O   UNL     1      -7.951  -0.918 130.709  0.00  0.00    +0.000 OA
ATOM      9  CA  UNL     1      -6.378  -0.662 128.730  0.00  0.00    +0.000 C 
ENDROOT
BRANCH   9  10
ATOM     10  N   UNL     1      -7.305  -0.483 127.563  0.00  0.00    +0.000 N 
ATOM     11  C   UNL     1      -6.890  -0.639 126.243  0.00  0.00    +0.000 C 
ATOM     12  O   UNL     1      -5.707  -0.782 125.950  0.00  0.00    +0.000 OA
ATOM     13  H   UNL     1      -8.303  -0.373 127.729  0.00  0.00    +0.000 HD
BRANCH  11  14
ATOM     14  C   UNL     1      -7.940  -0.583 125.098  0.00  0.00    +0.000 C 
ATOM     15  N   UNL     1      -8.691  -1.601 124.725  0.00  0.00    +0.000 NA
BRANCH  14  16
ATOM     16  C   UNL     1      -8.116   0.725 124.378  0.00  0.00    +0.000 A 
ATOM     17  N   UNL     1      -8.862   0.805 123.264  0.00  0.00    +0.000 NA
ATOM     18  S   UNL     1      -8.834   2.390 122.740  0.00  0.00    +0.000 S 
ATOM     19  C   UNL     1      -7.786   2.943 124.007  0.00  0.00    +0.000 A 
ATOM     20  N   UNL     1      -7.400   4.250 124.111  0.00  0.00    +0.000 N 
ATOM     21  N   UNL     1      -7.503   1.942 124.820  0.00  0.00    +0.000 NA
ATOM     22  H   UNL     1      -7.758   4.944 123.479  0.00  0.00    +0.000 HD
BRANCH  20  23
ATOM     23  P   UNL     1      -6.337   4.663 125.479  0.00  0.00    +0.000 P 
ATOM     24  O   UNL     1      -5.413   5.021 126.668  0.00  0.00    +0.000 OA
BRANCH  23  25
ATOM     25  O   UNL     1      -6.350   6.197 124.887  0.00  0.00    +0.000 OA
ATOM     26  H   UNL     1      -5.802   6.394 124.120  0.00  0.00    +0.000 HD
ENDBRANCH  23  25
BRANCH  23  27
ATOM     27  O   UNL     1      -7.733   4.828 126.337  0.00  0.00    +0.000 OA
ATOM     28  H   UNL     1      -8.075   3.976 126.656  0.00  0.00    +0.000 HD
ENDBRANCH  23  27
ENDBRANCH  20  23
ENDBRANCH  14  16
BRANCH  15  29
ATOM     29  O   UNL     1      -8.391  -2.775 125.435  0.00  0.00    +0.000 OA
BRANCH  29  30
ATOM     30  C   UNL     1      -9.467  -3.214 126.262  0.00  0.00    +0.000 C 
ATOM     31  C   UNL     1      -8.856  -3.710 127.568  0.00  0.00    +0.000 C 
ENDBRANCH  29  30
ENDBRANCH  15  29
ENDBRANCH  11  14
ENDBRANCH   9  10
BRANCH   5  32
ATOM     32  C   UNL     1      -6.047   0.586 133.079  0.00  0.00    +0.000 C 
ATOM     33  O   UNL     1      -7.171   0.933 133.544  0.00  0.00    +0.000 OA
ATOM     34  OXT UNL     1      -5.213  -0.210 133.589  0.00  0.00    +0.000 OA
ENDBRANCH   5  32
BRANCH   4  35
ATOM     35  S   UNL     1      -4.863   3.555 132.724  0.00  0.00    +0.000 S 
BRANCH  35  36
ATOM     36  C   UNL     1      -6.297   4.483 133.076  0.00  0.00    +0.000 A 
ATOM     37  N   UNL     1      -7.126   4.935 132.152  0.00  0.00    +0.000 NA
ATOM     38  C   UNL     1      -8.197   5.584 132.744  0.00  0.00    +0.000 A 
ATOM     39  C   UNL     1      -8.205   5.571 134.123  0.00  0.00    +0.000 A 
ATOM     40  S   UNL     1      -6.835   4.711 134.698  0.00  0.00    +0.000 S 
BRANCH  38  41
ATOM     41  C   UNL     1      -9.200   6.249 131.926  0.00  0.00    +0.000 A 
ATOM     42  C   UNL     1     -10.551   6.143 132.249  0.00  0.00    +0.000 A 
ATOM     43  C   UNL     1     -11.513   6.614 131.361  0.00  0.00    +0.000 A 
ATOM     44  N   UNL     1     -11.151   7.164 130.179  0.00  0.00    +0.000 N 
ATOM     45  C   UNL     1     -12.177   7.445 129.153  0.00  0.00    +0.000 C 
ATOM     46  C   UNL     1      -9.845   7.374 129.894  0.00  0.00    +0.000 A 
ATOM     47  C   UNL     1      -8.848   6.921 130.756  0.00  0.00    +0.000 A 
ENDBRANCH  38  41
ENDBRANCH  35  36
ENDBRANCH   4  35
TORSDOF 12
ENDMDL
MODEL 3
REMARK VINA RESULT:      -8.2      3.076      8.273
REMARK  Name = Ceftaroline fosamil
REMARK  14 active torsions:
REMARK  status: ('A' for Active; 'I' for Inactive)
REMARK    1  A    between atoms: C_5  and  S_6
REMARK    2  A    between atoms: S_6  and  C_7
REMARK    3  A    between atoms: C_9  and  C_12
REMARK    4  A    between atoms: N_15  and  C_16
REMARK    5  A    between atoms: CA_19  and  C_42
REMARK    6  A    between atoms: CA_23  and  N_24
REMARK    7  A    between atoms: C_25  and  C_27
REMARK    8  A    between atoms: C_27  and  C_32
REMARK    9  A    between atoms: N_28  and  O_29
REMARK   10  A    between atoms: O_29  and  C_30
REMARK   11  A    between atoms: C_30  and  C_31
REMARK   12  A    between atoms: N_36  and  P_37
REMARK   13  A    between atoms: P_37  and  O_38
REMARK   14  A    between atoms: P_37  and  O_39
REMARK                            x       y       z     vdW  Elec       q    Type
REMARK                         _______ _______ _______ _____ _____    ______ ____
ROOT
ATOM      1  C   UNL     1      -6.963   1.688 131.986  0.00  0.00    +0.000 C 
ATOM      2  S   UNL     1      -8.447   1.510 130.955  0.00  0.00    +0.000 S 
ATOM      3  C   UNL     1      -8.510  -0.294 131.234  0.00  0.00    +0.000 C 
ATOM      4  C   UNL     1      -7.235  -1.047 130.914  0.00  0.00    +0.000 C 
ATOM      5  CA  UNL     1      -6.006  -0.437 130.955  0.00  0.00    +0.000 C 
ATOM      6  N   UNL     1      -5.907   0.897 131.377  0.00  0.00    +0.000 N 
ATOM      7  C   UNL     1      -5.201   1.971 130.897  0.00  0.00    +0.000 C 
ATOM      8  O   UNL     1      -4.367   2.152 130.046  0.00  0.00    +0.000 OA
ATOM      9  CA  UNL     1      -6.064   2.942 131.765  0.00  0.00    +0.000 C 
ENDROOT
BRANCH   9  10
ATOM     10  N   UNL     1      -6.671   4.159 131.128  0.00  0.00    +0.000 N 
ATOM     11  C   UNL     1      -7.110   5.255 131.867  0.00  0.00    +0.000 C 
ATOM     12  O   UNL     1      -7.166   5.227 133.092  0.00  0.00    +0.000 OA
ATOM     13  H   UNL     1      -6.648   4.258 130.115  0.00  0.00    +0.000 HD
BRANCH  11  14
ATOM     14  C   UNL     1      -7.589   6.535 131.128  0.00  0.00    +0.000 C 
ATOM     15  N   UNL     1      -6.790   7.497 130.708  0.00  0.00    +0.000 NA
BRANCH  14  16
ATOM     16  C   UNL     1      -9.063   6.676 130.864  0.00  0.00    +0.000 A 
ATOM     17  N   UNL     1      -9.960   6.498 131.848  0.00  0.00    +0.000 NA
ATOM     18  S   UNL     1     -11.481   6.728 131.201  0.00  0.00    +0.000 S 
ATOM     19  C   UNL     1     -10.912   7.032 129.592  0.00  0.00    +0.000 A 
ATOM     20  N   UNL     1     -11.763   7.319 128.562  0.00  0.00    +0.000 N 
ATOM     21  N   UNL     1      -9.593   6.992 129.572  0.00  0.00    +0.000 NA
ATOM     22  H   UNL     1     -12.750   7.412 128.722  0.00  0.00    +0.000 HD
BRANCH  20  23
ATOM     23  P   UNL     1     -11.021   7.626 126.973  0.00  0.00    +0.000 P 
ATOM     24  O   UNL     1     -10.375   7.893 125.591  0.00  0.00    +0.000 OA
BRANCH  23  25
ATOM     25  O   UNL     1     -10.081   6.311 127.278  0.00  0.00    +0.000 OA
ATOM     26  H   UNL     1     -10.515   5.488 127.526  0.00  0.00    +0.000 HD
ENDBRANCH  23  25
BRANCH  23  27
ATOM     27  O   UNL     1     -12.285   6.761 126.368  0.00  0.00    +0.000 OA
ATOM     28  H   UNL     1     -12.896   7.312 125.850  0.00  0.00    +0.000 HD
ENDBRANCH  23  27
ENDBRANCH  20  23
ENDBRANCH  14  16
BRANCH  15  29
ATOM     29  O   UNL     1      -5.450   7.272 131.064  0.00  0.00    +0.000 OA
BRANCH  29  30
ATOM     30  C   UNL     1      -4.572   7.256 129.941  0.00  0.00    +0.000 C 
ATOM     31  C   UNL     1      -3.945   8.642 129.841  0.00  0.00    +0.000 C 
ENDBRANCH  29  30
ENDBRANCH  15  29
ENDBRANCH  11  14
ENDBRANCH   9  10
BRANCH   5  32
ATOM     32  C   UNL     1      -4.605  -1.188 130.584  0.00  0.00    +0.000 C 
ATOM     33  O   UNL     1      -3.942  -1.584 131.586  0.00  0.00    +0.000 OA
ATOM     34  OXT UNL     1      -4.344  -1.370 129.364  0.00  0.00    +0.000 OA
ENDBRANCH   5  32
BRANCH   4  35
ATOM     35  S   UNL     1      -7.405  -2.765 130.478  0.00  0.00    +0.000 S 
BRANCH  35  36
ATOM     36  C   UNL     1      -8.092  -2.864 128.877  0.00  0.00    +0.000 A 
ATOM     37  N   UNL     1      -8.009  -1.897 127.980  0.00  0.00    +0.000 NA
ATOM     38  C   UNL     1      -8.599  -2.294 126.792  0.00  0.00    +0.000 A 
ATOM     39  C   UNL     1      -9.079  -3.587 126.775  0.00  0.00    +0.000 A 
ATOM     40  S   UNL     1      -8.774  -4.334 128.289  0.00  0.00    +0.000 S 
BRANCH  38  41
ATOM     41  C   UNL     1      -8.712  -1.365 125.678  0.00  0.00    +0.000 A 
ATOM     42  C   UNL     1      -8.953  -0.013 125.915  0.00  0.00    +0.000 A 
ATOM     43  C   UNL     1      -9.252   0.832 124.850  0.00  0.00    +0.000 A 
ATOM     44  N   UNL     1      -9.325   0.353 123.587  0.00  0.00    +0.000 N 
ATOM     45  C   UNL     1      -9.868   1.203 122.507  0.00  0.00    +0.000 C 
ATOM     46  C   UNL     1      -8.991  -0.932 123.323  0.00  0.00    +0.000 A 
ATOM     47  C   UNL     1      -8.681  -1.813 124.358  0.00  0.00    +0.000 A 
ENDBRANCH  38  41
ENDBRANCH  35  36
ENDBRANCH   4  35
TORSDOF 12
ENDMDL
MODEL 4
REMARK VINA RESULT:      -8.2      3.728      4.312
REMARK  Name = Ceftaroline fosamil
REMARK  14 active torsions:
REMARK  status: ('A' for Active; 'I' for Inactive)
REMARK    1  A    between atoms: C_5  and  S_6
REMARK    2  A    between atoms: S_6  and  C_7
REMARK    3  A    between atoms: C_9  and  C_12
REMARK    4  A    between atoms: N_15  and  C_16
REMARK    5  A    between atoms: CA_19  and  C_42
REMARK    6  A    between atoms: CA_23  and  N_24
REMARK    7  A    between atoms: C_25  and  C_27
REMARK    8  A    between atoms: C_27  and  C_32
REMARK    9  A    between atoms: N_28  and  O_29
REMARK   10  A    between atoms: O_29  and  C_30
REMARK   11  A    between atoms: C_30  and  C_31
REMARK   12  A    between atoms: N_36  and  P_37
REMARK   13  A    between atoms: P_37  and  O_38
REMARK   14  A    between atoms: P_37  and  O_39
REMARK                            x       y       z     vdW  Elec       q    Type
REMARK                         _______ _______ _______ _____ _____    ______ ____
ROOT
ATOM      1  C   UNL     1      -6.224  -3.058 129.383  0.00  0.00    +0.000 C 
ATOM      2  S   UNL     1      -4.569  -2.468 128.926  0.00  0.00    +0.000 S 
ATOM      3  C   UNL     1      -3.950  -2.669 130.633  0.00  0.00    +0.000 C 
ATOM      4  C   UNL     1      -4.763  -1.975 131.707  0.00  0.00    +0.000 C 
ATOM      5  CA  UNL     1      -6.099  -1.705 131.539  0.00  0.00    +0.000 C 
ATOM      6  N   UNL     1      -6.756  -2.145 130.381  0.00  0.00    +0.000 N 
ATOM      7  C   UNL     1      -7.654  -1.541 129.538  0.00  0.00    +0.000 C 
ATOM      8  O   UNL     1      -8.266  -0.503 129.520  0.00  0.00    +0.000 OA
ATOM      9  CA  UNL     1      -7.421  -2.657 128.469  0.00  0.00    +0.000 C 
ENDROOT
BRANCH   9  10
ATOM     10  N   UNL     1      -7.142  -2.269 127.046  0.00  0.00    +0.000 N 
ATOM     11  C   UNL     1      -8.111  -2.328 126.047  0.00  0.00    +0.000 C 
ATOM     12  O   UNL     1      -9.207  -2.845 126.240  0.00  0.00    +0.000 OA
ATOM     13  H   UNL     1      -6.258  -1.822 126.813  0.00  0.00    +0.000 HD
BRANCH  11  14
ATOM     14  C   UNL     1      -7.788  -1.771 124.633  0.00  0.00    +0.000 C 
ATOM     15  N   UNL     1      -6.933  -2.320 123.792  0.00  0.00    +0.000 NA
BRANCH  14  16
ATOM     16  C   UNL     1      -8.511  -0.527 124.193  0.00  0.00    +0.000 A 
ATOM     17  N   UNL     1      -9.538  -0.595 123.329  0.00  0.00    +0.000 NA
ATOM     18  S   UNL     1     -10.091   0.957 123.067  0.00  0.00    +0.000 S 
ATOM     19  C   UNL     1      -8.915   1.707 124.098  0.00  0.00    +0.000 A 
ATOM     20  N   UNL     1      -8.884   3.058 124.303  0.00  0.00    +0.000 N 
ATOM     21  N   UNL     1      -8.151   0.782 124.648  0.00  0.00    +0.000 NA
ATOM     22  H   UNL     1      -9.582   3.655 123.897  0.00  0.00    +0.000 HD
BRANCH  20  23
ATOM     23  P   UNL     1      -7.627   3.671 125.406  0.00  0.00    +0.000 P 
ATOM     24  O   UNL     1      -6.534   4.203 126.364  0.00  0.00    +0.000 OA
BRANCH  23  25
ATOM     25  O   UNL     1      -8.423   5.109 125.342  0.00  0.00    +0.000 OA
ATOM     26  H   UNL     1      -9.087   5.231 124.656  0.00  0.00    +0.000 HD
ENDBRANCH  23  25
BRANCH  23  27
ATOM     27  O   UNL     1      -8.564   3.042 126.604  0.00  0.00    +0.000 OA
ATOM     28  H   UNL     1      -8.713   2.087 126.496  0.00  0.00    +0.000 HD
ENDBRANCH  23  27
ENDBRANCH  20  23
ENDBRANCH  14  16
BRANCH  15  29
ATOM     29  O   UNL     1      -6.286  -3.438 124.343  0.00  0.00    +0.000 OA
BRANCH  29  30
ATOM     30  C   UNL     1      -4.875  -3.421 124.136  0.00  0.00    +0.000 C 
ATOM     31  C   UNL     1      -4.476  -4.809 123.648  0.00  0.00    +0.000 C 
ENDBRANCH  29  30
ENDBRANCH  15  29
ENDBRANCH  11  14
ENDBRANCH   9  10
BRANCH   5  32
ATOM     32  C   UNL     1      -7.016  -0.928 132.644  0.00  0.00    +0.000 C 
ATOM     33  O   UNL     1      -7.093   0.323 132.474  0.00  0.00    +0.000 OA
ATOM     34  OXT UNL     1      -7.613  -1.629 133.505  0.00  0.00    +0.000 OA
ENDBRANCH   5  32
BRANCH   4  35
ATOM     35  S   UNL     1      -3.904  -1.522 133.199  0.00  0.00    +0.000 S 
BRANCH  35  36
ATOM     36  C   UNL     1      -3.793   0.217 133.268  0.00  0.00    +0.000 A 
ATOM     37  N   UNL     1      -3.727   0.992 132.200  0.00  0.00    +0.000 NA
ATOM     38  C   UNL     1      -3.705   2.325 132.575  0.00  0.00    +0.000 A 
ATOM     39  C   UNL     1      -3.813   2.558 133.930  0.00  0.00    +0.000 A 
ATOM     40  S   UNL     1      -3.957   1.063 134.761  0.00  0.00    +0.000 S 
BRANCH  38  41
ATOM     41  C   UNL     1      -3.542   3.371 131.576  0.00  0.00    +0.000 A 
ATOM     42  C   UNL     1      -4.048   3.197 130.290  0.00  0.00    +0.000 A 
ATOM     43  C   UNL     1      -3.723   4.109 129.290  0.00  0.00    +0.000 A 
ATOM     44  N   UNL     1      -2.909   5.158 129.551  0.00  0.00    +0.000 N 
ATOM     45  C   UNL     1      -2.388   5.980 128.438  0.00  0.00    +0.000 C 
ATOM     46  C   UNL     1      -2.495   5.404 130.816  0.00  0.00    +0.000 A 
ATOM     47  C   UNL     1      -2.800   4.520 131.849  0.00  0.00    +0.000 A 
ENDBRANCH  38  41
ENDBRANCH  35  36
ENDBRANCH   4  35
TORSDOF 12
ENDMDL
MODEL 5
REMARK VINA RESULT:      -7.6      6.907     10.857
REMARK  Name = Ceftaroline fosamil
REMARK  14 active torsions:
REMARK  status: ('A' for Active; 'I' for Inactive)
REMARK    1  A    between atoms: C_5  and  S_6
REMARK    2  A    between atoms: S_6  and  C_7
REMARK    3  A    between atoms: C_9  and  C_12
REMARK    4  A    between atoms: N_15  and  C_16
REMARK    5  A    between atoms: CA_19  and  C_42
REMARK    6  A    between atoms: CA_23  and  N_24
REMARK    7  A    between atoms: C_25  and  C_27
REMARK    8  A    between atoms: C_27  and  C_32
REMARK    9  A    between atoms: N_28  and  O_29
REMARK   10  A    between atoms: O_29  and  C_30
REMARK   11  A    between atoms: C_30  and  C_31
REMARK   12  A    between atoms: N_36  and  P_37
REMARK   13  A    between atoms: P_37  and  O_38
REMARK   14  A    between atoms: P_37  and  O_39
REMARK                            x       y       z     vdW  Elec       q    Type
REMARK                         _______ _______ _______ _____ _____    ______ ____
ROOT
ATOM      1  C   UNL     1      -3.559   4.884 131.437  0.00  0.00    +0.000 C 
ATOM      2  S   UNL     1      -5.125   5.417 132.185  0.00  0.00    +0.000 S 
ATOM      3  C   UNL     1      -6.089   4.239 131.175  0.00  0.00    +0.000 C 
ATOM      4  C   UNL     1      -5.862   4.326 129.679  0.00  0.00    +0.000 C 
ATOM      5  CA  UNL     1      -4.688   4.808 129.154  0.00  0.00    +0.000 C 
ATOM      6  N   UNL     1      -3.636   5.159 130.012  0.00  0.00    +0.000 N 
ATOM      7  C   UNL     1      -2.783   6.233 130.041  0.00  0.00    +0.000 C 
ATOM      8  O   UNL     1      -2.550   7.178 129.329  0.00  0.00    +0.000 OA
ATOM      9  CA  UNL     1      -2.349   5.866 131.496  0.00  0.00    +0.000 C 
ENDROOT
BRANCH   9  10
ATOM     10  N   UNL     1      -2.338   6.931 132.554  0.00  0.00    +0.000 N 
ATOM     11  C   UNL     1      -1.173   7.580 132.955  0.00  0.00    +0.000 C 
ATOM     12  O   UNL     1      -0.065   7.212 132.576  0.00  0.00    +0.000 OA
ATOM     13  H   UNL     1      -3.221   7.296 132.906  0.00  0.00    +0.000 HD
BRANCH  11  14
ATOM     14  C   UNL     1      -1.263   8.773 133.946  0.00  0.00    +0.000 C 
ATOM     15  N   UNL     1      -1.510   8.654 135.237  0.00  0.00    +0.000 NA
BRANCH  14  16
ATOM     16  C   UNL     1      -1.040  10.155 133.395  0.00  0.00    +0.000 A 
ATOM     17  N   UNL     1      -1.962  10.744 132.615  0.00  0.00    +0.000 NA
ATOM     18  S   UNL     1      -1.386  12.251 132.190  0.00  0.00    +0.000 S 
ATOM     19  C   UNL     1       0.118  12.077 133.036  0.00  0.00    +0.000 A 
ATOM     20  N   UNL     1       1.058  13.070 133.060  0.00  0.00    +0.000 N 
ATOM     21  N   UNL     1       0.150  10.910 133.651  0.00  0.00    +0.000 NA
ATOM     22  H   UNL     1       0.879  13.957 132.625  0.00  0.00    +0.000 HD
BRANCH  20  23
ATOM     23  P   UNL     1       2.541  12.743 133.989  0.00  0.00    +0.000 P 
ATOM     24  O   UNL     1       3.831  12.459 134.796  0.00  0.00    +0.000 OA
BRANCH  23  25
ATOM     25  O   UNL     1       2.913  14.327 133.746  0.00  0.00    +0.000 OA
ATOM     26  H   UNL     1       2.250  14.893 133.340  0.00  0.00    +0.000 HD
ENDBRANCH  23  25
BRANCH  23  27
ATOM     27  O   UNL     1       1.607  13.018 135.316  0.00  0.00    +0.000 OA
ATOM     28  H   UNL     1       0.677  12.776 135.171  0.00  0.00    +0.000 HD
ENDBRANCH  23  27
ENDBRANCH  20  23
ENDBRANCH  14  16
BRANCH  15  29
ATOM     29  O   UNL     1      -1.753   7.323 135.613  0.00  0.00    +0.000 OA
BRANCH  29  30
ATOM     30  C   UNL     1      -1.421   7.061 136.975  0.00  0.00    +0.000 C 
ATOM     31  C   UNL     1       0.006   7.554 137.191  0.00  0.00    +0.000 C 
ENDBRANCH  29  30
ENDBRANCH  15  29
ENDBRANCH  11  14
ENDBRANCH   9  10
BRANCH   5  32
ATOM     32  C   UNL     1      -4.402   4.959 127.554  0.00  0.00    +0.000 C 
ATOM     33  O   UNL     1      -3.842   3.956 127.025  0.00  0.00    +0.000 OA
ATOM     34  OXT UNL     1      -4.820   6.003 126.981  0.00  0.00    +0.000 OA
ENDBRANCH   5  32
BRANCH   4  35
ATOM     35  S   UNL     1      -7.192   3.777 128.631  0.00  0.00    +0.000 S 
BRANCH  35  36
ATOM     36  C   UNL     1      -8.705   4.229 129.374  0.00  0.00    +0.000 A 
ATOM     37  N   UNL     1      -9.349   5.351 129.104  0.00  0.00    +0.000 NA
ATOM     38  C   UNL     1     -10.543   5.398 129.805  0.00  0.00    +0.000 A 
ATOM     39  C   UNL     1     -10.826   4.282 130.564  0.00  0.00    +0.000 A 
ATOM     40  S   UNL     1      -9.565   3.131 130.386  0.00  0.00    +0.000 S 
BRANCH  38  41
ATOM     41  C   UNL     1     -11.388   6.581 129.742  0.00  0.00    +0.000 A 
ATOM     42  C   UNL     1     -11.267   7.474 128.681  0.00  0.00    +0.000 A 
ATOM     43  C   UNL     1     -11.936   8.695 128.725  0.00  0.00    +0.000 A 
ATOM     44  N   UNL     1     -12.694   9.028 129.794  0.00  0.00    +0.000 N 
ATOM     45  C   UNL     1     -13.205  10.408 129.933  0.00  0.00    +0.000 C 
ATOM     46  C   UNL     1     -12.911   8.132 130.785  0.00  0.00    +0.000 A 
ATOM     47  C   UNL     1     -12.265   6.897 130.780  0.00  0.00    +0.000 A 
ENDBRANCH  38  41
ENDBRANCH  35  36
ENDBRANCH   4  35
TORSDOF 12
ENDMDL
MODEL 6
REMARK VINA RESULT:      -7.6      4.401      6.444
REMARK  Name = Ceftaroline fosamil
REMARK  14 active torsions:
REMARK  status: ('A' for Active; 'I' for Inactive)
REMARK    1  A    between atoms: C_5  and  S_6
REMARK    2  A    between atoms: S_6  and  C_7
REMARK    3  A    between atoms: C_9  and  C_12
REMARK    4  A    between atoms: N_15  and  C_16
REMARK    5  A    between atoms: CA_19  and  C_42
REMARK    6  A    between atoms: CA_23  and  N_24
REMARK    7  A    between atoms: C_25  and  C_27
REMARK    8  A    between atoms: C_27  and  C_32
REMARK    9  A    between atoms: N_28  and  O_29
REMARK   10  A    between atoms: O_29  and  C_30
REMARK   11  A    between atoms: C_30  and  C_31
REMARK   12  A    between atoms: N_36  and  P_37
REMARK   13  A    between atoms: P_37  and  O_38
REMARK   14  A    between atoms: P_37  and  O_39
REMARK                            x       y       z     vdW  Elec       q    Type
REMARK                         _______ _______ _______ _____ _____    ______ ____
ROOT
ATOM      1  C   UNL     1      -5.533   4.031 130.262  0.00  0.00    +0.000 C 
ATOM      2  S   UNL     1      -4.210   2.819 130.542  0.00  0.00    +0.000 S 
ATOM      3  C   UNL     1      -3.224   4.015 131.507  0.00  0.00    +0.000 C 
ATOM      4  C   UNL     1      -2.947   5.337 130.820  0.00  0.00    +0.000 C 
ATOM      5  CA  UNL     1      -3.780   5.833 129.847  0.00  0.00    +0.000 C 
ATOM      6  N   UNL     1      -4.960   5.146 129.527  0.00  0.00    +0.000 N 
ATOM      7  C   UNL     1      -5.555   4.833 128.332  0.00  0.00    +0.000 C 
ATOM      8  O   UNL     1      -5.365   5.098 127.171  0.00  0.00    +0.000 OA
ATOM      9  CA  UNL     1      -6.487   3.805 129.050  0.00  0.00    +0.000 C 
ENDROOT
BRANCH   9  10
ATOM     10  N   UNL     1      -6.625   2.419 128.491  0.00  0.00    +0.000 N 
ATOM     11  C   UNL     1      -7.862   1.824 128.250  0.00  0.00    +0.000 C 
ATOM     12  O   UNL     1      -8.910   2.341 128.624  0.00  0.00    +0.000 OA
ATOM     13  H   UNL     1      -5.799   1.933 128.147  0.00  0.00    +0.000 HD
BRANCH  11  14
ATOM     14  C   UNL     1      -7.923   0.447 127.533  0.00  0.00    +0.000 C 
ATOM     15  N   UNL     1      -7.814  -0.717 128.143  0.00  0.00    +0.000 NA
BRANCH  14  16
ATOM     16  C   UNL     1      -8.133   0.446 126.044  0.00  0.00    +0.000 A 
ATOM     17  N   UNL     1      -8.845  -0.525 125.447  0.00  0.00    +0.000 NA
ATOM     18  S   UNL     1      -8.869  -0.210 123.809  0.00  0.00    +0.000 S 
ATOM     19  C   UNL     1      -7.889   1.217 123.920  0.00  0.00    +0.000 A 
ATOM     20  N   UNL     1      -7.565   1.963 122.821  0.00  0.00    +0.000 N 
ATOM     21  N   UNL     1      -7.590   1.454 125.183  0.00  0.00    +0.000 NA
ATOM     22  H   UNL     1      -7.932   1.730 121.916  0.00  0.00    +0.000 HD
BRANCH  20  23
ATOM     23  P   UNL     1      -6.567   3.410 123.104  0.00  0.00    +0.000 P 
ATOM     24  O   UNL     1      -5.699   4.668 123.351  0.00  0.00    +0.000 OA
BRANCH  23  25
ATOM     25  O   UNL     1      -7.029   3.892 121.601  0.00  0.00    +0.000 OA
ATOM     26  H   UNL     1      -7.950   3.771 121.347  0.00  0.00    +0.000 HD
ENDBRANCH  23  25
BRANCH  23  27
ATOM     27  O   UNL     1      -7.899   4.012 123.863  0.00  0.00    +0.000 OA
ATOM     28  H   UNL     1      -7.865   4.979 123.960  0.00  0.00    +0.000 HD
ENDBRANCH  23  27
ENDBRANCH  20  23
ENDBRANCH  14  16
BRANCH  15  29
ATOM     29  O   UNL     1      -7.566  -0.578 129.519  0.00  0.00    +0.000 OA
BRANCH  29  30
ATOM     30  C   UNL     1      -7.978  -1.715 130.275  0.00  0.00    +0.000 C 
ATOM     31  C   UNL     1      -8.079  -2.887 129.304  0.00  0.00    +0.000 C 
ENDBRANCH  29  30
ENDBRANCH  15  29
ENDBRANCH  11  14
ENDBRANCH   9  10
BRANCH   5  32
ATOM     32  C   UNL     1      -3.513   7.231 129.047  0.00  0.00    +0.000 C 
ATOM     33  O   UNL     1      -2.678   7.141 128.101  0.00  0.00    +0.000 OA
ATOM     34  OXT UNL     1      -4.197   8.236 129.382  0.00  0.00    +0.000 OA
ENDBRANCH   5  32
BRANCH   4  35
ATOM     35  S   UNL     1      -1.487   6.218 131.331  0.00  0.00    +0.000 S 
BRANCH  35  36
ATOM     36  C   UNL     1      -1.891   7.208 132.709  0.00  0.00    +0.000 A 
ATOM     37  N   UNL     1      -1.950   8.527 132.674  0.00  0.00    +0.000 NA
ATOM     38  C   UNL     1      -2.351   9.022 133.904  0.00  0.00    +0.000 A 
ATOM     39  C   UNL     1      -2.650   8.068 134.854  0.00  0.00    +0.000 A 
ATOM     40  S   UNL     1      -2.434   6.503 134.185  0.00  0.00    +0.000 S 
BRANCH  38  41
ATOM     41  C   UNL     1      -2.403  10.457 134.141  0.00  0.00    +0.000 A 
ATOM     42  C   UNL     1      -2.310  11.348 133.074  0.00  0.00    +0.000 A 
ATOM     43  C   UNL     1      -2.165  12.710 133.321  0.00  0.00    +0.000 A 
ATOM     44  N   UNL     1      -2.102  13.178 134.588  0.00  0.00    +0.000 N 
ATOM     45  C   UNL     1      -1.718  14.584 134.836  0.00  0.00    +0.000 C 
ATOM     46  C   UNL     1      -2.298  12.344 135.636  0.00  0.00    +0.000 A 
ATOM     47  C   UNL     1      -2.450  10.973 135.435  0.00  0.00    +0.000 A 
ENDBRANCH  38  41
ENDBRANCH  35  36
ENDBRANCH   4  35
TORSDOF 12
ENDMDL
MODEL 7
REMARK VINA RESULT:      -7.5      3.927     10.078
REMARK  Name = Ceftaroline fosamil
REMARK  14 active torsions:
REMARK  status: ('A' for Active; 'I' for Inactive)
REMARK    1  A    between atoms: C_5  and  S_6
REMARK    2  A    between atoms: S_6  and  C_7
REMARK    3  A    between atoms: C_9  and  C_12
REMARK    4  A    between atoms: N_15  and  C_16
REMARK    5  A    between atoms: CA_19  and  C_42
REMARK    6  A    between atoms: CA_23  and  N_24
REMARK    7  A    between atoms: C_25  and  C_27
REMARK    8  A    between atoms: C_27  and  C_32
REMARK    9  A    between atoms: N_28  and  O_29
REMARK   10  A    between atoms: O_29  and  C_30
REMARK   11  A    between atoms: C_30  and  C_31
REMARK   12  A    between atoms: N_36  and  P_37
REMARK   13  A    between atoms: P_37  and  O_38
REMARK   14  A    between atoms: P_37  and  O_39
REMARK                            x       y       z     vdW  Elec       q    Type
REMARK                         _______ _______ _______ _____ _____    ______ ____
ROOT
ATOM      1  C   UNL     1      -5.616   3.473 128.574  0.00  0.00    +0.000 C 
ATOM      2  S   UNL     1      -7.290   3.854 129.165  0.00  0.00    +0.000 S 
ATOM      3  C   UNL     1      -8.060   3.066 127.708  0.00  0.00    +0.000 C 
ATOM      4  C   UNL     1      -7.568   3.563 126.363  0.00  0.00    +0.000 C 
ATOM      5  CA  UNL     1      -6.319   4.110 126.208  0.00  0.00    +0.000 C 
ATOM      6  N   UNL     1      -5.437   4.146 127.299  0.00  0.00    +0.000 N 
ATOM      7  C   UNL     1      -4.600   5.119 127.782  0.00  0.00    +0.000 C 
ATOM      8  O   UNL     1      -4.242   6.213 127.425  0.00  0.00    +0.000 OA
ATOM      9  CA  UNL     1      -4.435   4.330 129.121  0.00  0.00    +0.000 C 
ENDROOT
BRANCH   9  10
ATOM     10  N   UNL     1      -4.611   5.048 130.427  0.00  0.00    +0.000 N 
ATOM     11  C   UNL     1      -3.950   4.664 131.591  0.00  0.00    +0.000 C 
ATOM     12  O   UNL     1      -3.302   3.624 131.653  0.00  0.00    +0.000 OA
ATOM     13  H   UNL     1      -5.125   5.926 130.451  0.00  0.00    +0.000 HD
BRANCH  11  14
ATOM     14  C   UNL     1      -4.068   5.545 132.866  0.00  0.00    +0.000 C 
ATOM     15  N   UNL     1      -3.144   6.392 133.276  0.00  0.00    +0.000 NA
BRANCH  14  16
ATOM     16  C   UNL     1      -5.330   5.429 133.677  0.00  0.00    +0.000 A 
ATOM     17  N   UNL     1      -5.284   5.357 135.018  0.00  0.00    +0.000 NA
ATOM     18  S   UNL     1      -6.851   5.235 135.579  0.00  0.00    +0.000 S 
ATOM     19  C   UNL     1      -7.572   5.247 134.001  0.00  0.00    +0.000 A 
ATOM     20  N   UNL     1      -8.925   5.183 133.820  0.00  0.00    +0.000 N 
ATOM     21  N   UNL     1      -6.632   5.377 133.084  0.00  0.00    +0.000 NA
ATOM     22  H   UNL     1      -9.549   5.179 134.607  0.00  0.00    +0.000 HD
BRANCH  20  23
ATOM     23  P   UNL     1      -9.509   5.224 132.139  0.00  0.00    +0.000 P 
ATOM     24  O   UNL     1     -10.016   5.260 130.676  0.00  0.00    +0.000 OA
BRANCH  23  25
ATOM     25  O   UNL     1     -10.954   5.697 132.766  0.00  0.00    +0.000 OA
ATOM     26  H   UNL     1     -10.950   6.267 133.541  0.00  0.00    +0.000 HD
ENDBRANCH  23  25
BRANCH  23  27
ATOM     27  O   UNL     1      -8.868   6.740 132.098  0.00  0.00    +0.000 OA
ATOM     28  H   UNL     1      -9.440   7.371 131.628  0.00  0.00    +0.000 HD
ENDBRANCH  23  27
ENDBRANCH  20  23
ENDBRANCH  14  16
BRANCH  15  29
ATOM     29  O   UNL     1      -1.998   6.365 132.465  0.00  0.00    +0.000 OA
BRANCH  29  30
ATOM     30  C   UNL     1      -1.165   7.509 132.644  0.00  0.00    +0.000 C 
ATOM     31  C   UNL     1      -0.099   7.132 133.667  0.00  0.00    +0.000 C 
ENDBRANCH  29  30
ENDBRANCH  15  29
ENDBRANCH  11  14
ENDBRANCH   9  10
BRANCH   5  32
ATOM     32  C   UNL     1      -5.751   4.695 124.795  0.00  0.00    +0.000 C 
ATOM     33  O   UNL     1      -5.274   3.818 124.018  0.00  0.00    +0.000 OA
ATOM     34  OXT UNL     1      -5.898   5.928 124.570  0.00  0.00    +0.000 OA
ENDBRANCH   5  32
BRANCH   4  35
ATOM     35  S   UNL     1      -8.691   3.407 124.990  0.00  0.00    +0.000 S 
BRANCH  35  36
ATOM     36  C   UNL     1      -8.575   1.784 124.362  0.00  0.00    +0.000 A 
ATOM     37  N   UNL     1      -7.518   1.008 124.521  0.00  0.00    +0.000 NA
ATOM     38  C   UNL     1      -7.748  -0.238 123.961  0.00  0.00    +0.000 A 
ATOM     39  C   UNL     1      -9.007  -0.420 123.428  0.00  0.00    +0.000 A 
ATOM     40  S   UNL     1      -9.935   1.007 123.643  0.00  0.00    +0.000 S 
BRANCH  38  41
ATOM     41  C   UNL     1      -6.694  -1.239 123.930  0.00  0.00    +0.000 A 
ATOM     42  C   UNL     1      -6.194  -1.694 122.711  0.00  0.00    +0.000 A 
ATOM     43  C   UNL     1      -5.330  -2.784 122.682  0.00  0.00    +0.000 A 
ATOM     44  N   UNL     1      -4.978  -3.417 123.825  0.00  0.00    +0.000 N 
ATOM     45  C   UNL     1      -4.254  -4.704 123.761  0.00  0.00    +0.000 C 
ATOM     46  C   UNL     1      -5.366  -2.927 125.025  0.00  0.00    +0.000 A 
ATOM     47  C   UNL     1      -6.229  -1.834 125.102  0.00  0.00    +0.000 A 
ENDBRANCH  38  41
ENDBRANCH  35  36
ENDBRANCH   4  35
TORSDOF 12
ENDMDL
MODEL 8
REMARK VINA RESULT:      -7.3      4.649      7.319
REMARK  Name = Ceftaroline fosamil
REMARK  14 active torsions:
REMARK  status: ('A' for Active; 'I' for Inactive)
REMARK    1  A    between atoms: C_5  and  S_6
REMARK    2  A    between atoms: S_6  and  C_7
REMARK    3  A    between atoms: C_9  and  C_12
REMARK    4  A    between atoms: N_15  and  C_16
REMARK    5  A    between atoms: CA_19  and  C_42
REMARK    6  A    between atoms: CA_23  and  N_24
REMARK    7  A    between atoms: C_25  and  C_27
REMARK    8  A    between atoms: C_27  and  C_32
REMARK    9  A    between atoms: N_28  and  O_29
REMARK   10  A    between atoms: O_29  and  C_30
REMARK   11  A    between atoms: C_30  and  C_31
REMARK   12  A    between atoms: N_36  and  P_37
REMARK   13  A    between atoms: P_37  and  O_38
REMARK   14  A    between atoms: P_37  and  O_39
REMARK                            x       y       z     vdW  Elec       q    Type
REMARK                         _______ _______ _______ _____ _____    ______ ____
ROOT
ATOM      1  C   UNL     1      -6.705  -2.966 128.992  0.00  0.00    +0.000 C 
ATOM      2  S   UNL     1      -4.947  -2.858 128.550  0.00  0.00    +0.000 S 
ATOM      3  C   UNL     1      -4.423  -3.352 130.229  0.00  0.00    +0.000 C 
ATOM      4  C   UNL     1      -5.001  -2.527 131.360  0.00  0.00    +0.000 C 
ATOM      5  CA  UNL     1      -6.196  -1.864 131.233  0.00  0.00    +0.000 C 
ATOM      6  N   UNL     1      -6.949  -2.009 130.058  0.00  0.00    +0.000 N 
ATOM      7  C   UNL     1      -7.624  -1.110 129.274  0.00  0.00    +0.000 C 
ATOM      8  O   UNL     1      -7.903   0.061 129.337  0.00  0.00    +0.000 OA
ATOM      9  CA  UNL     1      -7.726  -2.167 128.127  0.00  0.00    +0.000 C 
ENDROOT
BRANCH   9  10
ATOM     10  N   UNL     1      -7.339  -1.779 126.730  0.00  0.00    +0.000 N 
ATOM     11  C   UNL     1      -8.160  -2.014 125.630  0.00  0.00    +0.000 C 
ATOM     12  O   UNL     1      -9.181  -2.688 125.718  0.00  0.00    +0.000 OA
ATOM     13  H   UNL     1      -6.510  -1.207 126.580  0.00  0.00    +0.000 HD
BRANCH  11  14
ATOM     14  C   UNL     1      -7.756  -1.451 124.239  0.00  0.00    +0.000 C 
ATOM     15  N   UNL     1      -6.918  -2.043 123.409  0.00  0.00    +0.000 NA
BRANCH  14  16
ATOM     16  C   UNL     1      -8.374  -0.150 123.807  0.00  0.00    +0.000 A 
ATOM     17  N   UNL     1      -9.474  -0.130 123.036  0.00  0.00    +0.000 NA
ATOM     18  S   UNL     1      -9.874   1.465 122.755  0.00  0.00    +0.000 S 
ATOM     19  C   UNL     1      -8.537   2.112 123.651  0.00  0.00    +0.000 A 
ATOM     20  N   UNL     1      -8.341   3.457 123.794  0.00  0.00    +0.000 N 
ATOM     21  N   UNL     1      -7.834   1.125 124.174  0.00  0.00    +0.000 NA
ATOM     22  H   UNL     1      -9.002   4.115 123.422  0.00  0.00    +0.000 HD
BRANCH  20  23
ATOM     23  P   UNL     1      -6.932   3.960 124.759  0.00  0.00    +0.000 P 
ATOM     24  O   UNL     1      -5.707   4.397 125.599  0.00  0.00    +0.000 OA
BRANCH  23  25
ATOM     25  O   UNL     1      -6.315   4.552 123.354  0.00  0.00    +0.000 OA
ATOM     26  H   UNL     1      -5.660   4.024 122.887  0.00  0.00    +0.000 HD
ENDBRANCH  23  25
BRANCH  23  27
ATOM     27  O   UNL     1      -7.819   5.304 125.103  0.00  0.00    +0.000 OA
ATOM     28  H   UNL     1      -8.120   5.323 126.027  0.00  0.00    +0.000 HD
ENDBRANCH  23  27
ENDBRANCH  20  23
ENDBRANCH  14  16
BRANCH  15  29
ATOM     29  O   UNL     1      -6.370  -3.217 123.952  0.00  0.00    +0.000 OA
BRANCH  29  30
ATOM     30  C   UNL     1      -4.950  -3.163 124.073  0.00  0.00    +0.000 C 
ATOM     31  C   UNL     1      -4.404  -4.485 123.547  0.00  0.00    +0.000 C 
ENDBRANCH  29  30
ENDBRANCH  15  29
ENDBRANCH  11  14
ENDBRANCH   9  10
BRANCH   5  32
ATOM     32  C   UNL     1      -6.849  -0.932 132.404  0.00  0.00    +0.000 C 
ATOM     33  O   UNL     1      -7.730  -1.510 133.104  0.00  0.00    +0.000 OA
ATOM     34  OXT UNL     1      -6.380   0.229 132.556  0.00  0.00    +0.000 OA
ENDBRANCH   5  32
BRANCH   4  35
ATOM     35  S   UNL     1      -4.053  -2.453 132.866  0.00  0.00    +0.000 S 
BRANCH  35  36
ATOM     36  C   UNL     1      -4.557  -3.763 133.902  0.00  0.00    +0.000 A 
ATOM     37  N   UNL     1      -5.705  -3.782 134.557  0.00  0.00    +0.000 NA
ATOM     38  C   UNL     1      -5.843  -4.975 135.246  0.00  0.00    +0.000 A 
ATOM     39  C   UNL     1      -4.821  -5.883 135.065  0.00  0.00    +0.000 A 
ATOM     40  S   UNL     1      -3.655  -5.229 133.989  0.00  0.00    +0.000 S 
BRANCH  38  41
ATOM     41  C   UNL     1      -6.988  -5.195 136.118  0.00  0.00    +0.000 A 
ATOM     42  C   UNL     1      -7.363  -4.222 137.042  0.00  0.00    +0.000 A 
ATOM     43  C   UNL     1      -8.330  -4.515 137.999  0.00  0.00    +0.000 A 
ATOM     44  N   UNL     1      -8.902  -5.740 138.050  0.00  0.00    +0.000 N 
ATOM     45  C   UNL     1      -9.748  -6.110 139.204  0.00  0.00    +0.000 C 
ATOM     46  C   UNL     1      -8.630  -6.662 137.097  0.00  0.00    +0.000 A 
ATOM     47  C   UNL     1      -7.671  -6.410 136.118  0.00  0.00    +0.000 A 
ENDBRANCH  38  41
ENDBRANCH  35  36
ENDBRANCH   4  35
TORSDOF 12
ENDMDL
MODEL 9
REMARK VINA RESULT:      -7.2      4.299      9.431
REMARK  Name = Ceftaroline fosamil
REMARK  14 active torsions:
REMARK  status: ('A' for Active; 'I' for Inactive)
REMARK    1  A    between atoms: C_5  and  S_6
REMARK    2  A    between atoms: S_6  and  C_7
REMARK    3  A    between atoms: C_9  and  C_12
REMARK    4  A    between atoms: N_15  and  C_16
REMARK    5  A    between atoms: CA_19  and  C_42
REMARK    6  A    between atoms: CA_23  and  N_24
REMARK    7  A    between atoms: C_25  and  C_27
REMARK    8  A    between atoms: C_27  and  C_32
REMARK    9  A    between atoms: N_28  and  O_29
REMARK   10  A    between atoms: O_29  and  C_30
REMARK   11  A    between atoms: C_30  and  C_31
REMARK   12  A    between atoms: N_36  and  P_37
REMARK   13  A    between atoms: P_37  and  O_38
REMARK   14  A    between atoms: P_37  and  O_39
REMARK                            x       y       z     vdW  Elec       q    Type
REMARK                         _______ _______ _______ _____ _____    ______ ____
ROOT
ATOM      1  C   UNL     1      -3.628   3.920 131.245  0.00  0.00    +0.000 C 
ATOM      2  S   UNL     1      -4.811   2.743 130.531  0.00  0.00    +0.000 S 
ATOM      3  C   UNL     1      -3.774   2.491 129.049  0.00  0.00    +0.000 C 
ATOM      4  C   UNL     1      -3.377   3.753 128.310  0.00  0.00    +0.000 C 
ATOM      5  CA  UNL     1      -3.301   4.968 128.945  0.00  0.00    +0.000 C 
ATOM      6  N   UNL     1      -3.518   5.043 130.328  0.00  0.00    +0.000 N 
ATOM      7  C   UNL     1      -4.231   5.917 131.108  0.00  0.00    +0.000 C 
ATOM      8  O   UNL     1      -4.824   6.952 130.934  0.00  0.00    +0.000 OA
ATOM      9  CA  UNL     1      -4.152   4.926 132.314  0.00  0.00    +0.000 C 
ENDROOT
BRANCH   9  10
ATOM     10  N   UNL     1      -5.403   4.585 133.071  0.00  0.00    +0.000 N 
ATOM     11  C   UNL     1      -5.960   5.434 134.024  0.00  0.00    +0.000 C 
ATOM     12  O   UNL     1      -5.377   6.442 134.410  0.00  0.00    +0.000 OA
ATOM     13  H   UNL     1      -5.948   3.770 132.797  0.00  0.00    +0.000 HD
BRANCH  11  14
ATOM     14  C   UNL     1      -7.334   5.079 134.657  0.00  0.00    +0.000 C 
ATOM     15  N   UNL     1      -7.695   5.400 135.885  0.00  0.00    +0.000 NA
BRANCH  14  16
ATOM     16  C   UNL     1      -8.320   4.329 133.805  0.00  0.00    +0.000 A 
ATOM     17  N   UNL     1      -8.461   2.998 133.920  0.00  0.00    +0.000 NA
ATOM     18  S   UNL     1      -9.627   2.510 132.831  0.00  0.00    +0.000 S 
ATOM     19  C   UNL     1      -9.904   4.098 132.191  0.00  0.00    +0.000 A 
ATOM     20  N   UNL     1     -10.829   4.337 131.213  0.00  0.00    +0.000 N 
ATOM     21  N   UNL     1      -9.146   4.972 132.827  0.00  0.00    +0.000 NA
ATOM     22  H   UNL     1     -11.415   3.598 130.869  0.00  0.00    +0.000 HD
BRANCH  20  23
ATOM     23  P   UNL     1     -11.007   6.025 130.677  0.00  0.00    +0.000 P 
ATOM     24  O   UNL     1     -11.162   7.494 130.212  0.00  0.00    +0.000 OA
BRANCH  23  25
ATOM     25  O   UNL     1     -12.060   5.445 129.554  0.00  0.00    +0.000 OA
ATOM     26  H   UNL     1     -11.708   5.158 128.706  0.00  0.00    +0.000 HD
ENDBRANCH  23  25
BRANCH  23  27
ATOM     27  O   UNL     1     -12.129   6.144 131.877  0.00  0.00    +0.000 OA
ATOM     28  H   UNL     1     -11.724   6.281 132.750  0.00  0.00    +0.000 HD
ENDBRANCH  23  27
ENDBRANCH  20  23
ENDBRANCH  14  16
BRANCH  15  29
ATOM     29  O   UNL     1      -6.668   6.046 136.592  0.00  0.00    +0.000 OA
BRANCH  29  30
ATOM     30  C   UNL     1      -7.131   7.165 137.345  0.00  0.00    +0.000 C 
ATOM     31  C   UNL     1      -8.114   6.632 138.382  0.00  0.00    +0.000 C 
ENDBRANCH  29  30
ENDBRANCH  15  29
ENDBRANCH  11  14
ENDBRANCH   9  10
BRANCH   5  32
ATOM     32  C   UNL     1      -2.916   6.365 128.193  0.00  0.00    +0.000 C 
ATOM     33  O   UNL     1      -3.897   6.962 127.662  0.00  0.00    +0.000 OA
ATOM     34  OXT UNL     1      -1.720   6.758 128.266  0.00  0.00    +0.000 OA
ENDBRANCH   5  32
BRANCH   4  35
ATOM     35  S   UNL     1      -3.017   3.588 126.574  0.00  0.00    +0.000 S 
BRANCH  35  36
ATOM     36  C   UNL     1      -4.458   3.037 125.759  0.00  0.00    +0.000 A 
ATOM     37  N   UNL     1      -4.993   1.842 125.939  0.00  0.00    +0.000 NA
ATOM     38  C   UNL     1      -6.158   1.723 125.200  0.00  0.00    +0.000 A 
ATOM     39  C   UNL     1      -6.534   2.853 124.505  0.00  0.00    +0.000 A 
ATOM     40  S   UNL     1      -5.400   4.109 124.792  0.00  0.00    +0.000 S 
BRANCH  38  41
ATOM     41  C   UNL     1      -6.881   0.461 125.163  0.00  0.00    +0.000 A 
ATOM     42  C   UNL     1      -6.274  -0.681 124.647  0.00  0.00    +0.000 A 
ATOM     43  C   UNL     1      -7.029  -1.831 124.435  0.00  0.00    +0.000 A 
ATOM     44  N   UNL     1      -8.353  -1.848 124.713  0.00  0.00    +0.000 N 
ATOM     45  C   UNL     1      -9.184  -2.987 124.270  0.00  0.00    +0.000 C 
ATOM     46  C   UNL     1      -8.939  -0.786 125.314  0.00  0.00    +0.000 A 
ATOM     47  C   UNL     1      -8.219   0.385 125.548  0.00  0.00    +0.000 A 
ENDBRANCH  38  41
ENDBRANCH  35  36
ENDBRANCH   4  35
TORSDOF 12
ENDMDL
