MODEL 1
REMARK VINA RESULT:      -6.9      0.000      0.000
REMARK  Name = Ceftibuten
REMARK  8 active torsions:
REMARK  status: ('A' for Active; 'I' for Inactive)
REMARK    1  A    between atoms: CA_6  and  C_26
REMARK    2  A    between atoms: CA_10  and  N_11
REMARK    3  A    between atoms: C_12  and  C_14
REMARK    4  A    between atoms: C_14  and  C_20
REMARK    5  A    between atoms: C_15  and  C_16
REMARK    6  A    between atoms: C_16  and  C_17
REMARK    7  A    between atoms: C_17  and  O_18
REMARK    8  A    between atoms: C_26  and  O_27
REMARK                            x       y       z     vdW  Elec       q    Type
REMARK                         _______ _______ _______ _____ _____    ______ ____
ROOT
ATOM      1  N   UNL     1      -7.426   1.332 124.782  0.00  0.00    +0.000 N 
ATOM      2  C   UNL     1      -7.507   2.715 124.675  0.00  0.00    +0.000 C 
ATOM      3  O   UNL     1      -8.514   3.287 125.090  0.00  0.00    +0.000 OA
ATOM      4  H   UNL     1      -6.670   0.790 124.418  0.00  0.00    +0.000 HD
ENDROOT
BRANCH   1  13
ATOM      5  CE  UNL     1      -8.905  -0.818 124.838  0.00  0.00    +0.000 C 
ATOM      6  SD  UNL     1      -7.813  -1.612 123.610  0.00  0.00    +0.000 S 
ATOM      7  CG  UNL     1      -8.611  -3.242 123.832  0.00  0.00    +0.000 C 
ATOM      8  CB  UNL     1      -8.636  -3.647 125.275  0.00  0.00    +0.000 C 
ATOM      9  CA  UNL     1      -8.605  -2.808 126.331  0.00  0.00    +0.000 C 
ATOM     10  N   UNL     1      -8.683  -1.453 126.141  0.00  0.00    +0.000 N 
ATOM     11  C   UNL     1      -7.947  -0.435 126.656  0.00  0.00    +0.000 C 
ATOM     12  O   UNL     1      -7.258  -0.402 127.642  0.00  0.00    +0.000 OA
ATOM     13  CA  UNL     1      -8.435   0.515 125.500  0.00  0.00    +0.000 C 
BRANCH   9  14
ATOM     14  C   UNL     1      -8.540  -3.449 127.695  0.00  0.00    +0.000 C 
ATOM     15  OXT UNL     1      -9.451  -4.131 128.148  0.00  0.00    +0.000 OA
BRANCH  14  16
ATOM     16  O   UNL     1      -7.458  -3.152 128.439  0.00  0.00    +0.000 OA
ATOM     17  H   UNL     1      -7.555  -3.279 129.403  0.00  0.00    +0.000 HD
ENDBRANCH  14  16
ENDBRANCH   9  14
ENDBRANCH   1  13
BRANCH   2  18
ATOM     18  C   UNL     1      -6.361   3.502 124.016  0.00  0.00    +0.000 C 
ATOM     19  C   UNL     1      -5.224   3.862 124.668  0.00  0.00    +0.000 C 
BRANCH  18  20
ATOM     20  C   UNL     1      -6.465   3.831 122.592  0.00  0.00    +0.000 A 
ATOM     21  C   UNL     1      -7.503   3.392 121.786  0.00  0.00    +0.000 A 
ATOM     22  S   UNL     1      -7.265   3.896 120.170  0.00  0.00    +0.000 S 
ATOM     23  C   UNL     1      -5.792   4.648 120.636  0.00  0.00    +0.000 A 
ATOM     24  N   UNL     1      -5.055   5.287 119.717  0.00  0.00    +0.000 N 
ATOM     25  N   UNL     1      -5.470   4.515 121.906  0.00  0.00    +0.000 NA
ATOM     26  H   UNL     1      -5.381   5.414 118.766  0.00  0.00    +0.000 HD
ATOM     27  H   UNL     1      -4.224   5.792 119.992  0.00  0.00    +0.000 HD
ENDBRANCH  18  20
BRANCH  19  28
ATOM     28  C   UNL     1      -4.850   3.587 126.088  0.00  0.00    +0.000 C 
BRANCH  28  29
ATOM     29  C   UNL     1      -4.207   2.301 126.551  0.00  0.00    +0.000 C 
ATOM     30  O   UNL     1      -4.731   1.221 126.308  0.00  0.00    +0.000 OA
BRANCH  29  31
ATOM     31  O   UNL     1      -3.047   2.394 127.216  0.00  0.00    +0.000 OA
ATOM     32  H   UNL     1      -3.007   1.988 128.095  0.00  0.00    +0.000 HD
ENDBRANCH  29  31
ENDBRANCH  28  29
ENDBRANCH  19  28
ENDBRANCH   2  18
TORSDOF 8
ENDMDL
MODEL 2
REMARK VINA RESULT:      -6.8      5.514      7.655
REMARK  Name = Ceftibuten
REMARK  8 active torsions:
REMARK  status: ('A' for Active; 'I' for Inactive)
REMARK    1  A    between atoms: CA_6  and  C_26
REMARK    2  A    between atoms: CA_10  and  N_11
REMARK    3  A    between atoms: C_12  and  C_14
REMARK    4  A    between atoms: C_14  and  C_20
REMARK    5  A    between atoms: C_15  and  C_16
REMARK    6  A    between atoms: C_16  and  C_17
REMARK    7  A    between atoms: C_17  and  O_18
REMARK    8  A    between atoms: C_26  and  O_27
REMARK                            x       y       z     vdW  Elec       q    Type
REMARK                         _______ _______ _______ _____ _____    ______ ____
ROOT
ATOM      1  N   UNL     1      -8.554   3.623 128.630  0.00  0.00    +0.000 N 
ATOM      2  C   UNL     1      -8.717   4.611 129.593  0.00  0.00    +0.000 C 
ATOM      3  O   UNL     1      -7.888   5.516 129.664  0.00  0.00    +0.000 OA
ATOM      4  H   UNL     1      -9.150   2.826 128.545  0.00  0.00    +0.000 HD
ENDROOT
BRANCH   1  13
ATOM      5  CE  UNL     1      -7.080   2.340 126.899  0.00  0.00    +0.000 C 
ATOM      6  SD  UNL     1      -8.250   0.940 126.926  0.00  0.00    +0.000 S 
ATOM      7  CG  UNL     1      -7.444   0.130 125.500  0.00  0.00    +0.000 C 
ATOM      8  CB  UNL     1      -7.327   1.065 124.334  0.00  0.00    +0.000 C 
ATOM      9  CA  UNL     1      -7.289   2.412 124.404  0.00  0.00    +0.000 C 
ATOM     10  N   UNL     1      -7.220   3.040 125.619  0.00  0.00    +0.000 N 
ATOM     11  C   UNL     1      -7.918   4.090 126.123  0.00  0.00    +0.000 C 
ATOM     12  O   UNL     1      -8.543   4.947 125.554  0.00  0.00    +0.000 OA
ATOM     13  CA  UNL     1      -7.504   3.677 127.584  0.00  0.00    +0.000 C 
BRANCH   9  14
ATOM     14  C   UNL     1      -7.267   3.150 123.088  0.00  0.00    +0.000 C 
ATOM     15  OXT UNL     1      -6.233   3.373 122.473  0.00  0.00    +0.000 OA
BRANCH  14  16
ATOM     16  O   UNL     1      -8.448   3.643 122.665  0.00  0.00    +0.000 OA
ATOM     17  H   UNL     1      -8.836   4.351 123.215  0.00  0.00    +0.000 HD
ENDBRANCH  14  16
ENDBRANCH   9  14
ENDBRANCH   1  13
BRANCH   2  18
ATOM     18  C   UNL     1      -9.903   4.540 130.571  0.00  0.00    +0.000 C 
ATOM     19  C   UNL     1      -9.982   3.647 131.593  0.00  0.00    +0.000 C 
BRANCH  18  20
ATOM     20  C   UNL     1     -10.980   5.523 130.437  0.00  0.00    +0.000 A 
ATOM     21  C   UNL     1     -11.414   6.320 131.483  0.00  0.00    +0.000 A 
ATOM     22  S   UNL     1     -12.733   7.292 130.994  0.00  0.00    +0.000 S 
ATOM     23  C   UNL     1     -12.659   6.581 129.431  0.00  0.00    +0.000 A 
ATOM     24  N   UNL     1     -13.527   6.967 128.486  0.00  0.00    +0.000 N 
ATOM     25  N   UNL     1     -11.734   5.656 129.277  0.00  0.00    +0.000 NA
ATOM     26  H   UNL     1     -14.178   7.728 128.638  0.00  0.00    +0.000 HD
ATOM     27  H   UNL     1     -13.448   6.608 127.544  0.00  0.00    +0.000 HD
ENDBRANCH  18  20
BRANCH  19  28
ATOM     28  C   UNL     1      -8.991   2.598 131.980  0.00  0.00    +0.000 C 
BRANCH  28  29
ATOM     29  C   UNL     1      -8.978   1.203 131.402  0.00  0.00    +0.000 C 
ATOM     30  O   UNL     1      -9.684   0.325 131.881  0.00  0.00    +0.000 OA
BRANCH  29  31
ATOM     31  O   UNL     1      -8.182   0.979 130.347  0.00  0.00    +0.000 OA
ATOM     32  H   UNL     1      -8.382   0.204 129.800  0.00  0.00    +0.000 HD
ENDBRANCH  29  31
ENDBRANCH  28  29
ENDBRANCH  19  28
ENDBRANCH   2  18
TORSDOF 8
ENDMDL
MODEL 3
REMARK VINA RESULT:      -6.8      3.108      6.060
REMARK  Name = Ceftibuten
REMARK  8 active torsions:
REMARK  status: ('A' for Active; 'I' for Inactive)
REMARK    1  A    between atoms: CA_6  and  C_26
REMARK    2  A    between atoms: CA_10  and  N_11
REMARK    3  A    between atoms: C_12  and  C_14
REMARK    4  A    between atoms: C_14  and  C_20
REMARK    5  A    between atoms: C_15  and  C_16
REMARK    6  A    between atoms: C_16  and  C_17
REMARK    7  A    between atoms: C_17  and  O_18
REMARK    8  A    between atoms: C_26  and  O_27
REMARK                            x       y       z     vdW  Elec       q    Type
REMARK                         _______ _______ _______ _____ _____    ______ ____
ROOT
ATOM      1  N   UNL     1      -7.153   3.136 125.811  0.00  0.00    +0.000 N 
ATOM      2  C   UNL     1      -8.096   3.615 124.909  0.00  0.00    +0.000 C 
ATOM      3  O   UNL     1      -8.758   4.606 125.209  0.00  0.00    +0.000 OA
ATOM      4  H   UNL     1      -6.617   2.306 125.667  0.00  0.00    +0.000 HD
ENDROOT
BRANCH   1  13
ATOM      5  CE  UNL     1      -6.172   3.011 128.227  0.00  0.00    +0.000 C 
ATOM      6  SD  UNL     1      -5.338   1.440 127.817  0.00  0.00    +0.000 S 
ATOM      7  CG  UNL     1      -4.375   1.450 129.371  0.00  0.00    +0.000 C 
ATOM      8  CB  UNL     1      -3.632   2.740 129.545  0.00  0.00    +0.000 C 
ATOM      9  CA  UNL     1      -3.974   3.927 129.005  0.00  0.00    +0.000 C 
ATOM     10  N   UNL     1      -5.159   4.065 128.331  0.00  0.00    +0.000 N 
ATOM     11  C   UNL     1      -5.443   4.634 127.131  0.00  0.00    +0.000 C 
ATOM     12  O   UNL     1      -4.819   5.440 126.491  0.00  0.00    +0.000 OA
ATOM     13  CA  UNL     1      -6.802   3.843 127.067  0.00  0.00    +0.000 C 
BRANCH   9  14
ATOM     14  C   UNL     1      -3.018   5.070 129.240  0.00  0.00    +0.000 C 
ATOM     15  OXT UNL     1      -2.990   5.703 130.288  0.00  0.00    +0.000 OA
BRANCH  14  16
ATOM     16  O   UNL     1      -2.253   5.429 128.191  0.00  0.00    +0.000 OA
ATOM     17  H   UNL     1      -2.708   5.917 127.477  0.00  0.00    +0.000 HD
ENDBRANCH  14  16
ENDBRANCH   9  14
ENDBRANCH   1  13
BRANCH   2  18
ATOM     18  C   UNL     1      -8.317   2.884 123.574  0.00  0.00    +0.000 C 
ATOM     19  C   UNL     1      -9.233   1.894 123.402  0.00  0.00    +0.000 C 
BRANCH  18  20
ATOM     20  C   UNL     1      -7.547   3.314 122.404  0.00  0.00    +0.000 A 
ATOM     21  C   UNL     1      -6.183   3.550 122.439  0.00  0.00    +0.000 A 
ATOM     22  S   UNL     1      -5.629   4.110 120.922  0.00  0.00    +0.000 S 
ATOM     23  C   UNL     1      -7.235   4.024 120.319  0.00  0.00    +0.000 A 
ATOM     24  N   UNL     1      -7.486   4.370 119.049  0.00  0.00    +0.000 N 
ATOM     25  N   UNL     1      -8.143   3.632 121.189  0.00  0.00    +0.000 NA
ATOM     26  H   UNL     1      -6.742   4.605 118.403  0.00  0.00    +0.000 HD
ATOM     27  H   UNL     1      -8.414   4.257 118.663  0.00  0.00    +0.000 HD
ENDBRANCH  18  20
BRANCH  19  28
ATOM     28  C   UNL     1     -10.180   1.329 124.409  0.00  0.00    +0.000 C 
BRANCH  28  29
ATOM     29  C   UNL     1      -9.742   0.545 125.624  0.00  0.00    +0.000 C 
ATOM     30  O   UNL     1      -9.382   1.124 126.641  0.00  0.00    +0.000 OA
BRANCH  29  31
ATOM     31  O   UNL     1      -9.779  -0.792 125.543  0.00  0.00    +0.000 OA
ATOM     32  H   UNL     1      -8.971  -1.272 125.783  0.00  0.00    +0.000 HD
ENDBRANCH  29  31
ENDBRANCH  28  29
ENDBRANCH  19  28
ENDBRANCH   2  18
TORSDOF 8
ENDMDL
MODEL 4
REMARK VINA RESULT:      -6.7      5.226      7.478
REMARK  Name = Ceftibuten
REMARK  8 active torsions:
REMARK  status: ('A' for Active; 'I' for Inactive)
REMARK    1  A    between atoms: CA_6  and  C_26
REMARK    2  A    between atoms: CA_10  and  N_11
REMARK    3  A    between atoms: C_12  and  C_14
REMARK    4  A    between atoms: C_14  and  C_20
REMARK    5  A    between atoms: C_15  and  C_16
REMARK    6  A    between atoms: C_16  and  C_17
REMARK    7  A    between atoms: C_17  and  O_18
REMARK    8  A    between atoms: C_26  and  O_27
REMARK                            x       y       z     vdW  Elec       q    Type
REMARK                         _______ _______ _______ _____ _____    ______ ____
ROOT
ATOM      1  N   UNL     1      -7.639   3.933 127.644  0.00  0.00    +0.000 N 
ATOM      2  C   UNL     1      -7.517   4.643 128.832  0.00  0.00    +0.000 C 
ATOM      3  O   UNL     1      -6.401   5.011 129.194  0.00  0.00    +0.000 OA
ATOM      4  H   UNL     1      -8.500   3.551 127.311  0.00  0.00    +0.000 HD
ENDROOT
BRANCH   1  13
ATOM      5  CE  UNL     1      -6.619   2.545 125.683  0.00  0.00    +0.000 C 
ATOM      6  SD  UNL     1      -8.280   1.934 125.239  0.00  0.00    +0.000 S 
ATOM      7  CG  UNL     1      -7.683   1.197 123.676  0.00  0.00    +0.000 C 
ATOM      8  CB  UNL     1      -6.941   2.201 122.847  0.00  0.00    +0.000 C 
ATOM      9  CA  UNL     1      -6.308   3.297 123.314  0.00  0.00    +0.000 C 
ATOM     10  N   UNL     1      -6.186   3.504 124.663  0.00  0.00    +0.000 N 
ATOM     11  C   UNL     1      -6.410   4.608 125.421  0.00  0.00    +0.000 C 
ATOM     12  O   UNL     1      -6.460   5.767 125.102  0.00  0.00    +0.000 OA
ATOM     13  CA  UNL     1      -6.507   3.712 126.712  0.00  0.00    +0.000 C 
BRANCH   9  14
ATOM     14  C   UNL     1      -5.711   4.218 122.279  0.00  0.00    +0.000 C 
ATOM     15  OXT UNL     1      -4.641   4.791 122.443  0.00  0.00    +0.000 OA
BRANCH  14  16
ATOM     16  O   UNL     1      -6.468   4.457 121.190  0.00  0.00    +0.000 OA
ATOM     17  H   UNL     1      -6.222   3.964 120.383  0.00  0.00    +0.000 HD
ENDBRANCH  14  16
ENDBRANCH   9  14
ENDBRANCH   1  13
BRANCH   2  18
ATOM     18  C   UNL     1      -8.764   4.928 129.686  0.00  0.00    +0.000 C 
ATOM     19  C   UNL     1      -9.057   4.263 130.835  0.00  0.00    +0.000 C 
BRANCH  18  20
ATOM     20  C   UNL     1      -9.659   6.014 129.279  0.00  0.00    +0.000 A 
ATOM     21  C   UNL     1     -10.524   6.653 130.152  0.00  0.00    +0.000 A 
ATOM     22  S   UNL     1     -11.470   7.811 129.324  0.00  0.00    +0.000 S 
ATOM     23  C   UNL     1     -10.687   7.381 127.857  0.00  0.00    +0.000 A 
ATOM     24  N   UNL     1     -11.023   8.004 126.719  0.00  0.00    +0.000 N 
ATOM     25  N   UNL     1      -9.795   6.417 127.956  0.00  0.00    +0.000 NA
ATOM     26  H   UNL     1     -11.671   8.784 126.709  0.00  0.00    +0.000 HD
ATOM     27  H   UNL     1     -10.521   7.809 125.863  0.00  0.00    +0.000 HD
ENDBRANCH  18  20
BRANCH  19  28
ATOM     28  C   UNL     1      -8.275   3.173 131.494  0.00  0.00    +0.000 C 
BRANCH  28  29
ATOM     29  C   UNL     1      -8.713   2.476 132.760  0.00  0.00    +0.000 C 
ATOM     30  O   UNL     1      -8.118   1.483 133.160  0.00  0.00    +0.000 OA
BRANCH  29  31
ATOM     31  O   UNL     1      -9.755   2.995 133.423  0.00  0.00    +0.000 OA
ATOM     32  H   UNL     1     -10.399   2.372 133.792  0.00  0.00    +0.000 HD
ENDBRANCH  29  31
ENDBRANCH  28  29
ENDBRANCH  19  28
ENDBRANCH   2  18
TORSDOF 8
ENDMDL
MODEL 5
REMARK VINA RESULT:      -6.7      3.145      7.843
REMARK  Name = Ceftibuten
REMARK  8 active torsions:
REMARK  status: ('A' for Active; 'I' for Inactive)
REMARK    1  A    between atoms: CA_6  and  C_26
REMARK    2  A    between atoms: CA_10  and  N_11
REMARK    3  A    between atoms: C_12  and  C_14
REMARK    4  A    between atoms: C_14  and  C_20
REMARK    5  A    between atoms: C_15  and  C_16
REMARK    6  A    between atoms: C_16  and  C_17
REMARK    7  A    between atoms: C_17  and  O_18
REMARK    8  A    between atoms: C_26  and  O_27
REMARK                            x       y       z     vdW  Elec       q    Type
REMARK                         _______ _______ _______ _____ _____    ______ ____
ROOT
ATOM      1  N   UNL     1      -8.043   0.203 126.123  0.00  0.00    +0.000 N 
ATOM      2  C   UNL     1      -8.821  -0.949 126.141  0.00  0.00    +0.000 C 
ATOM      3  O   UNL     1      -9.961  -0.905 125.683  0.00  0.00    +0.000 OA
ATOM      4  H   UNL     1      -7.132   0.265 126.526  0.00  0.00    +0.000 HD
ENDROOT
BRANCH   1  13
ATOM      5  CE  UNL     1      -7.454   2.641 125.402  0.00  0.00    +0.000 C 
ATOM      6  SD  UNL     1      -5.675   2.275 125.581  0.00  0.00    +0.000 S 
ATOM      7  CG  UNL     1      -5.186   3.849 124.792  0.00  0.00    +0.000 C 
ATOM      8  CB  UNL     1      -5.847   4.020 123.457  0.00  0.00    +0.000 C 
ATOM      9  CA  UNL     1      -7.009   3.453 123.074  0.00  0.00    +0.000 C 
ATOM     10  N   UNL     1      -7.766   2.751 123.974  0.00  0.00    +0.000 N 
ATOM     11  C   UNL     1      -8.367   1.536 123.881  0.00  0.00    +0.000 C 
ATOM     12  O   UNL     1      -8.672   0.898 122.908  0.00  0.00    +0.000 OA
ATOM     13  CA  UNL     1      -8.467   1.455 125.449  0.00  0.00    +0.000 C 
BRANCH   9  14
ATOM     14  C   UNL     1      -7.431   3.691 121.645  0.00  0.00    +0.000 C 
ATOM     15  OXT UNL     1      -6.628   3.892 120.743  0.00  0.00    +0.000 OA
BRANCH  14  16
ATOM     16  O   UNL     1      -8.758   3.767 121.424  0.00  0.00    +0.000 OA
ATOM     17  H   UNL     1      -9.197   4.581 121.739  0.00  0.00    +0.000 HD
ENDBRANCH  14  16
ENDBRANCH   9  14
ENDBRANCH   1  13
BRANCH   2  18
ATOM     18  C   UNL     1      -8.261  -2.241 126.760  0.00  0.00    +0.000 C 
ATOM     19  C   UNL     1      -8.026  -3.375 126.047  0.00  0.00    +0.000 C 
BRANCH  18  20
ATOM     20  C   UNL     1      -7.901  -2.240 128.180  0.00  0.00    +0.000 A 
ATOM     21  C   UNL     1      -7.824  -3.392 128.944  0.00  0.00    +0.000 A 
ATOM     22  S   UNL     1      -7.457  -3.014 130.570  0.00  0.00    +0.000 S 
ATOM     23  C   UNL     1      -7.441  -1.345 130.164  0.00  0.00    +0.000 A 
ATOM     24  N   UNL     1      -7.183  -0.434 131.112  0.00  0.00    +0.000 N 
ATOM     25  N   UNL     1      -7.719  -1.069 128.906  0.00  0.00    +0.000 NA
ATOM     26  H   UNL     1      -6.913  -0.703 132.051  0.00  0.00    +0.000 HD
ATOM     27  H   UNL     1      -7.101   0.545 130.870  0.00  0.00    +0.000 HD
ENDBRANCH  18  20
BRANCH  19  28
ATOM     28  C   UNL     1      -8.241  -3.607 124.587  0.00  0.00    +0.000 C 
BRANCH  28  29
ATOM     29  C   UNL     1      -7.693  -2.706 123.506  0.00  0.00    +0.000 C 
ATOM     30  O   UNL     1      -6.484  -2.585 123.351  0.00  0.00    +0.000 OA
BRANCH  29  31
ATOM     31  O   UNL     1      -8.576  -2.067 122.727  0.00  0.00    +0.000 OA
ATOM     32  H   UNL     1      -8.865  -1.187 123.016  0.00  0.00    +0.000 HD
ENDBRANCH  29  31
ENDBRANCH  28  29
ENDBRANCH  19  28
ENDBRANCH   2  18
TORSDOF 8
ENDMDL
MODEL 6
REMARK VINA RESULT:      -6.7      3.773      5.809
REMARK  Name = Ceftibuten
REMARK  8 active torsions:
REMARK  status: ('A' for Active; 'I' for Inactive)
REMARK    1  A    between atoms: CA_6  and  C_26
REMARK    2  A    between atoms: CA_10  and  N_11
REMARK    3  A    between atoms: C_12  and  C_14
REMARK    4  A    between atoms: C_14  and  C_20
REMARK    5  A    between atoms: C_15  and  C_16
REMARK    6  A    between atoms: C_16  and  C_17
REMARK    7  A    between atoms: C_17  and  O_18
REMARK    8  A    between atoms: C_26  and  O_27
REMARK                            x       y       z     vdW  Elec       q    Type
REMARK                         _______ _______ _______ _____ _____    ______ ____
ROOT
ATOM      1  N   UNL     1      -5.794   3.030 126.199  0.00  0.00    +0.000 N 
ATOM      2  C   UNL     1      -5.633   4.281 126.782  0.00  0.00    +0.000 C 
ATOM      3  O   UNL     1      -5.976   5.281 126.153  0.00  0.00    +0.000 OA
ATOM      4  H   UNL     1      -5.489   2.178 126.620  0.00  0.00    +0.000 HD
ENDROOT
BRANCH   1  13
ATOM      5  CE  UNL     1      -6.550   1.374 124.329  0.00  0.00    +0.000 C 
ATOM      6  SD  UNL     1      -6.357  -0.029 125.480  0.00  0.00    +0.000 S 
ATOM      7  CG  UNL     1      -7.169  -1.193 124.328  0.00  0.00    +0.000 C 
ATOM      8  CB  UNL     1      -8.509  -0.683 123.890  0.00  0.00    +0.000 C 
ATOM      9  CA  UNL     1      -8.889   0.610 123.856  0.00  0.00    +0.000 C 
ATOM     10  N   UNL     1      -7.981   1.605 124.109  0.00  0.00    +0.000 N 
ATOM     11  C   UNL     1      -8.058   2.702 124.905  0.00  0.00    +0.000 C 
ATOM     12  O   UNL     1      -9.022   3.273 125.343  0.00  0.00    +0.000 OA
ATOM     13  CA  UNL     1      -6.488   2.823 124.905  0.00  0.00    +0.000 C 
BRANCH   9  14
ATOM     14  C   UNL     1     -10.323   0.878 123.471  0.00  0.00    +0.000 C 
ATOM     15  OXT UNL     1     -10.783   0.566 122.380  0.00  0.00    +0.000 OA
BRANCH  14  16
ATOM     16  O   UNL     1     -11.056   1.572 124.363  0.00  0.00    +0.000 OA
ATOM     17  H   UNL     1     -11.004   2.545 124.292  0.00  0.00    +0.000 HD
ENDBRANCH  14  16
ENDBRANCH   9  14
ENDBRANCH   1  13
BRANCH   2  18
ATOM     18  C   UNL     1      -5.005   4.399 128.182  0.00  0.00    +0.000 C 
ATOM     19  C   UNL     1      -3.665   4.376 128.409  0.00  0.00    +0.000 C 
BRANCH  18  20
ATOM     20  C   UNL     1      -5.889   4.609 129.331  0.00  0.00    +0.000 A 
ATOM     21  C   UNL     1      -6.509   3.574 130.011  0.00  0.00    +0.000 A 
ATOM     22  S   UNL     1      -7.526   4.184 131.242  0.00  0.00    +0.000 S 
ATOM     23  C   UNL     1      -7.096   5.784 130.785  0.00  0.00    +0.000 A 
ATOM     24  N   UNL     1      -7.618   6.825 131.446  0.00  0.00    +0.000 N 
ATOM     25  N   UNL     1      -6.270   5.874 129.762  0.00  0.00    +0.000 NA
ATOM     26  H   UNL     1      -8.199   6.699 132.267  0.00  0.00    +0.000 HD
ATOM     27  H   UNL     1      -7.319   7.767 131.233  0.00  0.00    +0.000 HD
ENDBRANCH  18  20
BRANCH  19  28
ATOM     28  C   UNL     1      -2.563   4.244 127.408  0.00  0.00    +0.000 C 
BRANCH  28  29
ATOM     29  C   UNL     1      -2.123   2.927 126.814  0.00  0.00    +0.000 C 
ATOM     30  O   UNL     1      -0.933   2.672 126.680  0.00  0.00    +0.000 OA
BRANCH  29  31
ATOM     31  O   UNL     1      -3.080   2.059 126.459  0.00  0.00    +0.000 OA
ATOM     32  H   UNL     1      -3.249   1.317 127.059  0.00  0.00    +0.000 HD
ENDBRANCH  29  31
ENDBRANCH  28  29
ENDBRANCH  19  28
ENDBRANCH   2  18
TORSDOF 8
ENDMDL
MODEL 7
REMARK VINA RESULT:      -6.7      4.952      6.742
REMARK  Name = Ceftibuten
REMARK  8 active torsions:
REMARK  status: ('A' for Active; 'I' for Inactive)
REMARK    1  A    between atoms: CA_6  and  C_26
REMARK    2  A    between atoms: CA_10  and  N_11
REMARK    3  A    between atoms: C_12  and  C_14
REMARK    4  A    between atoms: C_14  and  C_20
REMARK    5  A    between atoms: C_15  and  C_16
REMARK    6  A    between atoms: C_16  and  C_17
REMARK    7  A    between atoms: C_17  and  O_18
REMARK    8  A    between atoms: C_26  and  O_27
REMARK                            x       y       z     vdW  Elec       q    Type
REMARK                         _______ _______ _______ _____ _____    ______ ____
ROOT
ATOM      1  N   UNL     1      -7.126   3.655 128.021  0.00  0.00    +0.000 N 
ATOM      2  C   UNL     1      -6.260   2.850 127.292  0.00  0.00    +0.000 C 
ATOM      3  O   UNL     1      -5.764   1.864 127.835  0.00  0.00    +0.000 OA
ATOM      4  H   UNL     1      -7.524   4.502 127.672  0.00  0.00    +0.000 HD
ENDROOT
BRANCH   1  13
ATOM      5  CE  UNL     1      -6.833   3.920 130.601  0.00  0.00    +0.000 C 
ATOM      6  SD  UNL     1      -5.863   5.444 130.345  0.00  0.00    +0.000 S 
ATOM      7  CG  UNL     1      -5.886   5.858 132.125  0.00  0.00    +0.000 C 
ATOM      8  CB  UNL     1      -7.284   5.870 132.665  0.00  0.00    +0.000 C 
ATOM      9  CA  UNL     1      -8.331   5.187 132.160  0.00  0.00    +0.000 C 
ATOM     10  N   UNL     1      -8.145   4.288 131.143  0.00  0.00    +0.000 N 
ATOM     11  C   UNL     1      -8.821   4.102 129.980  0.00  0.00    +0.000 C 
ATOM     12  O   UNL     1      -9.933   4.441 129.670  0.00  0.00    +0.000 OA
ATOM     13  CA  UNL     1      -7.597   3.311 129.385  0.00  0.00    +0.000 C 
BRANCH   9  14
ATOM     14  C   UNL     1      -9.669   5.430 132.814  0.00  0.00    +0.000 C 
ATOM     15  OXT UNL     1     -10.319   6.452 132.629  0.00  0.00    +0.000 OA
BRANCH  14  16
ATOM     16  O   UNL     1     -10.075   4.499 133.698  0.00  0.00    +0.000 OA
ATOM     17  H   UNL     1     -10.648   4.819 134.422  0.00  0.00    +0.000 HD
ENDBRANCH  14  16
ENDBRANCH   9  14
ENDBRANCH   1  13
BRANCH   2  18
ATOM     18  C   UNL     1      -5.911   3.218 125.840  0.00  0.00    +0.000 C 
ATOM     19  C   UNL     1      -4.704   3.715 125.460  0.00  0.00    +0.000 C 
BRANCH  18  20
ATOM     20  C   UNL     1      -6.906   2.967 124.795  0.00  0.00    +0.000 A 
ATOM     21  C   UNL     1      -6.714   3.307 123.466  0.00  0.00    +0.000 A 
ATOM     22  S   UNL     1      -8.106   2.941 122.543  0.00  0.00    +0.000 S 
ATOM     23  C   UNL     1      -8.883   2.372 123.965  0.00  0.00    +0.000 A 
ATOM     24  N   UNL     1     -10.134   1.899 123.893  0.00  0.00    +0.000 N 
ATOM     25  N   UNL     1      -8.174   2.469 125.072  0.00  0.00    +0.000 NA
ATOM     26  H   UNL     1     -10.612   1.787 123.006  0.00  0.00    +0.000 HD
ATOM     27  H   UNL     1     -10.576   1.497 124.709  0.00  0.00    +0.000 HD
ENDBRANCH  18  20
BRANCH  19  28
ATOM     28  C   UNL     1      -3.511   3.993 126.315  0.00  0.00    +0.000 C 
BRANCH  28  29
ATOM     29  C   UNL     1      -2.547   2.928 126.780  0.00  0.00    +0.000 C 
ATOM     30  O   UNL     1      -1.487   2.749 126.194  0.00  0.00    +0.000 OA
BRANCH  29  31
ATOM     31  O   UNL     1      -2.893   2.210 127.857  0.00  0.00    +0.000 OA
ATOM     32  H   UNL     1      -3.351   1.370 127.700  0.00  0.00    +0.000 HD
ENDBRANCH  29  31
ENDBRANCH  28  29
ENDBRANCH  19  28
ENDBRANCH   2  18
TORSDOF 8
ENDMDL
MODEL 8
REMARK VINA RESULT:      -6.6      8.093      9.899
REMARK  Name = Ceftibuten
REMARK  8 active torsions:
REMARK  status: ('A' for Active; 'I' for Inactive)
REMARK    1  A    between atoms: CA_6  and  C_26
REMARK    2  A    between atoms: CA_10  and  N_11
REMARK    3  A    between atoms: C_12  and  C_14
REMARK    4  A    between atoms: C_14  and  C_20
REMARK    5  A    between atoms: C_15  and  C_16
REMARK    6  A    between atoms: C_16  and  C_17
REMARK    7  A    between atoms: C_17  and  O_18
REMARK    8  A    between atoms: C_26  and  O_27
REMARK                            x       y       z     vdW  Elec       q    Type
REMARK                         _______ _______ _______ _____ _____    ______ ____
ROOT
ATOM      1  N   UNL     1      -7.449   5.649 131.078  0.00  0.00    +0.000 N 
ATOM      2  C   UNL     1      -8.734   5.773 131.592  0.00  0.00    +0.000 C 
ATOM      3  O   UNL     1      -8.892   6.342 132.671  0.00  0.00    +0.000 OA
ATOM      4  H   UNL     1      -7.231   5.153 130.240  0.00  0.00    +0.000 HD
ENDROOT
BRANCH   1  13
ATOM      5  CE  UNL     1      -5.264   5.386 132.481  0.00  0.00    +0.000 C 
ATOM      6  SD  UNL     1      -5.221   3.602 132.099  0.00  0.00    +0.000 S 
ATOM      7  CG  UNL     1      -3.542   3.409 132.794  0.00  0.00    +0.000 C 
ATOM      8  CB  UNL     1      -2.583   4.389 132.189  0.00  0.00    +0.000 C 
ATOM      9  CA  UNL     1      -2.910   5.579 131.645  0.00  0.00    +0.000 C 
ATOM     10  N   UNL     1      -4.193   6.050 131.731  0.00  0.00    +0.000 N 
ATOM     11  C   UNL     1      -5.012   6.591 130.792  0.00  0.00    +0.000 C 
ATOM     12  O   UNL     1      -4.745   7.095 129.733  0.00  0.00    +0.000 OA
ATOM     13  CA  UNL     1      -6.264   6.292 131.697  0.00  0.00    +0.000 C 
BRANCH   9  14
ATOM     14  C   UNL     1      -1.785   6.356 131.008  0.00  0.00    +0.000 C 
ATOM     15  OXT UNL     1      -0.929   6.937 131.663  0.00  0.00    +0.000 OA
BRANCH  14  16
ATOM     16  O   UNL     1      -1.822   6.461 129.665  0.00  0.00    +0.000 OA
ATOM     17  H   UNL     1      -1.108   6.989 129.259  0.00  0.00    +0.000 HD
ENDBRANCH  14  16
ENDBRANCH   9  14
ENDBRANCH   1  13
BRANCH   2  18
ATOM     18  C   UNL     1      -9.926   5.174 130.826  0.00  0.00    +0.000 C 
ATOM     19  C   UNL     1     -10.273   3.861 130.884  0.00  0.00    +0.000 C 
BRANCH  18  20
ATOM     20  C   UNL     1     -10.775   6.071 130.038  0.00  0.00    +0.000 A 
ATOM     21  C   UNL     1     -12.121   5.838 129.812  0.00  0.00    +0.000 A 
ATOM     22  S   UNL     1     -12.778   7.041 128.791  0.00  0.00    +0.000 S 
ATOM     23  C   UNL     1     -11.232   7.785 128.696  0.00  0.00    +0.000 A 
ATOM     24  N   UNL     1     -11.075   8.896 127.964  0.00  0.00    +0.000 N 
ATOM     25  N   UNL     1     -10.270   7.171 129.354  0.00  0.00    +0.000 NA
ATOM     26  H   UNL     1     -11.861   9.364 127.528  0.00  0.00    +0.000 HD
ATOM     27  H   UNL     1     -10.188   9.381 127.958  0.00  0.00    +0.000 HD
ENDBRANCH  18  20
BRANCH  19  28
ATOM     28  C   UNL     1      -9.618   2.767 131.664  0.00  0.00    +0.000 C 
BRANCH  28  29
ATOM     29  C   UNL     1      -9.254   2.883 133.125  0.00  0.00    +0.000 C 
ATOM     30  O   UNL     1      -8.288   2.280 133.575  0.00  0.00    +0.000 OA
BRANCH  29  31
ATOM     31  O   UNL     1     -10.017   3.674 133.892  0.00  0.00    +0.000 OA
ATOM     32  H   UNL     1      -9.562   4.233 134.541  0.00  0.00    +0.000 HD
ENDBRANCH  29  31
ENDBRANCH  28  29
ENDBRANCH  19  28
ENDBRANCH   2  18
TORSDOF 8
ENDMDL
MODEL 9
REMARK VINA RESULT:      -6.6      5.911      8.115
REMARK  Name = Ceftibuten
REMARK  8 active torsions:
REMARK  status: ('A' for Active; 'I' for Inactive)
REMARK    1  A    between atoms: CA_6  and  C_26
REMARK    2  A    between atoms: CA_10  and  N_11
REMARK    3  A    between atoms: C_12  and  C_14
REMARK    4  A    between atoms: C_14  and  C_20
REMARK    5  A    between atoms: C_15  and  C_16
REMARK    6  A    between atoms: C_16  and  C_17
REMARK    7  A    between atoms: C_17  and  O_18
REMARK    8  A    between atoms: C_26  and  O_27
REMARK                            x       y       z     vdW  Elec       q    Type
REMARK                         _______ _______ _______ _____ _____    ______ ____
ROOT
ATOM      1  N   UNL     1      -7.461   4.881 129.706  0.00  0.00    +0.000 N 
ATOM      2  C   UNL     1      -8.713   4.521 130.191  0.00  0.00    +0.000 C 
ATOM      3  O   UNL     1      -9.008   3.328 130.250  0.00  0.00    +0.000 OA
ATOM      4  H   UNL     1      -7.168   5.827 129.574  0.00  0.00    +0.000 HD
ENDROOT
BRANCH   1  13
ATOM      5  CE  UNL     1      -6.304   3.378 127.914  0.00  0.00    +0.000 C 
ATOM      6  SD  UNL     1      -7.012   4.405 126.582  0.00  0.00    +0.000 S 
ATOM      7  CG  UNL     1      -5.990   3.595 125.301  0.00  0.00    +0.000 C 
ATOM      8  CB  UNL     1      -4.535   3.627 125.661  0.00  0.00    +0.000 C 
ATOM      9  CA  UNL     1      -4.034   3.715 126.910  0.00  0.00    +0.000 C 
ATOM     10  N   UNL     1      -4.866   3.647 127.996  0.00  0.00    +0.000 N 
ATOM     11  C   UNL     1      -4.944   4.418 129.112  0.00  0.00    +0.000 C 
ATOM     12  O   UNL     1      -4.125   5.150 129.604  0.00  0.00    +0.000 OA
ATOM     13  CA  UNL     1      -6.403   3.894 129.383  0.00  0.00    +0.000 C 
BRANCH   9  14
ATOM     14  C   UNL     1      -2.534   3.830 127.023  0.00  0.00    +0.000 C 
ATOM     15  OXT UNL     1      -1.779   2.899 126.769  0.00  0.00    +0.000 OA
BRANCH  14  16
ATOM     16  O   UNL     1      -2.063   4.992 127.515  0.00  0.00    +0.000 OA
ATOM     17  H   UNL     1      -2.641   5.449 128.157  0.00  0.00    +0.000 HD
ENDBRANCH  14  16
ENDBRANCH   9  14
ENDBRANCH   1  13
BRANCH   2  18
ATOM     18  C   UNL     1      -9.714   5.610 130.613  0.00  0.00    +0.000 C 
ATOM     19  C   UNL     1      -9.828   6.073 131.886  0.00  0.00    +0.000 C 
BRANCH  18  20
ATOM     20  C   UNL     1     -10.551   6.229 129.583  0.00  0.00    +0.000 A 
ATOM     21  C   UNL     1     -11.925   6.358 129.698  0.00  0.00    +0.000 A 
ATOM     22  S   UNL     1     -12.586   7.053 128.283  0.00  0.00    +0.000 S 
ATOM     23  C   UNL     1     -11.011   7.122 127.598  0.00  0.00    +0.000 A 
ATOM     24  N   UNL     1     -10.845   7.625 126.368  0.00  0.00    +0.000 N 
ATOM     25  N   UNL     1     -10.048   6.635 128.353  0.00  0.00    +0.000 NA
ATOM     26  H   UNL     1     -11.612   8.045 125.854  0.00  0.00    +0.000 HD
ATOM     27  H   UNL     1      -9.917   7.736 125.983  0.00  0.00    +0.000 HD
ENDBRANCH  18  20
BRANCH  19  28
ATOM     28  C   UNL     1      -9.049   5.658 133.092  0.00  0.00    +0.000 C 
BRANCH  28  29
ATOM     29  C   UNL     1      -9.057   4.256 133.654  0.00  0.00    +0.000 C 
ATOM     30  O   UNL     1      -8.238   3.921 134.500  0.00  0.00    +0.000 OA
BRANCH  29  31
ATOM     31  O   UNL     1      -9.997   3.415 133.202  0.00  0.00    +0.000 OA
ATOM     32  H   UNL     1     -10.050   3.285 132.242  0.00  0.00    +0.000 HD
ENDBRANCH  29  31
ENDBRANCH  28  29
ENDBRANCH  19  28
ENDBRANCH   2  18
TORSDOF 8
ENDMDL
