MODEL 1
REMARK VINA RESULT:      -8.4      0.000      0.000
REMARK  Name = Celecoxib
REMARK  6 active torsions:
REMARK  status: ('A' for Active; 'I' for Inactive)
REMARK    1  A    between atoms: C_1  and  C_2
REMARK    2  A    between atoms: C_5  and  C_8
REMARK    3  A    between atoms: C_10  and  C_23
REMARK    4  A    between atoms: N_12  and  C_13
REMARK    5  A    between atoms: C_16  and  S_19
REMARK    6  A    between atoms: S_19  and  N_20
REMARK                            x       y       z     vdW  Elec       q    Type
REMARK                         _______ _______ _______ _____ _____    ______ ____
ROOT
ATOM      1  C   UNL     1      -6.000   3.207 124.122  0.00  0.00    +0.000 A 
ATOM      2  C   UNL     1      -5.096   4.062 124.713  0.00  0.00    +0.000 A 
ATOM      3  C   UNL     1      -4.740   3.463 125.942  0.00  0.00    +0.000 A 
ATOM      4  N   UNL     1      -5.447   2.333 126.146  0.00  0.00    +0.000 NA
ATOM      5  N   UNL     1      -6.167   2.157 125.006  0.00  0.00    +0.000 N 
ENDROOT
BRANCH   1  10
ATOM      6  C   UNL     1      -8.865   4.037 119.214  0.00  0.00    +0.000 C 
ATOM      7  C   UNL     1      -8.128   3.792 120.494  0.00  0.00    +0.000 A 
ATOM      8  C   UNL     1      -8.806   3.355 121.638  0.00  0.00    +0.000 A 
ATOM      9  C   UNL     1      -8.112   3.155 122.828  0.00  0.00    +0.000 A 
ATOM     10  C   UNL     1      -6.733   3.387 122.882  0.00  0.00    +0.000 A 
ATOM     11  C   UNL     1      -6.053   3.818 121.741  0.00  0.00    +0.000 A 
ATOM     12  C   UNL     1      -6.747   4.016 120.552  0.00  0.00    +0.000 A 
ENDBRANCH   1  10
BRANCH   5  13
ATOM     13  C   UNL     1      -6.887   0.951 124.813  0.00  0.00    +0.000 A 
ATOM     14  C   UNL     1      -8.036   0.714 125.577  0.00  0.00    +0.000 A 
ATOM     15  C   UNL     1      -8.674  -0.526 125.501  0.00  0.00    +0.000 A 
ATOM     16  C   UNL     1      -8.186  -1.504 124.625  0.00  0.00    +0.000 A 
ATOM     17  C   UNL     1      -7.049  -1.262 123.848  0.00  0.00    +0.000 A 
ATOM     18  C   UNL     1      -6.406  -0.023 123.928  0.00  0.00    +0.000 A 
BRANCH  16  19
ATOM     19  S   UNL     1      -9.098  -3.015 124.408  0.00  0.00    +0.000 S 
ATOM     20  O   UNL     1      -9.935  -2.845 123.240  0.00  0.00    +0.000 OA
ATOM     21  O   UNL     1      -8.193  -4.124 124.567  0.00  0.00    +0.000 OA
BRANCH  19  22
ATOM     22  N   UNL     1     -10.099  -3.018 125.738  0.00  0.00    +0.000 NA
ATOM     23  H   UNL     1     -11.070  -3.257 125.575  0.00  0.00    +0.000 HD
ATOM     24  H   UNL     1      -9.832  -2.408 126.504  0.00  0.00    +0.000 HD
ENDBRANCH  19  22
ENDBRANCH  16  19
ENDBRANCH   5  13
BRANCH   3  25
ATOM     25  C   UNL     1      -3.744   4.016 126.926  0.00  0.00    +0.000 C 
ATOM     26  F   UNL     1      -3.928   5.339 127.167  0.00  0.00    +0.000 F 
ATOM     27  F   UNL     1      -3.782   3.376 128.124  0.00  0.00    +0.000 F 
ATOM     28  F   UNL     1      -2.467   3.884 126.465  0.00  0.00    +0.000 F 
ENDBRANCH   3  25
TORSDOF 5
ENDMDL
MODEL 2
REMARK VINA RESULT:      -8.1      8.747     10.726
REMARK  Name = Celecoxib
REMARK  6 active torsions:
REMARK  status: ('A' for Active; 'I' for Inactive)
REMARK    1  A    between atoms: C_1  and  C_2
REMARK    2  A    between atoms: C_5  and  C_8
REMARK    3  A    between atoms: C_10  and  C_23
REMARK    4  A    between atoms: N_12  and  C_13
REMARK    5  A    between atoms: C_16  and  S_19
REMARK    6  A    between atoms: S_19  and  N_20
REMARK                            x       y       z     vdW  Elec       q    Type
REMARK                         _______ _______ _______ _____ _____    ______ ____
ROOT
ATOM      1  C   UNL     1     -10.244   4.747 130.885  0.00  0.00    +0.000 A 
ATOM      2  C   UNL     1     -11.494   5.164 130.484  0.00  0.00    +0.000 A 
ATOM      3  C   UNL     1     -11.589   6.523 130.859  0.00  0.00    +0.000 A 
ATOM      4  N   UNL     1     -10.486   6.912 131.531  0.00  0.00    +0.000 NA
ATOM      5  N   UNL     1      -9.652   5.839 131.490  0.00  0.00    +0.000 N 
ENDROOT
BRANCH   1  10
ATOM      6  C   UNL     1      -7.917  -0.501 130.679  0.00  0.00    +0.000 C 
ATOM      7  C   UNL     1      -8.537   0.862 130.706  0.00  0.00    +0.000 A 
ATOM      8  C   UNL     1      -8.324   1.767 129.660  0.00  0.00    +0.000 A 
ATOM      9  C   UNL     1      -8.886   3.039 129.711  0.00  0.00    +0.000 A 
ATOM     10  C   UNL     1      -9.671   3.415 130.807  0.00  0.00    +0.000 A 
ATOM     11  C   UNL     1      -9.890   2.513 131.849  0.00  0.00    +0.000 A 
ATOM     12  C   UNL     1      -9.328   1.241 131.797  0.00  0.00    +0.000 A 
ENDBRANCH   1  10
BRANCH   5  13
ATOM     13  C   UNL     1      -8.317   5.973 131.951  0.00  0.00    +0.000 A 
ATOM     14  C   UNL     1      -7.366   6.572 131.118  0.00  0.00    +0.000 A 
ATOM     15  C   UNL     1      -6.022   6.584 131.498  0.00  0.00    +0.000 A 
ATOM     16  C   UNL     1      -5.646   6.039 132.732  0.00  0.00    +0.000 A 
ATOM     17  C   UNL     1      -6.599   5.456 133.574  0.00  0.00    +0.000 A 
ATOM     18  C   UNL     1      -7.943   5.438 133.191  0.00  0.00    +0.000 A 
BRANCH  16  19
ATOM     19  S   UNL     1      -3.965   6.207 133.286  0.00  0.00    +0.000 S 
ATOM     20  O   UNL     1      -4.007   6.788 134.611  0.00  0.00    +0.000 OA
ATOM     21  O   UNL     1      -3.260   4.987 132.989  0.00  0.00    +0.000 OA
BRANCH  19  22
ATOM     22  N   UNL     1      -3.368   7.369 132.254  0.00  0.00    +0.000 NA
ATOM     23  H   UNL     1      -2.489   7.160 131.794  0.00  0.00    +0.000 HD
ATOM     24  H   UNL     1      -3.643   8.326 132.447  0.00  0.00    +0.000 HD
ENDBRANCH  19  22
ENDBRANCH  16  19
ENDBRANCH   5  13
BRANCH   3  25
ATOM     25  C   UNL     1     -12.767   7.421 130.593  0.00  0.00    +0.000 C 
ATOM     26  F   UNL     1     -13.598   6.923 129.643  0.00  0.00    +0.000 F 
ATOM     27  F   UNL     1     -13.513   7.649 131.706  0.00  0.00    +0.000 F 
ATOM     28  F   UNL     1     -12.366   8.646 130.148  0.00  0.00    +0.000 F 
ENDBRANCH   3  25
TORSDOF 5
ENDMDL
MODEL 3
REMARK VINA RESULT:      -8.0      8.752     10.644
REMARK  Name = Celecoxib
REMARK  6 active torsions:
REMARK  status: ('A' for Active; 'I' for Inactive)
REMARK    1  A    between atoms: C_1  and  C_2
REMARK    2  A    between atoms: C_5  and  C_8
REMARK    3  A    between atoms: C_10  and  C_23
REMARK    4  A    between atoms: N_12  and  C_13
REMARK    5  A    between atoms: C_16  and  S_19
REMARK    6  A    between atoms: S_19  and  N_20
REMARK                            x       y       z     vdW  Elec       q    Type
REMARK                         _______ _______ _______ _____ _____    ______ ____
ROOT
ATOM      1  C   UNL     1      -8.130   4.318 133.635  0.00  0.00    +0.000 A 
ATOM      2  C   UNL     1      -7.590   4.345 134.902  0.00  0.00    +0.000 A 
ATOM      3  C   UNL     1      -7.783   5.661 135.379  0.00  0.00    +0.000 A 
ATOM      4  N   UNL     1      -8.341   6.437 134.427  0.00  0.00    +0.000 NA
ATOM      5  N   UNL     1      -8.600   5.594 133.392  0.00  0.00    +0.000 N 
ENDROOT
BRANCH   1  10
ATOM      6  C   UNL     1      -8.118   0.079 129.758  0.00  0.00    +0.000 C 
ATOM      7  C   UNL     1      -8.123   1.164 130.792  0.00  0.00    +0.000 A 
ATOM      8  C   UNL     1      -9.167   1.265 131.718  0.00  0.00    +0.000 A 
ATOM      9  C   UNL     1      -9.170   2.294 132.656  0.00  0.00    +0.000 A 
ATOM     10  C   UNL     1      -8.127   3.226 132.678  0.00  0.00    +0.000 A 
ATOM     11  C   UNL     1      -7.082   3.124 131.758  0.00  0.00    +0.000 A 
ATOM     12  C   UNL     1      -7.078   2.095 130.822  0.00  0.00    +0.000 A 
ENDBRANCH   1  10
BRANCH   5  13
ATOM     13  C   UNL     1      -9.361   6.057 132.288  0.00  0.00    +0.000 A 
ATOM     14  C   UNL     1      -8.698   6.632 131.198  0.00  0.00    +0.000 A 
ATOM     15  C   UNL     1      -9.439   7.218 130.169  0.00  0.00    +0.000 A 
ATOM     16  C   UNL     1     -10.838   7.183 130.215  0.00  0.00    +0.000 A 
ATOM     17  C   UNL     1     -11.501   6.593 131.296  0.00  0.00    +0.000 A 
ATOM     18  C   UNL     1     -10.761   6.011 132.329  0.00  0.00    +0.000 A 
BRANCH  16  19
ATOM     19  S   UNL     1     -11.774   7.780 128.826  0.00  0.00    +0.000 S 
ATOM     20  O   UNL     1     -12.071   6.638 127.988  0.00  0.00    +0.000 OA
ATOM     21  O   UNL     1     -12.788   8.681 129.308  0.00  0.00    +0.000 OA
BRANCH  19  22
ATOM     22  N   UNL     1     -10.652   8.708 128.018  0.00  0.00    +0.000 NA
ATOM     23  H   UNL     1     -10.358   9.564 128.473  0.00  0.00    +0.000 HD
ATOM     24  H   UNL     1     -10.642   8.623 127.007  0.00  0.00    +0.000 HD
ENDBRANCH  19  22
ENDBRANCH  16  19
ENDBRANCH   5  13
BRANCH   3  25
ATOM     25  C   UNL     1      -7.387   6.162 136.741  0.00  0.00    +0.000 C 
ATOM     26  F   UNL     1      -8.455   6.352 137.558  0.00  0.00    +0.000 F 
ATOM     27  F   UNL     1      -6.533   5.320 137.380  0.00  0.00    +0.000 F 
ATOM     28  F   UNL     1      -6.747   7.364 136.662  0.00  0.00    +0.000 F 
ENDBRANCH   3  25
TORSDOF 5
ENDMDL
MODEL 4
REMARK VINA RESULT:      -7.9      7.436      9.616
REMARK  Name = Celecoxib
REMARK  6 active torsions:
REMARK  status: ('A' for Active; 'I' for Inactive)
REMARK    1  A    between atoms: C_1  and  C_2
REMARK    2  A    between atoms: C_5  and  C_8
REMARK    3  A    between atoms: C_10  and  C_23
REMARK    4  A    between atoms: N_12  and  C_13
REMARK    5  A    between atoms: C_16  and  S_19
REMARK    6  A    between atoms: S_19  and  N_20
REMARK                            x       y       z     vdW  Elec       q    Type
REMARK                         _______ _______ _______ _____ _____    ______ ____
ROOT
ATOM      1  C   UNL     1      -2.363   6.166 131.190  0.00  0.00    +0.000 A 
ATOM      2  C   UNL     1      -1.121   6.532 131.662  0.00  0.00    +0.000 A 
ATOM      3  C   UNL     1      -1.361   7.390 132.759  0.00  0.00    +0.000 A 
ATOM      4  N   UNL     1      -2.682   7.612 132.913  0.00  0.00    +0.000 NA
ATOM      5  N   UNL     1      -3.283   6.816 131.989  0.00  0.00    +0.000 N 
ENDROOT
BRANCH   1  10
ATOM      6  C   UNL     1      -3.550   2.871 126.637  0.00  0.00    +0.000 C 
ATOM      7  C   UNL     1      -3.257   3.753 127.812  0.00  0.00    +0.000 A 
ATOM      8  C   UNL     1      -2.650   5.001 127.636  0.00  0.00    +0.000 A 
ATOM      9  C   UNL     1      -2.361   5.799 128.740  0.00  0.00    +0.000 A 
ATOM     10  C   UNL     1      -2.681   5.355 130.028  0.00  0.00    +0.000 A 
ATOM     11  C   UNL     1      -3.290   4.112 130.206  0.00  0.00    +0.000 A 
ATOM     12  C   UNL     1      -3.580   3.316 129.102  0.00  0.00    +0.000 A 
ENDBRANCH   1  10
BRANCH   5  13
ATOM     13  C   UNL     1      -4.694   6.669 132.005  0.00  0.00    +0.000 A 
ATOM     14  C   UNL     1      -5.292   5.947 133.044  0.00  0.00    +0.000 A 
ATOM     15  C   UNL     1      -6.661   5.674 132.998  0.00  0.00    +0.000 A 
ATOM     16  C   UNL     1      -7.431   6.165 131.937  0.00  0.00    +0.000 A 
ATOM     17  C   UNL     1      -6.837   6.901 130.906  0.00  0.00    +0.000 A 
ATOM     18  C   UNL     1      -5.466   7.170 130.948  0.00  0.00    +0.000 A 
BRANCH  16  19
ATOM     19  S   UNL     1      -9.197   5.959 131.969  0.00  0.00    +0.000 S 
ATOM     20  O   UNL     1      -9.767   7.034 131.186  0.00  0.00    +0.000 OA
ATOM     21  O   UNL     1      -9.501   4.571 131.733  0.00  0.00    +0.000 OA
BRANCH  19  22
ATOM     22  N   UNL     1      -9.558   6.264 133.565  0.00  0.00    +0.000 NA
ATOM     23  H   UNL     1      -9.788   7.222 133.804  0.00  0.00    +0.000 HD
ATOM     24  H   UNL     1      -9.143   5.640 134.249  0.00  0.00    +0.000 HD
ENDBRANCH  19  22
ENDBRANCH  16  19
ENDBRANCH   5  13
BRANCH   3  25
ATOM     25  C   UNL     1      -0.301   8.017 133.624  0.00  0.00    +0.000 C 
ATOM     26  F   UNL     1       0.466   8.908 132.946  0.00  0.00    +0.000 F 
ATOM     27  F   UNL     1      -0.819   8.663 134.701  0.00  0.00    +0.000 F 
ATOM     28  F   UNL     1       0.553   7.076 134.121  0.00  0.00    +0.000 F 
ENDBRANCH   3  25
TORSDOF 5
ENDMDL
MODEL 5
REMARK VINA RESULT:      -7.9      5.072      6.815
REMARK  Name = Celecoxib
REMARK  6 active torsions:
REMARK  status: ('A' for Active; 'I' for Inactive)
REMARK    1  A    between atoms: C_1  and  C_2
REMARK    2  A    between atoms: C_5  and  C_8
REMARK    3  A    between atoms: C_10  and  C_23
REMARK    4  A    between atoms: N_12  and  C_13
REMARK    5  A    between atoms: C_16  and  S_19
REMARK    6  A    between atoms: S_19  and  N_20
REMARK                            x       y       z     vdW  Elec       q    Type
REMARK                         _______ _______ _______ _____ _____    ______ ____
ROOT
ATOM      1  C   UNL     1      -6.185  -1.982 127.705  0.00  0.00    +0.000 A 
ATOM      2  C   UNL     1      -5.535  -2.802 128.600  0.00  0.00    +0.000 A 
ATOM      3  C   UNL     1      -4.732  -1.952 129.394  0.00  0.00    +0.000 A 
ATOM      4  N   UNL     1      -4.815  -0.677 128.963  0.00  0.00    +0.000 NA
ATOM      5  N   UNL     1      -5.746  -0.699 127.972  0.00  0.00    +0.000 N 
ENDROOT
BRANCH   1  10
ATOM      6  C   UNL     1      -9.651  -3.372 123.340  0.00  0.00    +0.000 C 
ATOM      7  C   UNL     1      -8.758  -3.034 124.494  0.00  0.00    +0.000 A 
ATOM      8  C   UNL     1      -9.288  -2.814 125.769  0.00  0.00    +0.000 A 
ATOM      9  C   UNL     1      -8.449  -2.475 126.827  0.00  0.00    +0.000 A 
ATOM     10  C   UNL     1      -7.070  -2.358 126.617  0.00  0.00    +0.000 A 
ATOM     11  C   UNL     1      -6.537  -2.582 125.346  0.00  0.00    +0.000 A 
ATOM     12  C   UNL     1      -7.377  -2.922 124.290  0.00  0.00    +0.000 A 
ENDBRANCH   1  10
BRANCH   5  13
ATOM     13  C   UNL     1      -6.210   0.523 127.422  0.00  0.00    +0.000 A 
ATOM     14  C   UNL     1      -5.463   1.144 126.414  0.00  0.00    +0.000 A 
ATOM     15  C   UNL     1      -5.830   2.413 125.963  0.00  0.00    +0.000 A 
ATOM     16  C   UNL     1      -6.971   3.033 126.489  0.00  0.00    +0.000 A 
ATOM     17  C   UNL     1      -7.728   2.407 127.484  0.00  0.00    +0.000 A 
ATOM     18  C   UNL     1      -7.358   1.138 127.940  0.00  0.00    +0.000 A 
BRANCH  16  19
ATOM     19  S   UNL     1      -7.528   4.571 125.794  0.00  0.00    +0.000 S 
ATOM     20  O   UNL     1      -8.610   5.050 126.627  0.00  0.00    +0.000 OA
ATOM     21  O   UNL     1      -6.377   5.373 125.469  0.00  0.00    +0.000 OA
BRANCH  19  22
ATOM     22  N   UNL     1      -8.196   4.084 124.349  0.00  0.00    +0.000 NA
ATOM     23  H   UNL     1      -9.147   4.384 124.164  0.00  0.00    +0.000 HD
ATOM     24  H   UNL     1      -7.832   3.225 123.952  0.00  0.00    +0.000 HD
ENDBRANCH  19  22
ENDBRANCH  16  19
ENDBRANCH   5  13
BRANCH   3  25
ATOM     25  C   UNL     1      -3.863  -2.394 130.540  0.00  0.00    +0.000 C 
ATOM     26  F   UNL     1      -2.756  -1.622 130.683  0.00  0.00    +0.000 F 
ATOM     27  F   UNL     1      -4.521  -2.384 131.730  0.00  0.00    +0.000 F 
ATOM     28  F   UNL     1      -3.420  -3.671 130.363  0.00  0.00    +0.000 F 
ENDBRANCH   3  25
TORSDOF 5
ENDMDL
MODEL 6
REMARK VINA RESULT:      -7.9      7.420      9.257
REMARK  Name = Celecoxib
REMARK  6 active torsions:
REMARK  status: ('A' for Active; 'I' for Inactive)
REMARK    1  A    between atoms: C_1  and  C_2
REMARK    2  A    between atoms: C_5  and  C_8
REMARK    3  A    between atoms: C_10  and  C_23
REMARK    4  A    between atoms: N_12  and  C_13
REMARK    5  A    between atoms: C_16  and  S_19
REMARK    6  A    between atoms: S_19  and  N_20
REMARK                            x       y       z     vdW  Elec       q    Type
REMARK                         _______ _______ _______ _____ _____    ______ ____
ROOT
ATOM      1  C   UNL     1      -9.484   5.836 131.124  0.00  0.00    +0.000 A 
ATOM      2  C   UNL     1     -10.396   6.837 130.873  0.00  0.00    +0.000 A 
ATOM      3  C   UNL     1     -11.461   6.226 130.173  0.00  0.00    +0.000 A 
ATOM      4  N   UNL     1     -11.189   4.928 129.929  0.00  0.00    +0.000 NA
ATOM      5  N   UNL     1     -10.010   4.689 130.562  0.00  0.00    +0.000 N 
ENDROOT
BRANCH   1  10
ATOM      6  C   UNL     1      -4.268   6.192 133.505  0.00  0.00    +0.000 C 
ATOM      7  C   UNL     1      -5.640   6.116 132.907  0.00  0.00    +0.000 A 
ATOM      8  C   UNL     1      -6.714   5.606 133.643  0.00  0.00    +0.000 A 
ATOM      9  C   UNL     1      -7.978   5.517 133.065  0.00  0.00    +0.000 A 
ATOM     10  C   UNL     1      -8.177   5.945 131.747  0.00  0.00    +0.000 A 
ATOM     11  C   UNL     1      -7.108   6.459 131.013  0.00  0.00    +0.000 A 
ATOM     12  C   UNL     1      -5.846   6.548 131.591  0.00  0.00    +0.000 A 
ENDBRANCH   1  10
BRANCH   5  13
ATOM     13  C   UNL     1      -9.526   3.359 130.659  0.00  0.00    +0.000 A 
ATOM     14  C   UNL     1      -9.884   2.583 131.768  0.00  0.00    +0.000 A 
ATOM     15  C   UNL     1      -9.303   1.326 131.949  0.00  0.00    +0.000 A 
ATOM     16  C   UNL     1      -8.404   0.833 130.995  0.00  0.00    +0.000 A 
ATOM     17  C   UNL     1      -8.058   1.601 129.878  0.00  0.00    +0.000 A 
ATOM     18  C   UNL     1      -8.635   2.862 129.699  0.00  0.00    +0.000 A 
BRANCH  16  19
ATOM     19  S   UNL     1      -7.798  -0.831 131.143  0.00  0.00    +0.000 S 
ATOM     20  O   UNL     1      -8.159  -1.303 132.463  0.00  0.00    +0.000 OA
ATOM     21  O   UNL     1      -8.128  -1.549 129.939  0.00  0.00    +0.000 OA
BRANCH  19  22
ATOM     22  N   UNL     1      -6.148  -0.608 131.132  0.00  0.00    +0.000 NA
ATOM     23  H   UNL     1      -5.738  -0.289 130.261  0.00  0.00    +0.000 HD
ATOM     24  H   UNL     1      -5.613  -1.170 131.786  0.00  0.00    +0.000 HD
ENDBRANCH  19  22
ENDBRANCH  16  19
ENDBRANCH   5  13
BRANCH   3  25
ATOM     25  C   UNL     1     -12.715   6.919 129.715  0.00  0.00    +0.000 C 
ATOM     26  F   UNL     1     -12.476   8.162 129.225  0.00  0.00    +0.000 F 
ATOM     27  F   UNL     1     -13.376   6.224 128.752  0.00  0.00    +0.000 F 
ATOM     28  F   UNL     1     -13.599   7.075 130.743  0.00  0.00    +0.000 F 
ENDBRANCH   3  25
TORSDOF 5
ENDMDL
MODEL 7
REMARK VINA RESULT:      -7.8      6.079      7.892
REMARK  Name = Celecoxib
REMARK  6 active torsions:
REMARK  status: ('A' for Active; 'I' for Inactive)
REMARK    1  A    between atoms: C_1  and  C_2
REMARK    2  A    between atoms: C_5  and  C_8
REMARK    3  A    between atoms: C_10  and  C_23
REMARK    4  A    between atoms: N_12  and  C_13
REMARK    5  A    between atoms: C_16  and  S_19
REMARK    6  A    between atoms: S_19  and  N_20
REMARK                            x       y       z     vdW  Elec       q    Type
REMARK                         _______ _______ _______ _____ _____    ______ ____
ROOT
ATOM      1  C   UNL     1      -7.098  -1.994 130.632  0.00  0.00    +0.000 A 
ATOM      2  C   UNL     1      -6.463  -2.652 131.662  0.00  0.00    +0.000 A 
ATOM      3  C   UNL     1      -6.105  -3.920 131.151  0.00  0.00    +0.000 A 
ATOM      4  N   UNL     1      -6.566  -4.075 129.893  0.00  0.00    +0.000 NA
ATOM      5  N   UNL     1      -7.117  -2.876 129.569  0.00  0.00    +0.000 N 
ENDROOT
BRANCH   1  10
ATOM      6  C   UNL     1      -9.703   3.126 130.690  0.00  0.00    +0.000 C 
ATOM      7  C   UNL     1      -8.996   1.805 130.679  0.00  0.00    +0.000 A 
ATOM      8  C   UNL     1      -7.967   1.551 129.767  0.00  0.00    +0.000 A 
ATOM      9  C   UNL     1      -7.337   0.310 129.752  0.00  0.00    +0.000 A 
ATOM     10  C   UNL     1      -7.729  -0.686 130.653  0.00  0.00    +0.000 A 
ATOM     11  C   UNL     1      -8.753  -0.434 131.567  0.00  0.00    +0.000 A 
ATOM     12  C   UNL     1      -9.382   0.807 131.583  0.00  0.00    +0.000 A 
ENDBRANCH   1  10
BRANCH   5  13
ATOM     13  C   UNL     1      -7.536  -2.636 128.235  0.00  0.00    +0.000 A 
ATOM     14  C   UNL     1      -8.733  -3.206 127.785  0.00  0.00    +0.000 A 
ATOM     15  C   UNL     1      -9.087  -3.098 126.438  0.00  0.00    +0.000 A 
ATOM     16  C   UNL     1      -8.265  -2.380 125.560  0.00  0.00    +0.000 A 
ATOM     17  C   UNL     1      -7.078  -1.796 126.013  0.00  0.00    +0.000 A 
ATOM     18  C   UNL     1      -6.719  -1.908 127.359  0.00  0.00    +0.000 A 
BRANCH  16  19
ATOM     19  S   UNL     1      -8.803  -2.103 123.889  0.00  0.00    +0.000 S 
ATOM     20  O   UNL     1      -9.544  -0.860 123.878  0.00  0.00    +0.000 OA
ATOM     21  O   UNL     1      -7.699  -2.363 123.002  0.00  0.00    +0.000 OA
BRANCH  19  22
ATOM     22  N   UNL     1      -9.900  -3.335 123.662  0.00  0.00    +0.000 NA
ATOM     23  H   UNL     1      -9.545  -4.189 123.248  0.00  0.00    +0.000 HD
ATOM     24  H   UNL     1     -10.869  -3.059 123.543  0.00  0.00    +0.000 HD
ENDBRANCH  19  22
ENDBRANCH  16  19
ENDBRANCH   5  13
BRANCH   3  25
ATOM     25  C   UNL     1      -5.353  -4.983 131.904  0.00  0.00    +0.000 C 
ATOM     26  F   UNL     1      -4.060  -4.642 132.137  0.00  0.00    +0.000 F 
ATOM     27  F   UNL     1      -5.918  -5.273 133.105  0.00  0.00    +0.000 F 
ATOM     28  F   UNL     1      -5.321  -6.156 131.208  0.00  0.00    +0.000 F 
ENDBRANCH   3  25
TORSDOF 5
ENDMDL
MODEL 8
REMARK VINA RESULT:      -7.7      5.852      8.426
REMARK  Name = Celecoxib
REMARK  6 active torsions:
REMARK  status: ('A' for Active; 'I' for Inactive)
REMARK    1  A    between atoms: C_1  and  C_2
REMARK    2  A    between atoms: C_5  and  C_8
REMARK    3  A    between atoms: C_10  and  C_23
REMARK    4  A    between atoms: N_12  and  C_13
REMARK    5  A    between atoms: C_16  and  S_19
REMARK    6  A    between atoms: S_19  and  N_20
REMARK                            x       y       z     vdW  Elec       q    Type
REMARK                         _______ _______ _______ _____ _____    ______ ____
ROOT
ATOM      1  C   UNL     1      -7.672  -1.997 126.398  0.00  0.00    +0.000 A 
ATOM      2  C   UNL     1      -8.205  -2.743 125.370  0.00  0.00    +0.000 A 
ATOM      3  C   UNL     1      -8.570  -1.817 124.366  0.00  0.00    +0.000 A 
ATOM      4  N   UNL     1      -8.350  -0.552 124.780  0.00  0.00    +0.000 NA
ATOM      5  N   UNL     1      -7.750  -0.678 125.994  0.00  0.00    +0.000 N 
ENDROOT
BRANCH   1  10
ATOM      6  C   UNL     1      -5.796  -3.890 131.487  0.00  0.00    +0.000 C 
ATOM      7  C   UNL     1      -6.302  -3.375 130.174  0.00  0.00    +0.000 A 
ATOM      8  C   UNL     1      -7.673  -3.341 129.899  0.00  0.00    +0.000 A 
ATOM      9  C   UNL     1      -8.128  -2.884 128.665  0.00  0.00    +0.000 A 
ATOM     10  C   UNL     1      -7.214  -2.453 127.698  0.00  0.00    +0.000 A 
ATOM     11  C   UNL     1      -5.845  -2.481 127.971  0.00  0.00    +0.000 A 
ATOM     12  C   UNL     1      -5.392  -2.937 129.205  0.00  0.00    +0.000 A 
ENDBRANCH   1  10
BRANCH   5  13
ATOM     13  C   UNL     1      -7.215   0.471 126.631  0.00  0.00    +0.000 A 
ATOM     14  C   UNL     1      -8.033   1.220 127.485  0.00  0.00    +0.000 A 
ATOM     15  C   UNL     1      -7.566   2.428 128.007  0.00  0.00    +0.000 A 
ATOM     16  C   UNL     1      -6.266   2.856 127.710  0.00  0.00    +0.000 A 
ATOM     17  C   UNL     1      -5.442   2.100 126.870  0.00  0.00    +0.000 A 
ATOM     18  C   UNL     1      -5.910   0.893 126.343  0.00  0.00    +0.000 A 
BRANCH  16  19
ATOM     19  S   UNL     1      -5.619   4.306 128.509  0.00  0.00    +0.000 S 
ATOM     20  O   UNL     1      -6.742   5.013 129.087  0.00  0.00    +0.000 OA
ATOM     21  O   UNL     1      -4.456   3.931 129.270  0.00  0.00    +0.000 OA
BRANCH  19  22
ATOM     22  N   UNL     1      -5.078   5.209 127.219  0.00  0.00    +0.000 NA
ATOM     23  H   UNL     1      -4.659   4.697 126.450  0.00  0.00    +0.000 HD
ATOM     24  H   UNL     1      -4.806   6.165 127.420  0.00  0.00    +0.000 HD
ENDBRANCH  19  22
ENDBRANCH  16  19
ENDBRANCH   5  13
BRANCH   3  25
ATOM     25  C   UNL     1      -9.163  -2.169 123.030  0.00  0.00    +0.000 C 
ATOM     26  F   UNL     1      -9.908  -3.302 123.072  0.00  0.00    +0.000 F 
ATOM     27  F   UNL     1      -9.955  -1.182 122.532  0.00  0.00    +0.000 F 
ATOM     28  F   UNL     1      -8.192  -2.382 122.096  0.00  0.00    +0.000 F 
ENDBRANCH   3  25
TORSDOF 5
ENDMDL
MODEL 9
REMARK VINA RESULT:      -7.7      7.147      8.842
REMARK  Name = Celecoxib
REMARK  6 active torsions:
REMARK  status: ('A' for Active; 'I' for Inactive)
REMARK    1  A    between atoms: C_1  and  C_2
REMARK    2  A    between atoms: C_5  and  C_8
REMARK    3  A    between atoms: C_10  and  C_23
REMARK    4  A    between atoms: N_12  and  C_13
REMARK    5  A    between atoms: C_16  and  S_19
REMARK    6  A    between atoms: S_19  and  N_20
REMARK                            x       y       z     vdW  Elec       q    Type
REMARK                         _______ _______ _______ _____ _____    ______ ____
ROOT
ATOM      1  C   UNL     1      -6.890  -3.077 130.073  0.00  0.00    +0.000 A 
ATOM      2  C   UNL     1      -6.239  -4.114 130.703  0.00  0.00    +0.000 A 
ATOM      3  C   UNL     1      -5.814  -3.606 131.951  0.00  0.00    +0.000 A 
ATOM      4  N   UNL     1      -6.115  -2.296 132.061  0.00  0.00    +0.000 NA
ATOM      5  N   UNL     1      -6.820  -2.001 130.937  0.00  0.00    +0.000 N 
ENDROOT
BRANCH   1  10
ATOM      6  C   UNL     1      -9.109  -3.076 124.775  0.00  0.00    +0.000 C 
ATOM      7  C   UNL     1      -8.529  -3.046 126.155  0.00  0.00    +0.000 A 
ATOM      8  C   UNL     1      -7.297  -2.430 126.401  0.00  0.00    +0.000 A 
ATOM      9  C   UNL     1      -6.758  -2.432 127.684  0.00  0.00    +0.000 A 
ATOM     10  C   UNL     1      -7.451  -3.046 128.734  0.00  0.00    +0.000 A 
ATOM     11  C   UNL     1      -8.683  -3.656 128.493  0.00  0.00    +0.000 A 
ATOM     12  C   UNL     1      -9.221  -3.653 127.210  0.00  0.00    +0.000 A 
ENDBRANCH   1  10
BRANCH   5  13
ATOM     13  C   UNL     1      -7.451  -0.735 130.820  0.00  0.00    +0.000 A 
ATOM     14  C   UNL     1      -6.847   0.257 130.040  0.00  0.00    +0.000 A 
ATOM     15  C   UNL     1      -7.379   1.548 130.028  0.00  0.00    +0.000 A 
ATOM     16  C   UNL     1      -8.541   1.826 130.760  0.00  0.00    +0.000 A 
ATOM     17  C   UNL     1      -9.155   0.830 131.527  0.00  0.00    +0.000 A 
ATOM     18  C   UNL     1      -8.619  -0.461 131.543  0.00  0.00    +0.000 A 
BRANCH  16  19
ATOM     19  S   UNL     1      -9.308   3.422 130.610  0.00  0.00    +0.000 S 
ATOM     20  O   UNL     1      -8.738   4.269 131.635  0.00  0.00    +0.000 OA
ATOM     21  O   UNL     1      -9.336   3.789 129.218  0.00  0.00    +0.000 OA
BRANCH  19  22
ATOM     22  N   UNL     1     -10.881   3.101 131.053  0.00  0.00    +0.000 NA
ATOM     23  H   UNL     1     -11.400   3.864 131.472  0.00  0.00    +0.000 HD
ATOM     24  H   UNL     1     -11.097   2.135 131.277  0.00  0.00    +0.000 HD
ENDBRANCH  19  22
ENDBRANCH  16  19
ENDBRANCH   5  13
BRANCH   3  25
ATOM     25  C   UNL     1      -5.087  -4.390 133.010  0.00  0.00    +0.000 C 
ATOM     26  F   UNL     1      -4.818  -3.649 134.115  0.00  0.00    +0.000 F 
ATOM     27  F   UNL     1      -5.778  -5.488 133.416  0.00  0.00    +0.000 F 
ATOM     28  F   UNL     1      -3.886  -4.846 132.552  0.00  0.00    +0.000 F 
ENDBRANCH   3  25
TORSDOF 5
ENDMDL
