MODEL 1
REMARK VINA RESULT:      -6.6      0.000      0.000
REMARK  Name = Celiprolol
REMARK  17 active torsions:
REMARK  status: ('A' for Active; 'I' for Inactive)
REMARK    1  A    between atoms: C_1  and  C_2
REMARK    2  A    between atoms: C_2  and  N_3
REMARK    3  A    between atoms: N_3  and  C_4
REMARK    4  A    between atoms: C_4  and  C_5
REMARK    5  A    between atoms: N_8  and  C_9
REMARK    6  A    between atoms: C_12  and  O_13
REMARK    7  A    between atoms: O_13  and  C_14
REMARK    8  A    between atoms: C_14  and  C_15
REMARK    9  A    between atoms: C_15  and  O_16
REMARK   10  A    between atoms: C_15  and  C_17
REMARK   11  A    between atoms: C_17  and  N_18
REMARK   12  A    between atoms: N_18  and  C_19
REMARK   13  A    between atoms: C_19  and  C_20
REMARK   14  A    between atoms: C_19  and  C_21
REMARK   15  A    between atoms: C_19  and  C_22
REMARK   16  A    between atoms: C_23  and  C_25
REMARK   17  A    between atoms: C_25  and  C_26
REMARK                            x       y       z     vdW  Elec       q    Type
REMARK                         _______ _______ _______ _____ _____    ______ ____
ROOT
ATOM      1  C   UNL     1      -6.764  -2.216 126.984  0.00  0.00    +0.000 A 
ATOM      2  C   UNL     1      -8.072  -1.758 127.121  0.00  0.00    +0.000 A 
ATOM      3  C   UNL     1      -8.818  -1.384 125.982  0.00  0.00    +0.000 A 
ATOM      4  C   UNL     1      -8.284  -1.414 124.668  0.00  0.00    +0.000 A 
ATOM      5  C   UNL     1      -6.948  -1.933 124.516  0.00  0.00    +0.000 A 
ATOM      6  C   UNL     1      -6.241  -2.300 125.694  0.00  0.00    +0.000 A 
ENDROOT
BRANCH   1  10
ATOM      7  N   UNL     1      -4.438  -2.424 129.918  0.00  0.00    +0.000 N 
ATOM      8  C   UNL     1      -5.183  -1.832 128.863  0.00  0.00    +0.000 C 
ATOM      9  O   UNL     1      -5.127  -0.616 128.665  0.00  0.00    +0.000 OA
ATOM     10  N   UNL     1      -6.001  -2.672 128.105  0.00  0.00    +0.000 N 
ATOM     11  H   UNL     1      -6.190  -3.604 128.430  0.00  0.00    +0.000 HD
BRANCH   7  13
ATOM     12  C   UNL     1      -4.052  -0.980 132.089  0.00  0.00    +0.000 C 
ATOM     13  C   UNL     1      -3.628  -1.441 130.701  0.00  0.00    +0.000 C 
ENDBRANCH   7  13
BRANCH   7  14
ATOM     14  C   UNL     1      -4.477  -3.875 130.188  0.00  0.00    +0.000 C 
ATOM     15  C   UNL     1      -5.504  -4.458 131.144  0.00  0.00    +0.000 C 
ENDBRANCH   7  14
ENDBRANCH   1  10
BRANCH   5  16
ATOM     16  C   UNL     1      -6.079  -2.300 123.280  0.00  0.00    +0.000 C 
ATOM     17  C   UNL     1      -4.911  -3.170 123.447  0.00  0.00    +0.000 C 
ATOM     18  O   UNL     1      -6.280  -1.824 122.145  0.00  0.00    +0.000 OA
ENDBRANCH   5  16
BRANCH   4  19
ATOM     19  O   UNL     1      -9.250  -0.872 123.806  0.00  0.00    +0.000 OA
BRANCH  19  20
ATOM     20  C   UNL     1      -9.023   0.407 123.262  0.00  0.00    +0.000 C 
BRANCH  20  21
ATOM     21  C   UNL     1      -9.746   1.701 123.579  0.00  0.00    +0.000 C 
BRANCH  21  22
ATOM     22  O   UNL     1     -11.044   1.442 124.092  0.00  0.00    +0.000 OA
ATOM     23  H   UNL     1     -11.549   2.270 124.009  0.00  0.00    +0.000 HD
ENDBRANCH  21  22
BRANCH  21  24
ATOM     24  C   UNL     1      -8.891   2.414 124.680  0.00  0.00    +0.000 C 
BRANCH  24  25
ATOM     25  N   UNL     1      -8.262   3.589 124.094  0.00  0.00    +0.000 NA
ATOM     26  H   UNL     1      -8.606   4.408 124.602  0.00  0.00    +0.000 HD
BRANCH  25  27
ATOM     27  C   UNL     1      -6.796   3.572 124.059  0.00  0.00    +0.000 C 
ATOM     28  C   UNL     1      -6.272   3.423 122.624  0.00  0.00    +0.000 C 
ATOM     29  C   UNL     1      -6.216   4.835 124.714  0.00  0.00    +0.000 C 
ATOM     30  C   UNL     1      -6.360   2.347 124.879  0.00  0.00    +0.000 C 
ENDBRANCH  25  27
ENDBRANCH  24  25
ENDBRANCH  21  24
ENDBRANCH  20  21
ENDBRANCH  19  20
ENDBRANCH   4  19
TORSDOF 11
ENDMDL
MODEL 2
REMARK VINA RESULT:      -6.5      4.966      7.174
REMARK  Name = Celiprolol
REMARK  17 active torsions:
REMARK  status: ('A' for Active; 'I' for Inactive)
REMARK    1  A    between atoms: C_1  and  C_2
REMARK    2  A    between atoms: C_2  and  N_3
REMARK    3  A    between atoms: N_3  and  C_4
REMARK    4  A    between atoms: C_4  and  C_5
REMARK    5  A    between atoms: N_8  and  C_9
REMARK    6  A    between atoms: C_12  and  O_13
REMARK    7  A    between atoms: O_13  and  C_14
REMARK    8  A    between atoms: C_14  and  C_15
REMARK    9  A    between atoms: C_15  and  O_16
REMARK   10  A    between atoms: C_15  and  C_17
REMARK   11  A    between atoms: C_17  and  N_18
REMARK   12  A    between atoms: N_18  and  C_19
REMARK   13  A    between atoms: C_19  and  C_20
REMARK   14  A    between atoms: C_19  and  C_21
REMARK   15  A    between atoms: C_19  and  C_22
REMARK   16  A    between atoms: C_23  and  C_25
REMARK   17  A    between atoms: C_25  and  C_26
REMARK                            x       y       z     vdW  Elec       q    Type
REMARK                         _______ _______ _______ _____ _____    ______ ____
ROOT
ATOM      1  C   UNL     1      -7.640   1.190 127.302  0.00  0.00    +0.000 A 
ATOM      2  C   UNL     1      -8.008   1.224 128.645  0.00  0.00    +0.000 A 
ATOM      3  C   UNL     1      -8.320   2.452 129.267  0.00  0.00    +0.000 A 
ATOM      4  C   UNL     1      -8.242   3.698 128.592  0.00  0.00    +0.000 A 
ATOM      5  C   UNL     1      -7.909   3.664 127.190  0.00  0.00    +0.000 A 
ATOM      6  C   UNL     1      -7.607   2.401 126.611  0.00  0.00    +0.000 A 
ENDROOT
BRANCH   1  10
ATOM      7  N   UNL     1      -8.007  -2.023 125.403  0.00  0.00    +0.000 N 
ATOM      8  C   UNL     1      -8.388  -0.792 126.004  0.00  0.00    +0.000 C 
ATOM      9  O   UNL     1      -9.556  -0.403 125.939  0.00  0.00    +0.000 OA
ATOM     10  N   UNL     1      -7.386  -0.040 126.618  0.00  0.00    +0.000 N 
ATOM     11  H   UNL     1      -6.422  -0.277 126.460  0.00  0.00    +0.000 HD
BRANCH   7  13
ATOM     12  C   UNL     1      -9.258  -2.793 123.215  0.00  0.00    +0.000 C 
ATOM     13  C   UNL     1      -9.137  -2.735 124.732  0.00  0.00    +0.000 C 
ENDBRANCH   7  13
BRANCH   7  14
ATOM     14  C   UNL     1      -6.620  -2.526 125.458  0.00  0.00    +0.000 C 
ATOM     15  C   UNL     1      -5.756  -2.554 124.208  0.00  0.00    +0.000 C 
ENDBRANCH   7  14
ENDBRANCH   1  10
BRANCH   5  16
ATOM     16  C   UNL     1      -7.894   4.742 126.070  0.00  0.00    +0.000 C 
ATOM     17  C   UNL     1      -6.722   4.867 125.199  0.00  0.00    +0.000 C 
ATOM     18  O   UNL     1      -8.811   5.572 125.916  0.00  0.00    +0.000 OA
ENDBRANCH   5  16
BRANCH   4  19
ATOM     19  O   UNL     1      -8.503   4.706 129.534  0.00  0.00    +0.000 OA
BRANCH  19  20
ATOM     20  C   UNL     1      -9.805   4.816 130.057  0.00  0.00    +0.000 C 
BRANCH  20  21
ATOM     21  C   UNL     1     -10.311   5.777 131.115  0.00  0.00    +0.000 C 
BRANCH  21  22
ATOM     22  O   UNL     1      -9.478   6.924 131.197  0.00  0.00    +0.000 OA
ATOM     23  H   UNL     1      -8.560   6.606 131.166  0.00  0.00    +0.000 HD
ENDBRANCH  21  22
BRANCH  21  24
ATOM     24  C   UNL     1     -11.742   6.213 130.653  0.00  0.00    +0.000 C 
BRANCH  24  25
ATOM     25  N   UNL     1     -11.802   6.148 129.199  0.00  0.00    +0.000 NA
ATOM     26  H   UNL     1     -12.531   5.473 128.951  0.00  0.00    +0.000 HD
BRANCH  25  27
ATOM     27  C   UNL     1     -12.018   7.427 128.516  0.00  0.00    +0.000 C 
ATOM     28  C   UNL     1     -12.608   8.477 129.467  0.00  0.00    +0.000 C 
ATOM     29  C   UNL     1     -10.713   7.943 127.890  0.00  0.00    +0.000 C 
ATOM     30  C   UNL     1     -13.029   7.149 127.391  0.00  0.00    +0.000 C 
ENDBRANCH  25  27
ENDBRANCH  24  25
ENDBRANCH  21  24
ENDBRANCH  20  21
ENDBRANCH  19  20
ENDBRANCH   4  19
TORSDOF 11
ENDMDL
MODEL 3
REMARK VINA RESULT:      -6.5      5.868      8.167
REMARK  Name = Celiprolol
REMARK  17 active torsions:
REMARK  status: ('A' for Active; 'I' for Inactive)
REMARK    1  A    between atoms: C_1  and  C_2
REMARK    2  A    between atoms: C_2  and  N_3
REMARK    3  A    between atoms: N_3  and  C_4
REMARK    4  A    between atoms: C_4  and  C_5
REMARK    5  A    between atoms: N_8  and  C_9
REMARK    6  A    between atoms: C_12  and  O_13
REMARK    7  A    between atoms: O_13  and  C_14
REMARK    8  A    between atoms: C_14  and  C_15
REMARK    9  A    between atoms: C_15  and  O_16
REMARK   10  A    between atoms: C_15  and  C_17
REMARK   11  A    between atoms: C_17  and  N_18
REMARK   12  A    between atoms: N_18  and  C_19
REMARK   13  A    between atoms: C_19  and  C_20
REMARK   14  A    between atoms: C_19  and  C_21
REMARK   15  A    between atoms: C_19  and  C_22
REMARK   16  A    between atoms: C_23  and  C_25
REMARK   17  A    between atoms: C_25  and  C_26
REMARK                            x       y       z     vdW  Elec       q    Type
REMARK                         _______ _______ _______ _____ _____    ______ ____
ROOT
ATOM      1  C   UNL     1      -8.223   1.936 128.347  0.00  0.00    +0.000 A 
ATOM      2  C   UNL     1      -7.682   3.179 128.030  0.00  0.00    +0.000 A 
ATOM      3  C   UNL     1      -7.736   4.237 128.964  0.00  0.00    +0.000 A 
ATOM      4  C   UNL     1      -8.361   4.114 130.232  0.00  0.00    +0.000 A 
ATOM      5  C   UNL     1      -8.879   2.816 130.584  0.00  0.00    +0.000 A 
ATOM      6  C   UNL     1      -8.797   1.783 129.609  0.00  0.00    +0.000 A 
ENDROOT
BRANCH   1  10
ATOM      7  N   UNL     1      -8.552  -0.378 125.414  0.00  0.00    +0.000 N 
ATOM      8  C   UNL     1      -8.675   0.816 126.175  0.00  0.00    +0.000 C 
ATOM      9  O   UNL     1      -9.216   1.812 125.689  0.00  0.00    +0.000 OA
ATOM     10  N   UNL     1      -8.125   0.820 127.457  0.00  0.00    +0.000 N 
ATOM     11  H   UNL     1      -7.507   0.077 127.733  0.00  0.00    +0.000 HD
BRANCH   7  13
ATOM     12  C   UNL     1      -9.022  -1.412 123.036  0.00  0.00    +0.000 C 
ATOM     13  C   UNL     1      -9.130  -0.272 124.039  0.00  0.00    +0.000 C 
ENDBRANCH   7  13
BRANCH   7  14
ATOM     14  C   UNL     1      -7.912  -1.592 125.958  0.00  0.00    +0.000 C 
ATOM     15  C   UNL     1      -8.750  -2.696 126.582  0.00  0.00    +0.000 C 
ENDBRANCH   7  14
ENDBRANCH   1  10
BRANCH   5  16
ATOM     16  C   UNL     1      -9.456   2.216 131.897  0.00  0.00    +0.000 C 
ATOM     17  C   UNL     1      -9.187   2.878 133.176  0.00  0.00    +0.000 C 
ATOM     18  O   UNL     1     -10.084   1.139 131.931  0.00  0.00    +0.000 OA
ENDBRANCH   5  16
BRANCH   4  19
ATOM     19  O   UNL     1      -8.331   5.377 130.842  0.00  0.00    +0.000 OA
BRANCH  19  20
ATOM     20  C   UNL     1      -9.507   6.152 130.842  0.00  0.00    +0.000 C 
BRANCH  20  21
ATOM     21  C   UNL     1     -10.739   5.986 131.711  0.00  0.00    +0.000 C 
BRANCH  21  22
ATOM     22  O   UNL     1     -10.522   6.533 133.003  0.00  0.00    +0.000 OA
ATOM     23  H   UNL     1     -10.951   5.933 133.637  0.00  0.00    +0.000 HD
ENDBRANCH  21  22
BRANCH  21  24
ATOM     24  C   UNL     1     -11.880   6.786 130.998  0.00  0.00    +0.000 C 
BRANCH  24  25
ATOM     25  N   UNL     1     -11.706   6.664 129.557  0.00  0.00    +0.000 NA
ATOM     26  H   UNL     1     -12.208   5.825 129.256  0.00  0.00    +0.000 HD
BRANCH  25  27
ATOM     27  C   UNL     1     -12.114   7.831 128.768  0.00  0.00    +0.000 C 
ATOM     28  C   UNL     1     -10.928   8.432 128.002  0.00  0.00    +0.000 C 
ATOM     29  C   UNL     1     -13.252   7.470 127.801  0.00  0.00    +0.000 C 
ATOM     30  C   UNL     1     -12.635   8.870 129.775  0.00  0.00    +0.000 C 
ENDBRANCH  25  27
ENDBRANCH  24  25
ENDBRANCH  21  24
ENDBRANCH  20  21
ENDBRANCH  19  20
ENDBRANCH   4  19
TORSDOF 11
ENDMDL
MODEL 4
REMARK VINA RESULT:      -6.5      3.151      5.439
REMARK  Name = Celiprolol
REMARK  17 active torsions:
REMARK  status: ('A' for Active; 'I' for Inactive)
REMARK    1  A    between atoms: C_1  and  C_2
REMARK    2  A    between atoms: C_2  and  N_3
REMARK    3  A    between atoms: N_3  and  C_4
REMARK    4  A    between atoms: C_4  and  C_5
REMARK    5  A    between atoms: N_8  and  C_9
REMARK    6  A    between atoms: C_12  and  O_13
REMARK    7  A    between atoms: O_13  and  C_14
REMARK    8  A    between atoms: C_14  and  C_15
REMARK    9  A    between atoms: C_15  and  O_16
REMARK   10  A    between atoms: C_15  and  C_17
REMARK   11  A    between atoms: C_17  and  N_18
REMARK   12  A    between atoms: N_18  and  C_19
REMARK   13  A    between atoms: C_19  and  C_20
REMARK   14  A    between atoms: C_19  and  C_21
REMARK   15  A    between atoms: C_19  and  C_22
REMARK   16  A    between atoms: C_23  and  C_25
REMARK   17  A    between atoms: C_25  and  C_26
REMARK                            x       y       z     vdW  Elec       q    Type
REMARK                         _______ _______ _______ _____ _____    ______ ____
ROOT
ATOM      1  C   UNL     1      -7.393   1.392 126.916  0.00  0.00    +0.000 A 
ATOM      2  C   UNL     1      -7.415   0.128 127.501  0.00  0.00    +0.000 A 
ATOM      3  C   UNL     1      -8.271  -0.875 126.997  0.00  0.00    +0.000 A 
ATOM      4  C   UNL     1      -9.166  -0.653 125.919  0.00  0.00    +0.000 A 
ATOM      5  C   UNL     1      -9.113   0.638 125.279  0.00  0.00    +0.000 A 
ATOM      6  C   UNL     1      -8.230   1.611 125.822  0.00  0.00    +0.000 A 
ENDROOT
BRANCH   1  10
ATOM      7  N   UNL     1      -4.431   3.657 127.310  0.00  0.00    +0.000 N 
ATOM      8  C   UNL     1      -5.255   2.647 126.745  0.00  0.00    +0.000 C 
ATOM      9  O   UNL     1      -4.893   2.040 125.735  0.00  0.00    +0.000 OA
ATOM     10  N   UNL     1      -6.490   2.412 127.351  0.00  0.00    +0.000 N 
ATOM     11  H   UNL     1      -6.842   3.067 128.027  0.00  0.00    +0.000 HD
BRANCH   7  13
ATOM     12  C   UNL     1      -1.879   3.115 126.933  0.00  0.00    +0.000 C 
ATOM     13  C   UNL     1      -3.151   3.869 126.567  0.00  0.00    +0.000 C 
ENDBRANCH   7  13
BRANCH   7  14
ATOM     14  C   UNL     1      -4.826   4.407 128.519  0.00  0.00    +0.000 C 
ATOM     15  C   UNL     1      -4.193   4.097 129.865  0.00  0.00    +0.000 C 
ENDBRANCH   7  14
ENDBRANCH   1  10
BRANCH   5  16
ATOM     16  C   UNL     1      -9.764   1.220 123.993  0.00  0.00    +0.000 C 
ATOM     17  C   UNL     1      -9.097   2.305 123.269  0.00  0.00    +0.000 C 
ATOM     18  O   UNL     1     -10.884   0.859 123.578  0.00  0.00    +0.000 OA
ENDBRANCH   5  16
BRANCH   4  19
ATOM     19  O   UNL     1      -9.936  -1.815 125.762  0.00  0.00    +0.000 OA
BRANCH  19  20
ATOM     20  C   UNL     1      -9.410  -2.872 124.996  0.00  0.00    +0.000 C 
BRANCH  20  21
ATOM     21  C   UNL     1      -9.347  -2.993 123.485  0.00  0.00    +0.000 C 
BRANCH  21  22
ATOM     22  O   UNL     1     -10.186  -2.030 122.866  0.00  0.00    +0.000 OA
ATOM     23  H   UNL     1     -10.294  -2.306 121.940  0.00  0.00    +0.000 HD
ENDBRANCH  21  22
BRANCH  21  24
ATOM     24  C   UNL     1      -7.859  -2.707 123.092  0.00  0.00    +0.000 C 
BRANCH  24  25
ATOM     25  N   UNL     1      -6.988  -3.306 124.094  0.00  0.00    +0.000 NA
ATOM     26  H   UNL     1      -6.746  -4.246 123.768  0.00  0.00    +0.000 HD
BRANCH  25  27
ATOM     27  C   UNL     1      -5.782  -2.541 124.426  0.00  0.00    +0.000 C 
ATOM     28  C   UNL     1      -5.944  -1.057 124.066  0.00  0.00    +0.000 C 
ATOM     29  C   UNL     1      -5.424  -2.697 125.911  0.00  0.00    +0.000 C 
ATOM     30  C   UNL     1      -4.647  -3.138 123.578  0.00  0.00    +0.000 C 
ENDBRANCH  25  27
ENDBRANCH  24  25
ENDBRANCH  21  24
ENDBRANCH  20  21
ENDBRANCH  19  20
ENDBRANCH   4  19
TORSDOF 11
ENDMDL
MODEL 5
REMARK VINA RESULT:      -6.4      6.839     10.862
REMARK  Name = Celiprolol
REMARK  17 active torsions:
REMARK  status: ('A' for Active; 'I' for Inactive)
REMARK    1  A    between atoms: C_1  and  C_2
REMARK    2  A    between atoms: C_2  and  N_3
REMARK    3  A    between atoms: N_3  and  C_4
REMARK    4  A    between atoms: C_4  and  C_5
REMARK    5  A    between atoms: N_8  and  C_9
REMARK    6  A    between atoms: C_12  and  O_13
REMARK    7  A    between atoms: O_13  and  C_14
REMARK    8  A    between atoms: C_14  and  C_15
REMARK    9  A    between atoms: C_15  and  O_16
REMARK   10  A    between atoms: C_15  and  C_17
REMARK   11  A    between atoms: C_17  and  N_18
REMARK   12  A    between atoms: N_18  and  C_19
REMARK   13  A    between atoms: C_19  and  C_20
REMARK   14  A    between atoms: C_19  and  C_21
REMARK   15  A    between atoms: C_19  and  C_22
REMARK   16  A    between atoms: C_23  and  C_25
REMARK   17  A    between atoms: C_25  and  C_26
REMARK                            x       y       z     vdW  Elec       q    Type
REMARK                         _______ _______ _______ _____ _____    ______ ____
ROOT
ATOM      1  C   UNL     1      -9.671   6.460 131.509  0.00  0.00    +0.000 A 
ATOM      2  C   UNL     1      -9.901   5.538 132.527  0.00  0.00    +0.000 A 
ATOM      3  C   UNL     1      -8.817   4.911 133.178  0.00  0.00    +0.000 A 
ATOM      4  C   UNL     1      -7.464   5.145 132.820  0.00  0.00    +0.000 A 
ATOM      5  C   UNL     1      -7.218   6.134 131.801  0.00  0.00    +0.000 A 
ATOM      6  C   UNL     1      -8.345   6.739 131.179  0.00  0.00    +0.000 A 
ENDROOT
BRANCH   1  10
ATOM      7  N   UNL     1     -12.435   7.505 129.202  0.00  0.00    +0.000 N 
ATOM      8  C   UNL     1     -11.431   6.676 129.768  0.00  0.00    +0.000 C 
ATOM      9  O   UNL     1     -11.220   5.550 129.310  0.00  0.00    +0.000 OA
ATOM     10  N   UNL     1     -10.738   7.169 130.875  0.00  0.00    +0.000 N 
ATOM     11  H   UNL     1     -11.083   7.985 131.350  0.00  0.00    +0.000 HD
BRANCH   7  13
ATOM     12  C   UNL     1     -12.656   7.025 126.619  0.00  0.00    +0.000 C 
ATOM     13  C   UNL     1     -13.152   6.875 128.051  0.00  0.00    +0.000 C 
ENDBRANCH   7  13
BRANCH   7  14
ATOM     14  C   UNL     1     -12.719   8.859 129.719  0.00  0.00    +0.000 C 
ATOM     15  C   UNL     1     -13.412   9.892 128.847  0.00  0.00    +0.000 C 
ENDBRANCH   7  14
ENDBRANCH   1  10
BRANCH   5  16
ATOM     16  C   UNL     1      -5.927   6.807 131.256  0.00  0.00    +0.000 C 
ATOM     17  C   UNL     1      -4.648   6.579 131.933  0.00  0.00    +0.000 C 
ATOM     18  O   UNL     1      -5.933   7.607 130.299  0.00  0.00    +0.000 OA
ENDBRANCH   5  16
BRANCH   4  19
ATOM     19  O   UNL     1      -6.668   4.277 133.584  0.00  0.00    +0.000 OA
BRANCH  19  20
ATOM     20  C   UNL     1      -7.065   2.932 133.704  0.00  0.00    +0.000 C 
BRANCH  20  21
ATOM     21  C   UNL     1      -6.232   1.686 133.476  0.00  0.00    +0.000 C 
BRANCH  21  22
ATOM     22  O   UNL     1      -6.516   0.700 134.457  0.00  0.00    +0.000 OA
ATOM     23  H   UNL     1      -7.483   0.680 134.561  0.00  0.00    +0.000 HD
ENDBRANCH  21  22
BRANCH  21  24
ATOM     24  C   UNL     1      -6.645   1.143 132.067  0.00  0.00    +0.000 C 
BRANCH  24  25
ATOM     25  N   UNL     1      -7.825   1.868 131.615  0.00  0.00    +0.000 NA
ATOM     26  H   UNL     1      -7.881   2.733 132.159  0.00  0.00    +0.000 HD
BRANCH  25  27
ATOM     27  C   UNL     1      -7.885   2.147 130.177  0.00  0.00    +0.000 C 
ATOM     28  C   UNL     1      -6.737   3.065 129.737  0.00  0.00    +0.000 C 
ATOM     29  C   UNL     1      -7.874   0.845 129.363  0.00  0.00    +0.000 C 
ATOM     30  C   UNL     1      -9.221   2.869 129.935  0.00  0.00    +0.000 C 
ENDBRANCH  25  27
ENDBRANCH  24  25
ENDBRANCH  21  24
ENDBRANCH  20  21
ENDBRANCH  19  20
ENDBRANCH   4  19
TORSDOF 11
ENDMDL
MODEL 6
REMARK VINA RESULT:      -6.3      4.725      6.906
REMARK  Name = Celiprolol
REMARK  17 active torsions:
REMARK  status: ('A' for Active; 'I' for Inactive)
REMARK    1  A    between atoms: C_1  and  C_2
REMARK    2  A    between atoms: C_2  and  N_3
REMARK    3  A    between atoms: N_3  and  C_4
REMARK    4  A    between atoms: C_4  and  C_5
REMARK    5  A    between atoms: N_8  and  C_9
REMARK    6  A    between atoms: C_12  and  O_13
REMARK    7  A    between atoms: O_13  and  C_14
REMARK    8  A    between atoms: C_14  and  C_15
REMARK    9  A    between atoms: C_15  and  O_16
REMARK   10  A    between atoms: C_15  and  C_17
REMARK   11  A    between atoms: C_17  and  N_18
REMARK   12  A    between atoms: N_18  and  C_19
REMARK   13  A    between atoms: C_19  and  C_20
REMARK   14  A    between atoms: C_19  and  C_21
REMARK   15  A    between atoms: C_19  and  C_22
REMARK   16  A    between atoms: C_23  and  C_25
REMARK   17  A    between atoms: C_25  and  C_26
REMARK                            x       y       z     vdW  Elec       q    Type
REMARK                         _______ _______ _______ _____ _____    ______ ____
ROOT
ATOM      1  C   UNL     1      -7.623   0.651 126.536  0.00  0.00    +0.000 A 
ATOM      2  C   UNL     1      -8.164   0.412 127.796  0.00  0.00    +0.000 A 
ATOM      3  C   UNL     1      -8.202   1.443 128.761  0.00  0.00    +0.000 A 
ATOM      4  C   UNL     1      -7.672   2.738 128.525  0.00  0.00    +0.000 A 
ATOM      5  C   UNL     1      -7.156   3.004 127.207  0.00  0.00    +0.000 A 
ATOM      6  C   UNL     1      -7.143   1.934 126.271  0.00  0.00    +0.000 A 
ENDROOT
BRANCH   1  10
ATOM      7  N   UNL     1      -6.764  -2.247 124.316  0.00  0.00    +0.000 N 
ATOM      8  C   UNL     1      -6.670  -1.353 125.417  0.00  0.00    +0.000 C 
ATOM      9  O   UNL     1      -5.791  -1.503 126.268  0.00  0.00    +0.000 OA
ATOM     10  N   UNL     1      -7.630  -0.345 125.509  0.00  0.00    +0.000 N 
ATOM     11  H   UNL     1      -8.450  -0.387 124.928  0.00  0.00    +0.000 HD
BRANCH   7  13
ATOM     12  C   UNL     1      -4.556  -3.312 123.347  0.00  0.00    +0.000 C 
ATOM     13  C   UNL     1      -5.722  -3.319 124.327  0.00  0.00    +0.000 C 
ENDBRANCH   7  13
BRANCH   7  14
ATOM     14  C   UNL     1      -7.800  -2.103 123.274  0.00  0.00    +0.000 C 
ATOM     15  C   UNL     1      -9.069  -2.937 123.324  0.00  0.00    +0.000 C 
ENDBRANCH   7  14
ENDBRANCH   1  10
BRANCH   5  16
ATOM     16  C   UNL     1      -6.667   4.296 126.492  0.00  0.00    +0.000 C 
ATOM     17  C   UNL     1      -7.396   4.799 125.325  0.00  0.00    +0.000 C 
ATOM     18  O   UNL     1      -5.623   4.896 126.817  0.00  0.00    +0.000 OA
ENDBRANCH   5  16
BRANCH   4  19
ATOM     19  O   UNL     1      -7.773   3.460 129.724  0.00  0.00    +0.000 OA
BRANCH  19  20
ATOM     20  C   UNL     1      -8.997   4.086 130.030  0.00  0.00    +0.000 C 
BRANCH  20  21
ATOM     21  C   UNL     1      -9.422   5.510 129.729  0.00  0.00    +0.000 C 
BRANCH  21  22
ATOM     22  O   UNL     1      -9.289   5.796 128.345  0.00  0.00    +0.000 OA
ATOM     23  H   UNL     1      -9.375   4.949 127.875  0.00  0.00    +0.000 HD
ENDBRANCH  21  22
BRANCH  21  24
ATOM     24  C   UNL     1     -10.932   5.603 130.130  0.00  0.00    +0.000 C 
BRANCH  24  25
ATOM     25  N   UNL     1     -11.697   6.040 128.970  0.00  0.00    +0.000 NA
ATOM     26  H   UNL     1     -12.290   5.258 128.681  0.00  0.00    +0.000 HD
BRANCH  25  27
ATOM     27  C   UNL     1     -12.490   7.259 129.155  0.00  0.00    +0.000 C 
ATOM     28  C   UNL     1     -12.934   7.422 130.616  0.00  0.00    +0.000 C 
ATOM     29  C   UNL     1     -11.710   8.498 128.691  0.00  0.00    +0.000 C 
ATOM     30  C   UNL     1     -13.736   7.101 128.269  0.00  0.00    +0.000 C 
ENDBRANCH  25  27
ENDBRANCH  24  25
ENDBRANCH  21  24
ENDBRANCH  20  21
ENDBRANCH  19  20
ENDBRANCH   4  19
TORSDOF 11
ENDMDL
MODEL 7
REMARK VINA RESULT:      -6.3      5.573      7.649
REMARK  Name = Celiprolol
REMARK  17 active torsions:
REMARK  status: ('A' for Active; 'I' for Inactive)
REMARK    1  A    between atoms: C_1  and  C_2
REMARK    2  A    between atoms: C_2  and  N_3
REMARK    3  A    between atoms: N_3  and  C_4
REMARK    4  A    between atoms: C_4  and  C_5
REMARK    5  A    between atoms: N_8  and  C_9
REMARK    6  A    between atoms: C_12  and  O_13
REMARK    7  A    between atoms: O_13  and  C_14
REMARK    8  A    between atoms: C_14  and  C_15
REMARK    9  A    between atoms: C_15  and  O_16
REMARK   10  A    between atoms: C_15  and  C_17
REMARK   11  A    between atoms: C_17  and  N_18
REMARK   12  A    between atoms: N_18  and  C_19
REMARK   13  A    between atoms: C_19  and  C_20
REMARK   14  A    between atoms: C_19  and  C_21
REMARK   15  A    between atoms: C_19  and  C_22
REMARK   16  A    between atoms: C_23  and  C_25
REMARK   17  A    between atoms: C_25  and  C_26
REMARK                            x       y       z     vdW  Elec       q    Type
REMARK                         _______ _______ _______ _____ _____    ______ ____
ROOT
ATOM      1  C   UNL     1      -8.161   1.642 128.177  0.00  0.00    +0.000 A 
ATOM      2  C   UNL     1      -7.735   2.708 127.388  0.00  0.00    +0.000 A 
ATOM      3  C   UNL     1      -7.920   4.037 127.827  0.00  0.00    +0.000 A 
ATOM      4  C   UNL     1      -8.568   4.362 129.046  0.00  0.00    +0.000 A 
ATOM      5  C   UNL     1      -8.967   3.263 129.889  0.00  0.00    +0.000 A 
ATOM      6  C   UNL     1      -8.755   1.944 129.403  0.00  0.00    +0.000 A 
ENDROOT
BRANCH   1  10
ATOM      7  N   UNL     1      -8.209  -1.675 126.430  0.00  0.00    +0.000 N 
ATOM      8  C   UNL     1      -8.478  -0.299 126.658  0.00  0.00    +0.000 C 
ATOM      9  O   UNL     1      -9.141   0.350 125.845  0.00  0.00    +0.000 OA
ATOM     10  N   UNL     1      -7.928   0.282 127.802  0.00  0.00    +0.000 N 
ATOM     11  H   UNL     1      -7.221  -0.213 128.317  0.00  0.00    +0.000 HD
BRANCH   7  13
ATOM     12  C   UNL     1      -8.576  -3.632 124.702  0.00  0.00    +0.000 C 
ATOM     13  C   UNL     1      -8.800  -2.197 125.159  0.00  0.00    +0.000 C 
ENDBRANCH   7  13
BRANCH   7  14
ATOM     14  C   UNL     1      -7.421  -2.488 127.377  0.00  0.00    +0.000 C 
ATOM     15  C   UNL     1      -8.111  -3.312 128.451  0.00  0.00    +0.000 C 
ENDBRANCH   7  14
ENDBRANCH   1  10
BRANCH   5  16
ATOM     16  C   UNL     1      -9.523   3.176 131.339  0.00  0.00    +0.000 C 
ATOM     17  C   UNL     1      -9.872   1.870 131.903  0.00  0.00    +0.000 C 
ATOM     18  O   UNL     1      -9.763   4.182 132.034  0.00  0.00    +0.000 OA
ENDBRANCH   5  16
BRANCH   4  19
ATOM     19  O   UNL     1      -8.681   5.760 129.106  0.00  0.00    +0.000 OA
BRANCH  19  20
ATOM     20  C   UNL     1      -9.861   6.360 128.627  0.00  0.00    +0.000 C 
BRANCH  20  21
ATOM     21  C   UNL     1     -10.050   7.178 127.365  0.00  0.00    +0.000 C 
BRANCH  21  22
ATOM     22  O   UNL     1     -10.613   6.387 126.328  0.00  0.00    +0.000 OA
ATOM     23  H   UNL     1      -9.887   6.159 125.724  0.00  0.00    +0.000 HD
ENDBRANCH  21  22
BRANCH  21  24
ATOM     24  C   UNL     1     -11.051   8.323 127.739  0.00  0.00    +0.000 C 
BRANCH  24  25
ATOM     25  N   UNL     1     -11.294   8.280 129.174  0.00  0.00    +0.000 NA
ATOM     26  H   UNL     1     -10.771   9.051 129.598  0.00  0.00    +0.000 HD
BRANCH  25  27
ATOM     27  C   UNL     1     -12.702   8.316 129.581  0.00  0.00    +0.000 C 
ATOM     28  C   UNL     1     -13.184   9.756 129.803  0.00  0.00    +0.000 C 
ATOM     29  C   UNL     1     -13.590   7.605 128.548  0.00  0.00    +0.000 C 
ATOM     30  C   UNL     1     -12.785   7.551 130.912  0.00  0.00    +0.000 C 
ENDBRANCH  25  27
ENDBRANCH  24  25
ENDBRANCH  21  24
ENDBRANCH  20  21
ENDBRANCH  19  20
ENDBRANCH   4  19
TORSDOF 11
ENDMDL
MODEL 8
REMARK VINA RESULT:      -6.2      2.583      3.890
REMARK  Name = Celiprolol
REMARK  17 active torsions:
REMARK  status: ('A' for Active; 'I' for Inactive)
REMARK    1  A    between atoms: C_1  and  C_2
REMARK    2  A    between atoms: C_2  and  N_3
REMARK    3  A    between atoms: N_3  and  C_4
REMARK    4  A    between atoms: C_4  and  C_5
REMARK    5  A    between atoms: N_8  and  C_9
REMARK    6  A    between atoms: C_12  and  O_13
REMARK    7  A    between atoms: O_13  and  C_14
REMARK    8  A    between atoms: C_14  and  C_15
REMARK    9  A    between atoms: C_15  and  O_16
REMARK   10  A    between atoms: C_15  and  C_17
REMARK   11  A    between atoms: C_17  and  N_18
REMARK   12  A    between atoms: N_18  and  C_19
REMARK   13  A    between atoms: C_19  and  C_20
REMARK   14  A    between atoms: C_19  and  C_21
REMARK   15  A    between atoms: C_19  and  C_22
REMARK   16  A    between atoms: C_23  and  C_25
REMARK   17  A    between atoms: C_25  and  C_26
REMARK                            x       y       z     vdW  Elec       q    Type
REMARK                         _______ _______ _______ _____ _____    ______ ____
ROOT
ATOM      1  C   UNL     1      -7.054  -2.800 129.724  0.00  0.00    +0.000 A 
ATOM      2  C   UNL     1      -8.170  -3.561 129.383  0.00  0.00    +0.000 A 
ATOM      3  C   UNL     1      -8.678  -3.528 128.066  0.00  0.00    +0.000 A 
ATOM      4  C   UNL     1      -8.124  -2.712 127.047  0.00  0.00    +0.000 A 
ATOM      5  C   UNL     1      -6.940  -1.960 127.381  0.00  0.00    +0.000 A 
ATOM      6  C   UNL     1      -6.466  -2.031 128.720  0.00  0.00    +0.000 A 
ENDROOT
BRANCH   1  10
ATOM      7  N   UNL     1      -5.055  -3.798 132.735  0.00  0.00    +0.000 N 
ATOM      8  C   UNL     1      -5.520  -3.817 131.393  0.00  0.00    +0.000 C 
ATOM      9  O   UNL     1      -5.063  -4.632 130.587  0.00  0.00    +0.000 OA
ATOM     10  N   UNL     1      -6.467  -2.860 131.026  0.00  0.00    +0.000 N 
ATOM     11  H   UNL     1      -6.649  -2.085 131.639  0.00  0.00    +0.000 HD
BRANCH   7  13
ATOM     12  C   UNL     1      -4.236  -5.933 134.045  0.00  0.00    +0.000 C 
ATOM     13  C   UNL     1      -4.011  -4.829 133.022  0.00  0.00    +0.000 C 
ENDBRANCH   7  13
BRANCH   7  14
ATOM     14  C   UNL     1      -5.576  -2.840 133.731  0.00  0.00    +0.000 C 
ATOM     15  C   UNL     1      -4.630  -1.942 134.512  0.00  0.00    +0.000 C 
ENDBRANCH   7  14
ENDBRANCH   1  10
BRANCH   5  16
ATOM     16  C   UNL     1      -5.941  -1.113 126.544  0.00  0.00    +0.000 C 
ATOM     17  C   UNL     1      -5.544   0.216 127.016  0.00  0.00    +0.000 C 
ATOM     18  O   UNL     1      -5.509  -1.478 125.432  0.00  0.00    +0.000 OA
ENDBRANCH   5  16
BRANCH   4  19
ATOM     19  O   UNL     1      -8.940  -2.838 125.913  0.00  0.00    +0.000 OA
BRANCH  19  20
ATOM     20  C   UNL     1      -8.338  -3.177 124.686  0.00  0.00    +0.000 C 
BRANCH  20  21
ATOM     21  C   UNL     1      -8.948  -3.129 123.298  0.00  0.00    +0.000 C 
BRANCH  21  22
ATOM     22  O   UNL     1     -10.319  -3.495 123.336  0.00  0.00    +0.000 OA
ATOM     23  H   UNL     1     -10.828  -2.698 123.111  0.00  0.00    +0.000 HD
ENDBRANCH  21  22
BRANCH  21  24
ATOM     24  C   UNL     1      -8.826  -1.643 122.824  0.00  0.00    +0.000 C 
BRANCH  24  25
ATOM     25  N   UNL     1      -8.115  -0.884 123.845  0.00  0.00    +0.000 NA
ATOM     26  H   UNL     1      -7.129  -0.855 123.575  0.00  0.00    +0.000 HD
BRANCH  25  27
ATOM     27  C   UNL     1      -8.628   0.465 124.105  0.00  0.00    +0.000 C 
ATOM     28  C   UNL     1      -9.255   0.566 125.502  0.00  0.00    +0.000 C 
ATOM     29  C   UNL     1      -7.521   1.516 123.936  0.00  0.00    +0.000 C 
ATOM     30  C   UNL     1      -9.717   0.721 123.050  0.00  0.00    +0.000 C 
ENDBRANCH  25  27
ENDBRANCH  24  25
ENDBRANCH  21  24
ENDBRANCH  20  21
ENDBRANCH  19  20
ENDBRANCH   4  19
TORSDOF 11
ENDMDL
MODEL 9
REMARK VINA RESULT:      -6.2      7.317     11.046
REMARK  Name = Celiprolol
REMARK  17 active torsions:
REMARK  status: ('A' for Active; 'I' for Inactive)
REMARK    1  A    between atoms: C_1  and  C_2
REMARK    2  A    between atoms: C_2  and  N_3
REMARK    3  A    between atoms: N_3  and  C_4
REMARK    4  A    between atoms: C_4  and  C_5
REMARK    5  A    between atoms: N_8  and  C_9
REMARK    6  A    between atoms: C_12  and  O_13
REMARK    7  A    between atoms: O_13  and  C_14
REMARK    8  A    between atoms: C_14  and  C_15
REMARK    9  A    between atoms: C_15  and  O_16
REMARK   10  A    between atoms: C_15  and  C_17
REMARK   11  A    between atoms: C_17  and  N_18
REMARK   12  A    between atoms: N_18  and  C_19
REMARK   13  A    between atoms: C_19  and  C_20
REMARK   14  A    between atoms: C_19  and  C_21
REMARK   15  A    between atoms: C_19  and  C_22
REMARK   16  A    between atoms: C_23  and  C_25
REMARK   17  A    between atoms: C_25  and  C_26
REMARK                            x       y       z     vdW  Elec       q    Type
REMARK                         _______ _______ _______ _____ _____    ______ ____
ROOT
ATOM      1  C   UNL     1      -8.899   6.207 131.084  0.00  0.00    +0.000 A 
ATOM      2  C   UNL     1      -7.632   6.780 131.151  0.00  0.00    +0.000 A 
ATOM      3  C   UNL     1      -6.538   6.033 131.640  0.00  0.00    +0.000 A 
ATOM      4  C   UNL     1      -6.666   4.703 132.117  0.00  0.00    +0.000 A 
ATOM      5  C   UNL     1      -7.965   4.089 132.004  0.00  0.00    +0.000 A 
ATOM      6  C   UNL     1      -9.032   4.883 131.501  0.00  0.00    +0.000 A 
ENDROOT
BRANCH   1  10
ATOM      7  N   UNL     1     -11.371   7.770 128.737  0.00  0.00    +0.000 N 
ATOM      8  C   UNL     1     -10.252   7.002 129.157  0.00  0.00    +0.000 C 
ATOM      9  O   UNL     1      -9.550   6.419 128.327  0.00  0.00    +0.000 OA
ATOM     10  N   UNL     1     -10.017   6.905 130.529  0.00  0.00    +0.000 N 
ATOM     11  H   UNL     1     -10.727   7.205 131.174  0.00  0.00    +0.000 HD
BRANCH   7  13
ATOM     12  C   UNL     1     -12.651   6.942 126.586  0.00  0.00    +0.000 C 
ATOM     13  C   UNL     1     -11.568   7.779 127.255  0.00  0.00    +0.000 C 
ENDBRANCH   7  13
BRANCH   7  14
ATOM     14  C   UNL     1     -12.236   8.484 129.696  0.00  0.00    +0.000 C 
ATOM     15  C   UNL     1     -12.992   9.734 129.277  0.00  0.00    +0.000 C 
ENDBRANCH   7  14
ENDBRANCH   1  10
BRANCH   5  16
ATOM     16  C   UNL     1      -8.484   2.641 132.228  0.00  0.00    +0.000 C 
ATOM     17  C   UNL     1      -8.277   1.627 131.190  0.00  0.00    +0.000 C 
ATOM     18  O   UNL     1      -9.148   2.306 133.229  0.00  0.00    +0.000 OA
ENDBRANCH   5  16
BRANCH   4  19
ATOM     19  O   UNL     1      -5.418   4.316 132.629  0.00  0.00    +0.000 OA
BRANCH  19  20
ATOM     20  C   UNL     1      -4.750   5.193 133.506  0.00  0.00    +0.000 C 
BRANCH  20  21
ATOM     21  C   UNL     1      -3.460   4.955 134.265  0.00  0.00    +0.000 C 
BRANCH  21  22
ATOM     22  O   UNL     1      -3.424   3.641 134.802  0.00  0.00    +0.000 OA
ATOM     23  H   UNL     1      -4.170   3.157 134.410  0.00  0.00    +0.000 HD
ENDBRANCH  21  22
BRANCH  21  24
ATOM     24  C   UNL     1      -2.307   5.113 133.218  0.00  0.00    +0.000 C 
BRANCH  24  25
ATOM     25  N   UNL     1      -2.892   5.459 131.929  0.00  0.00    +0.000 NA
ATOM     26  H   UNL     1      -3.890   5.627 132.080  0.00  0.00    +0.000 HD
BRANCH  25  27
ATOM     27  C   UNL     1      -2.269   6.588 131.233  0.00  0.00    +0.000 C 
ATOM     28  C   UNL     1      -2.231   6.359 129.716  0.00  0.00    +0.000 C 
ATOM     29  C   UNL     1      -2.994   7.903 131.559  0.00  0.00    +0.000 C 
ATOM     30  C   UNL     1      -0.827   6.677 131.760  0.00  0.00    +0.000 C 
ENDBRANCH  25  27
ENDBRANCH  24  25
ENDBRANCH  21  24
ENDBRANCH  20  21
ENDBRANCH  19  20
ENDBRANCH   4  19
TORSDOF 11
ENDMDL
