MODEL 1
REMARK VINA RESULT:      -6.5      0.000      0.000
REMARK  Name = Cenobamate
REMARK  5 active torsions:
REMARK  status: ('A' for Active; 'I' for Inactive)
REMARK    1  A    between atoms: C_2  and  O_4
REMARK    2  A    between atoms: O_4  and  C_5
REMARK    3  A    between atoms: C_5  and  C_6
REMARK    4  A    between atoms: C_5  and  C_12
REMARK    5  A    between atoms: C_6  and  N_7
REMARK                            x       y       z     vdW  Elec       q    Type
REMARK                         _______ _______ _______ _____ _____    ______ ____
ROOT
ATOM      1  C   UNL     1      -8.161   2.767 122.774  0.00  0.00    +0.000 C 
ENDROOT
BRANCH   1   2
ATOM      2  C   UNL     1      -7.970   3.424 121.384  0.00  0.00    +0.000 A 
ATOM      3  C   UNL     1      -6.715   3.852 120.905  0.00  0.00    +0.000 A 
ATOM      4 CL   UNL     1      -5.268   3.695 121.833  0.00  0.00    +0.000 Cl
ATOM      5  C   UNL     1      -6.582   4.433 119.629  0.00  0.00    +0.000 A 
ATOM      6  C   UNL     1      -7.691   4.609 118.806  0.00  0.00    +0.000 A 
ATOM      7  C   UNL     1      -8.939   4.200 119.254  0.00  0.00    +0.000 A 
ATOM      8  C   UNL     1      -9.077   3.622 120.524  0.00  0.00    +0.000 A 
ENDBRANCH   1   2
BRANCH   1   9
ATOM      9  O   UNL     1      -8.289   3.853 123.744  0.00  0.00    +0.000 OA
BRANCH   9  11
ATOM     10  N   UNL     1      -7.059   2.668 125.234  0.00  0.00    +0.000 N 
ATOM     11  C   UNL     1      -8.067   3.549 125.048  0.00  0.00    +0.000 C 
ATOM     12  O   UNL     1      -8.656   3.996 126.018  0.00  0.00    +0.000 OA
ATOM     13  H   UNL     1      -6.849   2.461 126.202  0.00  0.00    +0.000 HD
ATOM     14  H   UNL     1      -6.779   2.022 124.516  0.00  0.00    +0.000 HD
ENDBRANCH   9  11
ENDBRANCH   1   9
BRANCH   1  15
ATOM     15  C   UNL     1      -9.415   1.854 122.741  0.00  0.00    +0.000 C 
BRANCH  15  16
ATOM     16  N   UNL     1      -9.189   0.454 123.007  0.00  0.00    +0.000 N 
ATOM     17  N   UNL     1      -8.182  -0.003 123.774  0.00  0.00    +0.000 NA
ATOM     18  C   UNL     1      -8.668  -1.224 124.044  0.00  0.00    +0.000 A 
ATOM     19  N   UNL     1      -9.750  -1.564 123.286  0.00  0.00    +0.000 NA
ATOM     20  N   UNL     1     -10.062  -0.482 122.586  0.00  0.00    +0.000 NA
ENDBRANCH  15  16
ENDBRANCH   1  15
TORSDOF 5
ENDMDL
MODEL 2
REMARK VINA RESULT:      -6.1      4.490      7.540
REMARK  Name = Cenobamate
REMARK  5 active torsions:
REMARK  status: ('A' for Active; 'I' for Inactive)
REMARK    1  A    between atoms: C_2  and  O_4
REMARK    2  A    between atoms: O_4  and  C_5
REMARK    3  A    between atoms: C_5  and  C_6
REMARK    4  A    between atoms: C_5  and  C_12
REMARK    5  A    between atoms: C_6  and  N_7
REMARK                            x       y       z     vdW  Elec       q    Type
REMARK                         _______ _______ _______ _____ _____    ______ ____
ROOT
ATOM      1  C   UNL     1      -7.126  -2.836 124.422  0.00  0.00    +0.000 C 
ENDROOT
BRANCH   1   2
ATOM      2  C   UNL     1      -7.513  -2.908 125.919  0.00  0.00    +0.000 A 
ATOM      3  C   UNL     1      -6.809  -2.219 126.928  0.00  0.00    +0.000 A 
ATOM      4 CL   UNL     1      -5.433  -1.234 126.586  0.00  0.00    +0.000 Cl
ATOM      5  C   UNL     1      -7.202  -2.301 128.277  0.00  0.00    +0.000 A 
ATOM      6  C   UNL     1      -8.297  -3.074 128.656  0.00  0.00    +0.000 A 
ATOM      7  C   UNL     1      -9.006  -3.766 127.684  0.00  0.00    +0.000 A 
ATOM      8  C   UNL     1      -8.618  -3.689 126.339  0.00  0.00    +0.000 A 
ENDBRANCH   1   2
BRANCH   1   9
ATOM      9  O   UNL     1      -6.393  -4.063 124.112  0.00  0.00    +0.000 OA
BRANCH   9  11
ATOM     10  N   UNL     1      -4.458  -5.117 123.586  0.00  0.00    +0.000 N 
ATOM     11  C   UNL     1      -5.085  -3.936 123.772  0.00  0.00    +0.000 C 
ATOM     12  O   UNL     1      -4.466  -2.898 123.610  0.00  0.00    +0.000 OA
ATOM     13  H   UNL     1      -3.493  -5.045 123.291  0.00  0.00    +0.000 HD
ATOM     14  H   UNL     1      -4.781  -5.965 124.022  0.00  0.00    +0.000 HD
ENDBRANCH   9  11
ENDBRANCH   1   9
BRANCH   1  15
ATOM     15  C   UNL     1      -8.410  -2.683 123.567  0.00  0.00    +0.000 C 
BRANCH  15  16
ATOM     16  N   UNL     1      -8.963  -1.353 123.481  0.00  0.00    +0.000 N 
ATOM     17  N   UNL     1      -8.360  -0.264 123.994  0.00  0.00    +0.000 NA
ATOM     18  C   UNL     1      -9.009   0.678 123.294  0.00  0.00    +0.000 A 
ATOM     19  N   UNL     1     -10.092   0.206 122.611  0.00  0.00    +0.000 NA
ATOM     20  N   UNL     1     -10.080  -1.110 122.767  0.00  0.00    +0.000 NA
ENDBRANCH  15  16
ENDBRANCH   1  15
TORSDOF 5
ENDMDL
MODEL 3
REMARK VINA RESULT:      -5.9      3.727      6.268
REMARK  Name = Cenobamate
REMARK  5 active torsions:
REMARK  status: ('A' for Active; 'I' for Inactive)
REMARK    1  A    between atoms: C_2  and  O_4
REMARK    2  A    between atoms: O_4  and  C_5
REMARK    3  A    between atoms: C_5  and  C_6
REMARK    4  A    between atoms: C_5  and  C_12
REMARK    5  A    between atoms: C_6  and  N_7
REMARK                            x       y       z     vdW  Elec       q    Type
REMARK                         _______ _______ _______ _____ _____    ______ ____
ROOT
ATOM      1  C   UNL     1      -8.457   0.343 124.829  0.00  0.00    +0.000 C 
ENDROOT
BRANCH   1   2
ATOM      2  C   UNL     1      -8.335  -1.199 124.908  0.00  0.00    +0.000 A 
ATOM      3  C   UNL     1      -7.508  -1.948 124.046  0.00  0.00    +0.000 A 
ATOM      4 CL   UNL     1      -6.558  -1.214 122.806  0.00  0.00    +0.000 Cl
ATOM      5  C   UNL     1      -7.416  -3.349 124.160  0.00  0.00    +0.000 A 
ATOM      6  C   UNL     1      -8.148  -4.036 125.125  0.00  0.00    +0.000 A 
ATOM      7  C   UNL     1      -8.973  -3.324 125.984  0.00  0.00    +0.000 A 
ATOM      8  C   UNL     1      -9.069  -1.930 125.874  0.00  0.00    +0.000 A 
ENDBRANCH   1   2
BRANCH   1   9
ATOM      9  O   UNL     1      -9.843   0.643 124.475  0.00  0.00    +0.000 OA
BRANCH   9  11
ATOM     10  N   UNL     1      -9.385   2.055 122.763  0.00  0.00    +0.000 N 
ATOM     11  C   UNL     1     -10.095   0.986 123.186  0.00  0.00    +0.000 C 
ATOM     12  O   UNL     1     -10.853   0.427 122.412  0.00  0.00    +0.000 OA
ATOM     13  H   UNL     1      -9.526   2.301 121.792  0.00  0.00    +0.000 HD
ATOM     14  H   UNL     1      -9.030   2.745 123.403  0.00  0.00    +0.000 HD
ENDBRANCH   9  11
ENDBRANCH   1   9
BRANCH   1  15
ATOM     15  C   UNL     1      -8.048   0.960 126.191  0.00  0.00    +0.000 C 
BRANCH  15  16
ATOM     16  N   UNL     1      -7.916   2.396 126.225  0.00  0.00    +0.000 N 
ATOM     17  N   UNL     1      -7.546   3.133 125.162  0.00  0.00    +0.000 NA
ATOM     18  C   UNL     1      -7.995   4.328 125.574  0.00  0.00    +0.000 A 
ATOM     19  N   UNL     1      -8.366   4.352 126.887  0.00  0.00    +0.000 NA
ATOM     20  N   UNL     1      -8.277   3.101 127.317  0.00  0.00    +0.000 NA
ENDBRANCH  15  16
ENDBRANCH   1  15
TORSDOF 5
ENDMDL
MODEL 4
REMARK VINA RESULT:      -5.8      3.806      7.193
REMARK  Name = Cenobamate
REMARK  5 active torsions:
REMARK  status: ('A' for Active; 'I' for Inactive)
REMARK    1  A    between atoms: C_2  and  O_4
REMARK    2  A    between atoms: O_4  and  C_5
REMARK    3  A    between atoms: C_5  and  C_6
REMARK    4  A    between atoms: C_5  and  C_12
REMARK    5  A    between atoms: C_6  and  N_7
REMARK                            x       y       z     vdW  Elec       q    Type
REMARK                         _______ _______ _______ _____ _____    ______ ____
ROOT
ATOM      1  C   UNL     1      -8.286  -0.339 125.633  0.00  0.00    +0.000 C 
ENDROOT
BRANCH   1   2
ATOM      2  C   UNL     1      -8.333  -1.521 126.633  0.00  0.00    +0.000 A 
ATOM      3  C   UNL     1      -8.815  -2.800 126.287  0.00  0.00    +0.000 A 
ATOM      4 CL   UNL     1      -9.414  -3.167 124.710  0.00  0.00    +0.000 Cl
ATOM      5  C   UNL     1      -8.829  -3.851 127.224  0.00  0.00    +0.000 A 
ATOM      6  C   UNL     1      -8.372  -3.654 128.524  0.00  0.00    +0.000 A 
ATOM      7  C   UNL     1      -7.895  -2.404 128.893  0.00  0.00    +0.000 A 
ATOM      8  C   UNL     1      -7.880  -1.354 127.965  0.00  0.00    +0.000 A 
ENDBRANCH   1   2
BRANCH   1   9
ATOM      9  O   UNL     1      -9.670   0.048 125.366  0.00  0.00    +0.000 OA
BRANCH   9  11
ATOM     10  N   UNL     1     -10.575   1.616 124.003  0.00  0.00    +0.000 N 
ATOM     11  C   UNL     1      -9.980   0.407 124.094  0.00  0.00    +0.000 C 
ATOM     12  O   UNL     1      -9.759  -0.229 123.077  0.00  0.00    +0.000 OA
ATOM     13  H   UNL     1     -10.776   1.921 123.059  0.00  0.00    +0.000 HD
ATOM     14  H   UNL     1     -11.083   2.018 124.773  0.00  0.00    +0.000 HD
ENDBRANCH   9  11
ENDBRANCH   1   9
BRANCH   1  15
ATOM     15  C   UNL     1      -7.456   0.819 126.246  0.00  0.00    +0.000 C 
BRANCH  15  16
ATOM     16  N   UNL     1      -7.586   2.104 125.603  0.00  0.00    +0.000 N 
ATOM     17  N   UNL     1      -6.946   2.433 124.466  0.00  0.00    +0.000 NA
ATOM     18  C   UNL     1      -7.711   3.470 124.093  0.00  0.00    +0.000 A 
ATOM     19  N   UNL     1      -8.576   3.890 125.061  0.00  0.00    +0.000 NA
ATOM     20  N   UNL     1      -8.464   3.021 126.056  0.00  0.00    +0.000 NA
ENDBRANCH  15  16
ENDBRANCH   1  15
TORSDOF 5
ENDMDL
MODEL 5
REMARK VINA RESULT:      -5.8      8.264      9.449
REMARK  Name = Cenobamate
REMARK  5 active torsions:
REMARK  status: ('A' for Active; 'I' for Inactive)
REMARK    1  A    between atoms: C_2  and  O_4
REMARK    2  A    between atoms: O_4  and  C_5
REMARK    3  A    between atoms: C_5  and  C_6
REMARK    4  A    between atoms: C_5  and  C_12
REMARK    5  A    between atoms: C_6  and  N_7
REMARK                            x       y       z     vdW  Elec       q    Type
REMARK                         _______ _______ _______ _____ _____    ______ ____
ROOT
ATOM      1  C   UNL     1     -10.576   5.911 130.780  0.00  0.00    +0.000 C 
ENDROOT
BRANCH   1   2
ATOM      2  C   UNL     1     -11.390   7.102 130.219  0.00  0.00    +0.000 A 
ATOM      3  C   UNL     1     -11.239   7.582 128.902  0.00  0.00    +0.000 A 
ATOM      4 CL   UNL     1     -10.116   6.890 127.789  0.00  0.00    +0.000 Cl
ATOM      5  C   UNL     1     -12.009   8.661 128.427  0.00  0.00    +0.000 A 
ATOM      6  C   UNL     1     -12.939   9.291 129.250  0.00  0.00    +0.000 A 
ATOM      7  C   UNL     1     -13.106   8.842 130.552  0.00  0.00    +0.000 A 
ATOM      8  C   UNL     1     -12.341   7.769 131.030  0.00  0.00    +0.000 A 
ENDBRANCH   1   2
BRANCH   1   9
ATOM      9  O   UNL     1     -10.581   6.039 132.236  0.00  0.00    +0.000 OA
BRANCH   9  11
ATOM     10  N   UNL     1      -9.701   4.447 133.587  0.00  0.00    +0.000 N 
ATOM     11  C   UNL     1      -9.487   5.591 132.902  0.00  0.00    +0.000 C 
ATOM     12  O   UNL     1      -8.378   6.099 132.918  0.00  0.00    +0.000 OA
ATOM     13  H   UNL     1      -8.886   4.073 134.057  0.00  0.00    +0.000 HD
ATOM     14  H   UNL     1     -10.619   4.177 133.897  0.00  0.00    +0.000 HD
ENDBRANCH   9  11
ENDBRANCH   1   9
BRANCH   1  15
ATOM     15  C   UNL     1     -11.216   4.582 130.302  0.00  0.00    +0.000 C 
BRANCH  15  16
ATOM     16  N   UNL     1     -10.365   3.417 130.335  0.00  0.00    +0.000 N 
ATOM     17  N   UNL     1      -9.422   3.160 129.410  0.00  0.00    +0.000 NA
ATOM     18  C   UNL     1      -8.683   2.285 130.109  0.00  0.00    +0.000 A 
ATOM     19  N   UNL     1      -9.282   1.855 131.257  0.00  0.00    +0.000 NA
ATOM     20  N   UNL     1     -10.393   2.566 131.381  0.00  0.00    +0.000 NA
ENDBRANCH  15  16
ENDBRANCH   1  15
TORSDOF 5
ENDMDL
MODEL 6
REMARK VINA RESULT:      -5.7      3.766      7.257
REMARK  Name = Cenobamate
REMARK  5 active torsions:
REMARK  status: ('A' for Active; 'I' for Inactive)
REMARK    1  A    between atoms: C_2  and  O_4
REMARK    2  A    between atoms: O_4  and  C_5
REMARK    3  A    between atoms: C_5  and  C_6
REMARK    4  A    between atoms: C_5  and  C_12
REMARK    5  A    between atoms: C_6  and  N_7
REMARK                            x       y       z     vdW  Elec       q    Type
REMARK                         _______ _______ _______ _____ _____    ______ ____
ROOT
ATOM      1  C   UNL     1      -8.390  -1.051 125.432  0.00  0.00    +0.000 C 
ENDROOT
BRANCH   1   2
ATOM      2  C   UNL     1      -8.262  -1.944 126.691  0.00  0.00    +0.000 A 
ATOM      3  C   UNL     1      -7.400  -1.639 127.763  0.00  0.00    +0.000 A 
ATOM      4 CL   UNL     1      -6.389  -0.239 127.768  0.00  0.00    +0.000 Cl
ATOM      5  C   UNL     1      -7.323  -2.471 128.897  0.00  0.00    +0.000 A 
ATOM      6  C   UNL     1      -8.094  -3.627 128.986  0.00  0.00    +0.000 A 
ATOM      7  C   UNL     1      -8.949  -3.954 127.943  0.00  0.00    +0.000 A 
ATOM      8  C   UNL     1      -9.028  -3.129 126.812  0.00  0.00    +0.000 A 
ENDBRANCH   1   2
BRANCH   1   9
ATOM      9  O   UNL     1      -9.231  -1.775 124.480  0.00  0.00    +0.000 OA
BRANCH   9  11
ATOM     10  N   UNL     1      -7.970  -1.524 122.614  0.00  0.00    +0.000 N 
ATOM     11  C   UNL     1      -9.186  -1.376 123.184  0.00  0.00    +0.000 C 
ATOM     12  O   UNL     1     -10.108  -0.936 122.518  0.00  0.00    +0.000 OA
ATOM     13  H   UNL     1      -7.925  -1.272 121.635  0.00  0.00    +0.000 HD
ATOM     14  H   UNL     1      -7.125  -1.542 123.161  0.00  0.00    +0.000 HD
ENDBRANCH   9  11
ENDBRANCH   1   9
BRANCH   1  15
ATOM     15  C   UNL     1      -8.996   0.318 125.834  0.00  0.00    +0.000 C 
BRANCH  15  16
ATOM     16  N   UNL     1      -8.481   1.472 125.136  0.00  0.00    +0.000 N 
ATOM     17  N   UNL     1      -7.434   1.421 124.291  0.00  0.00    +0.000 NA
ATOM     18  C   UNL     1      -7.652   2.566 123.627  0.00  0.00    +0.000 A 
ATOM     19  N   UNL     1      -8.598   3.364 124.203  0.00  0.00    +0.000 NA
ATOM     20  N   UNL     1      -9.108   2.663 125.206  0.00  0.00    +0.000 NA
ENDBRANCH  15  16
ENDBRANCH   1  15
TORSDOF 5
ENDMDL
MODEL 7
REMARK VINA RESULT:      -5.7      4.296      6.683
REMARK  Name = Cenobamate
REMARK  5 active torsions:
REMARK  status: ('A' for Active; 'I' for Inactive)
REMARK    1  A    between atoms: C_2  and  O_4
REMARK    2  A    between atoms: O_4  and  C_5
REMARK    3  A    between atoms: C_5  and  C_6
REMARK    4  A    between atoms: C_5  and  C_12
REMARK    5  A    between atoms: C_6  and  N_7
REMARK                            x       y       z     vdW  Elec       q    Type
REMARK                         _______ _______ _______ _____ _____    ______ ____
ROOT
ATOM      1  C   UNL     1      -8.461  -0.290 125.186  0.00  0.00    +0.000 C 
ENDROOT
BRANCH   1   2
ATOM      2  C   UNL     1      -8.435  -1.405 126.261  0.00  0.00    +0.000 A 
ATOM      3  C   UNL     1      -8.860  -2.725 126.009  0.00  0.00    +0.000 A 
ATOM      4 CL   UNL     1      -9.465  -3.223 124.471  0.00  0.00    +0.000 Cl
ATOM      5  C   UNL     1      -8.807  -3.712 127.012  0.00  0.00    +0.000 A 
ATOM      6  C   UNL     1      -8.339  -3.409 128.287  0.00  0.00    +0.000 A 
ATOM      7  C   UNL     1      -7.918  -2.116 128.565  0.00  0.00    +0.000 A 
ATOM      8  C   UNL     1      -7.970  -1.129 127.571  0.00  0.00    +0.000 A 
ENDBRANCH   1   2
BRANCH   1   9
ATOM      9  O   UNL     1      -9.187   0.840 125.763  0.00  0.00    +0.000 OA
BRANCH   9  11
ATOM     10  N   UNL     1     -10.371   1.601 123.987  0.00  0.00    +0.000 N 
ATOM     11  C   UNL     1      -9.460   1.886 124.942  0.00  0.00    +0.000 C 
ATOM     12  O   UNL     1      -8.989   3.010 125.002  0.00  0.00    +0.000 OA
ATOM     13  H   UNL     1     -10.621   2.379 123.390  0.00  0.00    +0.000 HD
ATOM     14  H   UNL     1     -10.529   0.659 123.667  0.00  0.00    +0.000 HD
ENDBRANCH   9  11
ENDBRANCH   1   9
BRANCH   1  15
ATOM     15  C   UNL     1      -7.007   0.079 124.794  0.00  0.00    +0.000 C 
BRANCH  15  16
ATOM     16  N   UNL     1      -6.260  -0.938 124.094  0.00  0.00    +0.000 N 
ATOM     17  N   UNL     1      -5.346  -1.728 124.686  0.00  0.00    +0.000 NA
ATOM     18  C   UNL     1      -5.299  -2.709 123.773  0.00  0.00    +0.000 A 
ATOM     19  N   UNL     1      -5.936  -2.401 122.605  0.00  0.00    +0.000 NA
ATOM     20  N   UNL     1      -6.527  -1.232 122.806  0.00  0.00    +0.000 NA
ENDBRANCH  15  16
ENDBRANCH   1  15
TORSDOF 5
ENDMDL
MODEL 8
REMARK VINA RESULT:      -5.6      3.195      5.444
REMARK  Name = Cenobamate
REMARK  5 active torsions:
REMARK  status: ('A' for Active; 'I' for Inactive)
REMARK    1  A    between atoms: C_2  and  O_4
REMARK    2  A    between atoms: O_4  and  C_5
REMARK    3  A    between atoms: C_5  and  C_6
REMARK    4  A    between atoms: C_5  and  C_12
REMARK    5  A    between atoms: C_6  and  N_7
REMARK                            x       y       z     vdW  Elec       q    Type
REMARK                         _______ _______ _______ _____ _____    ______ ____
ROOT
ATOM      1  C   UNL     1      -8.095   1.478 123.874  0.00  0.00    +0.000 C 
ENDROOT
BRANCH   1   2
ATOM      2  C   UNL     1      -8.064  -0.070 123.844  0.00  0.00    +0.000 A 
ATOM      3  C   UNL     1      -7.083  -0.831 124.512  0.00  0.00    +0.000 A 
ATOM      4 CL   UNL     1      -5.809  -0.103 125.422  0.00  0.00    +0.000 Cl
ATOM      5  C   UNL     1      -7.098  -2.238 124.471  0.00  0.00    +0.000 A 
ATOM      6  C   UNL     1      -8.082  -2.920 123.759  0.00  0.00    +0.000 A 
ATOM      7  C   UNL     1      -9.058  -2.196 123.089  0.00  0.00    +0.000 A 
ATOM      8  C   UNL     1      -9.046  -0.795 123.126  0.00  0.00    +0.000 A 
ENDBRANCH   1   2
BRANCH   1   9
ATOM      9  O   UNL     1      -8.823   1.912 122.683  0.00  0.00    +0.000 OA
BRANCH   9  11
ATOM     10  N   UNL     1      -7.252   3.543 122.580  0.00  0.00    +0.000 N 
ATOM     11  C   UNL     1      -8.425   3.072 122.101  0.00  0.00    +0.000 C 
ATOM     12  O   UNL     1      -8.997   3.683 121.214  0.00  0.00    +0.000 OA
ATOM     13  H   UNL     1      -6.916   4.384 122.129  0.00  0.00    +0.000 HD
ATOM     14  H   UNL     1      -6.920   3.306 123.500  0.00  0.00    +0.000 HD
ENDBRANCH   9  11
ENDBRANCH   1   9
BRANCH   1  15
ATOM     15  C   UNL     1      -8.772   1.952 125.186  0.00  0.00    +0.000 C 
BRANCH  15  16
ATOM     16  N   UNL     1      -8.189   3.110 125.820  0.00  0.00    +0.000 N 
ATOM     17  N   UNL     1      -7.152   3.045 126.675  0.00  0.00    +0.000 NA
ATOM     18  C   UNL     1      -6.751   4.324 126.608  0.00  0.00    +0.000 A 
ATOM     19  N   UNL     1      -7.636   5.144 125.970  0.00  0.00    +0.000 NA
ATOM     20  N   UNL     1      -8.588   4.355 125.491  0.00  0.00    +0.000 NA
ENDBRANCH  15  16
ENDBRANCH   1  15
TORSDOF 5
ENDMDL
MODEL 9
REMARK VINA RESULT:      -5.5      3.080      5.332
REMARK  Name = Cenobamate
REMARK  5 active torsions:
REMARK  status: ('A' for Active; 'I' for Inactive)
REMARK    1  A    between atoms: C_2  and  O_4
REMARK    2  A    between atoms: O_4  and  C_5
REMARK    3  A    between atoms: C_5  and  C_6
REMARK    4  A    between atoms: C_5  and  C_12
REMARK    5  A    between atoms: C_6  and  N_7
REMARK                            x       y       z     vdW  Elec       q    Type
REMARK                         _______ _______ _______ _____ _____    ______ ____
ROOT
ATOM      1  C   UNL     1      -7.856   1.374 123.341  0.00  0.00    +0.000 C 
ENDROOT
BRANCH   1   2
ATOM      2  C   UNL     1      -7.010   0.160 123.799  0.00  0.00    +0.000 A 
ATOM      3  C   UNL     1      -6.247   0.160 124.984  0.00  0.00    +0.000 A 
ATOM      4 CL   UNL     1      -6.176   1.526 126.038  0.00  0.00    +0.000 Cl
ATOM      5  C   UNL     1      -5.501  -0.970 125.371  0.00  0.00    +0.000 A 
ATOM      6  C   UNL     1      -5.489  -2.120 124.586  0.00  0.00    +0.000 A 
ATOM      7  C   UNL     1      -6.228  -2.146 123.412  0.00  0.00    +0.000 A 
ATOM      8  C   UNL     1      -6.971  -1.023 123.021  0.00  0.00    +0.000 A 
ENDBRANCH   1   2
BRANCH   1   9
ATOM      9  O   UNL     1      -8.643   1.804 124.495  0.00  0.00    +0.000 OA
BRANCH   9  11
ATOM     10  N   UNL     1      -9.865   0.475 125.865  0.00  0.00    +0.000 N 
ATOM     11  C   UNL     1      -9.826   1.175 124.710  0.00  0.00    +0.000 C 
ATOM     12  O   UNL     1     -10.813   1.202 123.994  0.00  0.00    +0.000 OA
ATOM     13  H   UNL     1     -10.752   0.033 126.065  0.00  0.00    +0.000 HD
ATOM     14  H   UNL     1      -9.028   0.131 126.306  0.00  0.00    +0.000 HD
ENDBRANCH   9  11
ENDBRANCH   1   9
BRANCH   1  15
ATOM     15  C   UNL     1      -6.913   2.489 122.820  0.00  0.00    +0.000 C 
BRANCH  15  16
ATOM     16  N   UNL     1      -7.429   3.313 121.754  0.00  0.00    +0.000 N 
ATOM     17  N   UNL     1      -6.652   3.892 120.820  0.00  0.00    +0.000 NA
ATOM     18  C   UNL     1      -7.591   4.132 119.892  0.00  0.00    +0.000 A 
ATOM     19  N   UNL     1      -8.866   3.950 120.342  0.00  0.00    +0.000 NA
ATOM     20  N   UNL     1      -8.757   3.453 121.566  0.00  0.00    +0.000 NA
ENDBRANCH  15  16
ENDBRANCH   1  15
TORSDOF 5
ENDMDL
