MODEL 1
REMARK VINA RESULT:      -7.4      0.000      0.000
REMARK  Name = Cephalexin
REMARK  7 active torsions:
REMARK  status: ('A' for Active; 'I' for Inactive)
REMARK    1  A    between atoms: C_5  and  C_6
REMARK    2  A    between atoms: CA_7  and  C_23
REMARK    3  A    between atoms: CA_11  and  N_12
REMARK    4  A    between atoms: C_13  and  CA_15
REMARK    5  A    between atoms: CA_15  and  N_16
REMARK    6  A    between atoms: CA_15  and  C_17
REMARK    7  A    between atoms: C_23  and  O_24
REMARK                            x       y       z     vdW  Elec       q    Type
REMARK                         _______ _______ _______ _____ _____    ______ ____
ROOT
ATOM      1  C   UNL     1      -8.383   2.602 131.292  0.00  0.00    +0.000 C 
ATOM      2  S   UNL     1      -9.792   1.635 131.888  0.00  0.00    +0.000 S 
ATOM      3  C   UNL     1      -8.821   0.089 131.923  0.00  0.00    +0.000 C 
ATOM      4  C   UNL     1      -8.104  -0.204 130.621  0.00  0.00    +0.000 C 
ATOM      5  C   UNL     1      -7.702  -1.664 130.513  0.00  0.00    +0.000 C 
ATOM      6  CA  UNL     1      -7.842   0.737 129.672  0.00  0.00    +0.000 C 
ATOM      7  N   UNL     1      -8.037   2.068 129.967  0.00  0.00    +0.000 N 
ATOM      8  C   UNL     1      -8.542   3.121 129.274  0.00  0.00    +0.000 C 
ATOM      9  O   UNL     1      -8.811   3.234 128.110  0.00  0.00    +0.000 OA
ATOM     10  CA  UNL     1      -8.580   3.990 130.587  0.00  0.00    +0.000 C 
ENDROOT
BRANCH  10  11
ATOM     11  N   UNL     1      -9.784   4.836 130.766  0.00  0.00    +0.000 N 
ATOM     12  C   UNL     1      -9.862   6.194 130.467  0.00  0.00    +0.000 C 
ATOM     13  O   UNL     1      -8.936   6.739 129.865  0.00  0.00    +0.000 OA
ATOM     14  H   UNL     1     -10.658   4.357 130.965  0.00  0.00    +0.000 HD
BRANCH  12  15
ATOM     15  CA  UNL     1     -11.178   6.985 130.946  0.00  0.00    +0.000 C 
BRANCH  15  16
ATOM     16  C   UNL     1     -12.096   7.467 129.825  0.00  0.00    +0.000 A 
ATOM     17  C   UNL     1     -12.319   8.815 129.540  0.00  0.00    +0.000 A 
ATOM     18  C   UNL     1     -13.279   9.158 128.575  0.00  0.00    +0.000 A 
ATOM     19  C   UNL     1     -13.842   8.188 127.739  0.00  0.00    +0.000 A 
ATOM     20  C   UNL     1     -13.594   6.859 127.984  0.00  0.00    +0.000 A 
ATOM     21  C   UNL     1     -12.885   6.548 129.122  0.00  0.00    +0.000 A 
ENDBRANCH  15  16
BRANCH  15  22
ATOM     22  N   UNL     1     -11.968   6.115 131.843  0.00  0.00    +0.000 NA
ATOM     23  H1  UNL     1     -12.922   6.473 131.874  0.00  0.00    +0.000 HD
ATOM     24  H2  UNL     1     -11.611   6.200 132.793  0.00  0.00    +0.000 HD
ENDBRANCH  15  22
ENDBRANCH  12  15
ENDBRANCH  10  11
BRANCH   6  25
ATOM     25  C   UNL     1      -7.264   0.300 128.332  0.00  0.00    +0.000 C 
ATOM     26  OXT UNL     1      -6.072   0.113 128.130  0.00  0.00    +0.000 OA
BRANCH  25  27
ATOM     27  O   UNL     1      -8.133   0.191 127.308  0.00  0.00    +0.000 OA
ATOM     28  H   UNL     1      -7.783   0.364 126.414  0.00  0.00    +0.000 HD
ENDBRANCH  25  27
ENDBRANCH   6  25
TORSDOF 6
ENDMDL
MODEL 2
REMARK VINA RESULT:      -7.3      6.690      7.953
REMARK  Name = Cephalexin
REMARK  7 active torsions:
REMARK  status: ('A' for Active; 'I' for Inactive)
REMARK    1  A    between atoms: C_5  and  C_6
REMARK    2  A    between atoms: CA_7  and  C_23
REMARK    3  A    between atoms: CA_11  and  N_12
REMARK    4  A    between atoms: C_13  and  CA_15
REMARK    5  A    between atoms: CA_15  and  N_16
REMARK    6  A    between atoms: CA_15  and  C_17
REMARK    7  A    between atoms: C_23  and  O_24
REMARK                            x       y       z     vdW  Elec       q    Type
REMARK                         _______ _______ _______ _____ _____    ______ ____
ROOT
ATOM      1  C   UNL     1      -6.914  -0.078 123.974  0.00  0.00    +0.000 C 
ATOM      2  S   UNL     1      -5.760  -0.512 125.300  0.00  0.00    +0.000 S 
ATOM      3  C   UNL     1      -5.658  -2.250 124.754  0.00  0.00    +0.000 C 
ATOM      4  C   UNL     1      -7.010  -2.911 124.581  0.00  0.00    +0.000 C 
ATOM      5  C   UNL     1      -6.904  -4.425 124.584  0.00  0.00    +0.000 C 
ATOM      6  CA  UNL     1      -8.174  -2.223 124.429  0.00  0.00    +0.000 C 
ATOM      7  N   UNL     1      -8.134  -0.864 124.206  0.00  0.00    +0.000 N 
ATOM      8  C   UNL     1      -8.874   0.184 124.650  0.00  0.00    +0.000 C 
ATOM      9  O   UNL     1      -9.915   0.210 125.245  0.00  0.00    +0.000 OA
ATOM     10  CA  UNL     1      -7.822   1.199 124.062  0.00  0.00    +0.000 C 
ENDROOT
BRANCH  10  11
ATOM     11  N   UNL     1      -7.509   2.370 124.915  0.00  0.00    +0.000 N 
ATOM     12  C   UNL     1      -6.754   3.471 124.520  0.00  0.00    +0.000 C 
ATOM     13  O   UNL     1      -6.433   3.597 123.336  0.00  0.00    +0.000 OA
ATOM     14  H   UNL     1      -8.015   2.449 125.793  0.00  0.00    +0.000 HD
BRANCH  12  15
ATOM     15  CA  UNL     1      -6.330   4.528 125.655  0.00  0.00    +0.000 C 
BRANCH  15  16
ATOM     16  C   UNL     1      -4.939   4.324 126.252  0.00  0.00    +0.000 A 
ATOM     17  C   UNL     1      -4.096   3.271 125.894  0.00  0.00    +0.000 A 
ATOM     18  C   UNL     1      -2.889   3.097 126.591  0.00  0.00    +0.000 A 
ATOM     19  C   UNL     1      -2.413   4.078 127.466  0.00  0.00    +0.000 A 
ATOM     20  C   UNL     1      -3.217   5.143 127.791  0.00  0.00    +0.000 A 
ATOM     21  C   UNL     1      -4.510   5.125 127.317  0.00  0.00    +0.000 A 
ENDBRANCH  15  16
BRANCH  15  22
ATOM     22  N   UNL     1      -6.391   5.894 125.094  0.00  0.00    +0.000 NA
ATOM     23  H1  UNL     1      -6.140   5.845 124.107  0.00  0.00    +0.000 HD
ATOM     24  H2  UNL     1      -5.673   6.469 125.531  0.00  0.00    +0.000 HD
ENDBRANCH  15  22
ENDBRANCH  12  15
ENDBRANCH  10  11
BRANCH   6  25
ATOM     25  C   UNL     1      -9.494  -2.985 124.430  0.00  0.00    +0.000 C 
ATOM     26  OXT UNL     1     -10.006  -3.465 123.429  0.00  0.00    +0.000 OA
BRANCH  25  27
ATOM     27  O   UNL     1     -10.147  -3.057 125.606  0.00  0.00    +0.000 OA
ATOM     28  H   UNL     1     -10.995  -3.539 125.610  0.00  0.00    +0.000 HD
ENDBRANCH  25  27
ENDBRANCH   6  25
TORSDOF 6
ENDMDL
MODEL 3
REMARK VINA RESULT:      -7.3      3.823      4.665
REMARK  Name = Cephalexin
REMARK  7 active torsions:
REMARK  status: ('A' for Active; 'I' for Inactive)
REMARK    1  A    between atoms: C_5  and  C_6
REMARK    2  A    between atoms: CA_7  and  C_23
REMARK    3  A    between atoms: CA_11  and  N_12
REMARK    4  A    between atoms: C_13  and  CA_15
REMARK    5  A    between atoms: CA_15  and  N_16
REMARK    6  A    between atoms: CA_15  and  C_17
REMARK    7  A    between atoms: C_23  and  O_24
REMARK                            x       y       z     vdW  Elec       q    Type
REMARK                         _______ _______ _______ _____ _____    ______ ____
ROOT
ATOM      1  C   UNL     1      -6.501   4.380 130.215  0.00  0.00    +0.000 C 
ATOM      2  S   UNL     1      -6.761   3.904 128.488  0.00  0.00    +0.000 S 
ATOM      3  C   UNL     1      -4.979   3.623 128.211  0.00  0.00    +0.000 C 
ATOM      4  C   UNL     1      -4.110   4.792 128.628  0.00  0.00    +0.000 C 
ATOM      5  C   UNL     1      -2.737   4.734 127.985  0.00  0.00    +0.000 C 
ATOM      6  CA  UNL     1      -4.515   5.766 129.488  0.00  0.00    +0.000 C 
ATOM      7  N   UNL     1      -5.686   5.603 130.195  0.00  0.00    +0.000 N 
ATOM      8  C   UNL     1      -6.703   6.435 130.536  0.00  0.00    +0.000 C 
ATOM      9  O   UNL     1      -6.792   7.629 130.465  0.00  0.00    +0.000 OA
ATOM     10  CA  UNL     1      -7.572   5.209 131.008  0.00  0.00    +0.000 C 
ENDROOT
BRANCH  10  11
ATOM     11  N   UNL     1      -9.007   5.256 130.640  0.00  0.00    +0.000 N 
ATOM     12  C   UNL     1     -10.010   5.855 131.399  0.00  0.00    +0.000 C 
ATOM     13  O   UNL     1      -9.707   6.541 132.377  0.00  0.00    +0.000 OA
ATOM     14  H   UNL     1      -9.250   4.977 129.693  0.00  0.00    +0.000 HD
BRANCH  12  15
ATOM     15  CA  UNL     1     -11.533   5.602 130.950  0.00  0.00    +0.000 C 
BRANCH  15  16
ATOM     16  C   UNL     1     -12.143   6.683 130.061  0.00  0.00    +0.000 A 
ATOM     17  C   UNL     1     -12.188   8.033 130.414  0.00  0.00    +0.000 A 
ATOM     18  C   UNL     1     -12.883   8.931 129.589  0.00  0.00    +0.000 A 
ATOM     19  C   UNL     1     -13.326   8.549 128.319  0.00  0.00    +0.000 A 
ATOM     20  C   UNL     1     -13.246   7.231 127.943  0.00  0.00    +0.000 A 
ATOM     21  C   UNL     1     -12.830   6.327 128.895  0.00  0.00    +0.000 A 
ENDBRANCH  15  16
BRANCH  15  22
ATOM     22  N   UNL     1     -11.618   4.315 130.226  0.00  0.00    +0.000 NA
ATOM     23  H1  UNL     1     -11.638   4.512 129.227  0.00  0.00    +0.000 HD
ATOM     24  H2  UNL     1     -12.509   3.869 130.436  0.00  0.00    +0.000 HD
ENDBRANCH  15  22
ENDBRANCH  12  15
ENDBRANCH  10  11
BRANCH   6  25
ATOM     25  C   UNL     1      -3.621   6.981 129.709  0.00  0.00    +0.000 C 
ATOM     26  OXT UNL     1      -2.669   6.998 130.475  0.00  0.00    +0.000 OA
BRANCH  25  27
ATOM     27  O   UNL     1      -3.969   8.110 129.060  0.00  0.00    +0.000 OA
ATOM     28  H   UNL     1      -4.487   8.005 128.241  0.00  0.00    +0.000 HD
ENDBRANCH  25  27
ENDBRANCH   6  25
TORSDOF 6
ENDMDL
MODEL 4
REMARK VINA RESULT:      -7.3      3.183      4.063
REMARK  Name = Cephalexin
REMARK  7 active torsions:
REMARK  status: ('A' for Active; 'I' for Inactive)
REMARK    1  A    between atoms: C_5  and  C_6
REMARK    2  A    between atoms: CA_7  and  C_23
REMARK    3  A    between atoms: CA_11  and  N_12
REMARK    4  A    between atoms: C_13  and  CA_15
REMARK    5  A    between atoms: CA_15  and  N_16
REMARK    6  A    between atoms: CA_15  and  C_17
REMARK    7  A    between atoms: C_23  and  O_24
REMARK                            x       y       z     vdW  Elec       q    Type
REMARK                         _______ _______ _______ _____ _____    ______ ____
ROOT
ATOM      1  C   UNL     1      -7.274   2.710 127.405  0.00  0.00    +0.000 C 
ATOM      2  S   UNL     1      -8.533   1.411 127.486  0.00  0.00    +0.000 S 
ATOM      3  C   UNL     1      -7.700   0.410 126.207  0.00  0.00    +0.000 C 
ATOM      4  C   UNL     1      -7.385   1.183 124.943  0.00  0.00    +0.000 C 
ATOM      5  C   UNL     1      -7.131   0.261 123.764  0.00  0.00    +0.000 C 
ATOM      6  CA  UNL     1      -7.326   2.542 124.882  0.00  0.00    +0.000 C 
ATOM      7  N   UNL     1      -7.339   3.274 126.049  0.00  0.00    +0.000 N 
ATOM      8  C   UNL     1      -7.938   4.432 126.426  0.00  0.00    +0.000 C 
ATOM      9  O   UNL     1      -8.504   5.267 125.776  0.00  0.00    +0.000 OA
ATOM     10  CA  UNL     1      -7.557   4.161 127.930  0.00  0.00    +0.000 C 
ENDROOT
BRANCH  10  11
ATOM     11  N   UNL     1      -8.605   4.481 128.928  0.00  0.00    +0.000 N 
ATOM     12  C   UNL     1      -8.448   5.347 130.007  0.00  0.00    +0.000 C 
ATOM     13  O   UNL     1      -7.431   6.038 130.090  0.00  0.00    +0.000 OA
ATOM     14  H   UNL     1      -9.551   4.175 128.717  0.00  0.00    +0.000 HD
BRANCH  12  15
ATOM     15  CA  UNL     1      -9.620   5.385 131.107  0.00  0.00    +0.000 C 
BRANCH  15  16
ATOM     16  C   UNL     1     -10.723   6.411 130.853  0.00  0.00    +0.000 A 
ATOM     17  C   UNL     1     -11.833   6.567 131.684  0.00  0.00    +0.000 A 
ATOM     18  C   UNL     1     -12.856   7.448 131.298  0.00  0.00    +0.000 A 
ATOM     19  C   UNL     1     -12.681   8.333 130.230  0.00  0.00    +0.000 A 
ATOM     20  C   UNL     1     -11.569   8.217 129.431  0.00  0.00    +0.000 A 
ATOM     21  C   UNL     1     -10.733   7.148 129.663  0.00  0.00    +0.000 A 
ENDBRANCH  15  16
BRANCH  15  22
ATOM     22  N   UNL     1     -10.249   4.050 131.192  0.00  0.00    +0.000 NA
ATOM     23  H1  UNL     1      -9.981   3.628 132.080  0.00  0.00    +0.000 HD
ATOM     24  H2  UNL     1      -9.855   3.447 130.472  0.00  0.00    +0.000 HD
ENDBRANCH  15  22
ENDBRANCH  12  15
ENDBRANCH  10  11
BRANCH   6  25
ATOM     25  C   UNL     1      -7.165   3.218 123.527  0.00  0.00    +0.000 C 
ATOM     26  OXT UNL     1      -6.085   3.427 122.991  0.00  0.00    +0.000 OA
BRANCH  25  27
ATOM     27  O   UNL     1      -8.292   3.668 122.940  0.00  0.00    +0.000 OA
ATOM     28  H   UNL     1      -9.110   3.622 123.468  0.00  0.00    +0.000 HD
ENDBRANCH  25  27
ENDBRANCH   6  25
TORSDOF 6
ENDMDL
MODEL 5
REMARK VINA RESULT:      -7.0      4.292      5.264
REMARK  Name = Cephalexin
REMARK  7 active torsions:
REMARK  status: ('A' for Active; 'I' for Inactive)
REMARK    1  A    between atoms: C_5  and  C_6
REMARK    2  A    between atoms: CA_7  and  C_23
REMARK    3  A    between atoms: CA_11  and  N_12
REMARK    4  A    between atoms: C_13  and  CA_15
REMARK    5  A    between atoms: CA_15  and  N_16
REMARK    6  A    between atoms: CA_15  and  C_17
REMARK    7  A    between atoms: C_23  and  O_24
REMARK                            x       y       z     vdW  Elec       q    Type
REMARK                         _______ _______ _______ _____ _____    ______ ____
ROOT
ATOM      1  C   UNL     1      -5.743   5.740 132.351  0.00  0.00    +0.000 C 
ATOM      2  S   UNL     1      -5.799   3.994 131.876  0.00  0.00    +0.000 S 
ATOM      3  C   UNL     1      -4.230   3.626 132.732  0.00  0.00    +0.000 C 
ATOM      4  C   UNL     1      -3.098   4.556 132.346  0.00  0.00    +0.000 C 
ATOM      5  C   UNL     1      -1.741   3.970 132.694  0.00  0.00    +0.000 C 
ATOM      6  CA  UNL     1      -3.282   5.775 131.770  0.00  0.00    +0.000 C 
ATOM      7  N   UNL     1      -4.550   6.312 131.712  0.00  0.00    +0.000 N 
ATOM      8  C   UNL     1      -5.236   7.004 130.766  0.00  0.00    +0.000 C 
ATOM      9  O   UNL     1      -4.862   7.513 129.746  0.00  0.00    +0.000 OA
ATOM     10  CA  UNL     1      -6.572   6.828 131.581  0.00  0.00    +0.000 C 
ENDROOT
BRANCH  10  11
ATOM     11  N   UNL     1      -7.780   6.521 130.779  0.00  0.00    +0.000 N 
ATOM     12  C   UNL     1      -9.047   6.268 131.301  0.00  0.00    +0.000 C 
ATOM     13  O   UNL     1      -9.259   6.454 132.501  0.00  0.00    +0.000 OA
ATOM     14  H   UNL     1      -7.717   6.666 129.775  0.00  0.00    +0.000 HD
BRANCH  12  15
ATOM     15  CA  UNL     1     -10.173   5.728 130.289  0.00  0.00    +0.000 C 
BRANCH  15  16
ATOM     16  C   UNL     1     -10.973   6.808 129.563  0.00  0.00    +0.000 A 
ATOM     17  C   UNL     1     -10.707   7.210 128.253  0.00  0.00    +0.000 A 
ATOM     18  C   UNL     1     -11.414   8.298 127.717  0.00  0.00    +0.000 A 
ATOM     19  C   UNL     1     -12.526   8.832 128.376  0.00  0.00    +0.000 A 
ATOM     20  C   UNL     1     -12.824   8.411 129.650  0.00  0.00    +0.000 A 
ATOM     21  C   UNL     1     -11.931   7.556 130.257  0.00  0.00    +0.000 A 
ENDBRANCH  15  16
BRANCH  15  22
ATOM     22  N   UNL     1      -9.538   4.867 129.270  0.00  0.00    +0.000 NA
ATOM     23  H1  UNL     1      -8.526   4.947 129.371  0.00  0.00    +0.000 HD
ATOM     24  H2  UNL     1      -9.750   5.231 128.343  0.00  0.00    +0.000 HD
ENDBRANCH  15  22
ENDBRANCH  12  15
ENDBRANCH  10  11
BRANCH   6  25
ATOM     25  C   UNL     1      -2.071   6.554 131.273  0.00  0.00    +0.000 C 
ATOM     26  OXT UNL     1      -1.372   7.259 131.987  0.00  0.00    +0.000 OA
BRANCH  25  27
ATOM     27  O   UNL     1      -1.820   6.499 129.950  0.00  0.00    +0.000 OA
ATOM     28  H   UNL     1      -0.955   6.835 129.652  0.00  0.00    +0.000 HD
ENDBRANCH  25  27
ENDBRANCH   6  25
TORSDOF 6
ENDMDL
MODEL 6
REMARK VINA RESULT:      -7.0      3.282      7.297
REMARK  Name = Cephalexin
REMARK  7 active torsions:
REMARK  status: ('A' for Active; 'I' for Inactive)
REMARK    1  A    between atoms: C_5  and  C_6
REMARK    2  A    between atoms: CA_7  and  C_23
REMARK    3  A    between atoms: CA_11  and  N_12
REMARK    4  A    between atoms: C_13  and  CA_15
REMARK    5  A    between atoms: CA_15  and  N_16
REMARK    6  A    between atoms: CA_15  and  C_17
REMARK    7  A    between atoms: C_23  and  O_24
REMARK                            x       y       z     vdW  Elec       q    Type
REMARK                         _______ _______ _______ _____ _____    ______ ____
ROOT
ATOM      1  C   UNL     1     -10.614   4.783 130.833  0.00  0.00    +0.000 C 
ATOM      2  S   UNL     1     -10.411   5.956 132.197  0.00  0.00    +0.000 S 
ATOM      3  C   UNL     1     -11.858   6.938 131.675  0.00  0.00    +0.000 C 
ATOM      4  C   UNL     1     -11.819   7.346 130.217  0.00  0.00    +0.000 C 
ATOM      5  C   UNL     1     -12.753   8.508 129.929  0.00  0.00    +0.000 C 
ATOM      6  CA  UNL     1     -11.048   6.731 129.279  0.00  0.00    +0.000 C 
ATOM      7  N   UNL     1     -10.420   5.545 129.591  0.00  0.00    +0.000 N 
ATOM      8  C   UNL     1      -9.192   5.032 129.322  0.00  0.00    +0.000 C 
ATOM      9  O   UNL     1      -8.339   5.403 128.565  0.00  0.00    +0.000 OA
ATOM     10  CA  UNL     1      -9.433   3.867 130.355  0.00  0.00    +0.000 C 
ENDROOT
BRANCH  10  11
ATOM     11  N   UNL     1      -8.274   3.514 131.209  0.00  0.00    +0.000 N 
ATOM     12  C   UNL     1      -8.298   2.592 132.253  0.00  0.00    +0.000 C 
ATOM     13  O   UNL     1      -9.292   1.883 132.416  0.00  0.00    +0.000 OA
ATOM     14  H   UNL     1      -7.361   3.844 130.908  0.00  0.00    +0.000 HD
BRANCH  12  15
ATOM     15  CA  UNL     1      -7.006   2.517 133.208  0.00  0.00    +0.000 C 
BRANCH  15  16
ATOM     16  C   UNL     1      -6.922   3.599 134.283  0.00  0.00    +0.000 A 
ATOM     17  C   UNL     1      -5.806   3.787 135.098  0.00  0.00    +0.000 A 
ATOM     18  C   UNL     1      -5.873   4.723 136.142  0.00  0.00    +0.000 A 
ATOM     19  C   UNL     1      -6.939   5.624 136.236  0.00  0.00    +0.000 A 
ATOM     20  C   UNL     1      -8.025   5.475 135.408  0.00  0.00    +0.000 A 
ATOM     21  C   UNL     1      -8.052   4.363 134.597  0.00  0.00    +0.000 A 
ENDBRANCH  15  16
BRANCH  15  22
ATOM     22  N   UNL     1      -6.977   1.201 133.881  0.00  0.00    +0.000 NA
ATOM     23  H1  UNL     1      -7.859   1.076 134.375  0.00  0.00    +0.000 HD
ATOM     24  H2  UNL     1      -6.257   1.208 134.602  0.00  0.00    +0.000 HD
ENDBRANCH  15  22
ENDBRANCH  12  15
ENDBRANCH  10  11
BRANCH   6  25
ATOM     25  C   UNL     1     -10.962   7.327 127.880  0.00  0.00    +0.000 C 
ATOM     26  OXT UNL     1     -10.281   8.302 127.593  0.00  0.00    +0.000 OA
BRANCH  25  27
ATOM     27  O   UNL     1     -11.748   6.769 126.938  0.00  0.00    +0.000 OA
ATOM     28  H   UNL     1     -11.367   6.029 126.430  0.00  0.00    +0.000 HD
ENDBRANCH  25  27
ENDBRANCH   6  25
TORSDOF 6
ENDMDL
MODEL 7
REMARK VINA RESULT:      -6.9      2.850      3.428
REMARK  Name = Cephalexin
REMARK  7 active torsions:
REMARK  status: ('A' for Active; 'I' for Inactive)
REMARK    1  A    between atoms: C_5  and  C_6
REMARK    2  A    between atoms: CA_7  and  C_23
REMARK    3  A    between atoms: CA_11  and  N_12
REMARK    4  A    between atoms: C_13  and  CA_15
REMARK    5  A    between atoms: CA_15  and  N_16
REMARK    6  A    between atoms: CA_15  and  C_17
REMARK    7  A    between atoms: C_23  and  O_24
REMARK                            x       y       z     vdW  Elec       q    Type
REMARK                         _______ _______ _______ _____ _____    ______ ____
ROOT
ATOM      1  C   UNL     1      -7.243   3.766 130.955  0.00  0.00    +0.000 C 
ATOM      2  S   UNL     1      -6.560   5.164 131.881  0.00  0.00    +0.000 S 
ATOM      3  C   UNL     1      -4.900   4.409 131.954  0.00  0.00    +0.000 C 
ATOM      4  C   UNL     1      -4.904   2.988 132.478  0.00  0.00    +0.000 C 
ATOM      5  C   UNL     1      -3.529   2.557 132.957  0.00  0.00    +0.000 C 
ATOM      6  CA  UNL     1      -6.008   2.193 132.502  0.00  0.00    +0.000 C 
ATOM      7  N   UNL     1      -7.145   2.592 131.832  0.00  0.00    +0.000 N 
ATOM      8  C   UNL     1      -8.471   2.537 132.116  0.00  0.00    +0.000 C 
ATOM      9  O   UNL     1      -9.062   1.951 132.980  0.00  0.00    +0.000 OA
ATOM     10  CA  UNL     1      -8.788   3.492 130.904  0.00  0.00    +0.000 C 
ENDROOT
BRANCH  10  11
ATOM     11  N   UNL     1      -9.813   4.533 131.154  0.00  0.00    +0.000 N 
ATOM     12  C   UNL     1     -10.194   5.517 130.245  0.00  0.00    +0.000 C 
ATOM     13  O   UNL     1      -9.788   5.464 129.083  0.00  0.00    +0.000 OA
ATOM     14  H   UNL     1     -10.393   4.420 131.981  0.00  0.00    +0.000 HD
BRANCH  12  15
ATOM     15  CA  UNL     1     -11.151   6.693 130.782  0.00  0.00    +0.000 C 
BRANCH  15  16
ATOM     16  C   UNL     1     -12.077   7.312 129.737  0.00  0.00    +0.000 A 
ATOM     17  C   UNL     1     -12.182   8.686 129.521  0.00  0.00    +0.000 A 
ATOM     18  C   UNL     1     -13.154   9.165 128.628  0.00  0.00    +0.000 A 
ATOM     19  C   UNL     1     -13.853   8.293 127.787  0.00  0.00    +0.000 A 
ATOM     20  C   UNL     1     -13.723   6.936 127.961  0.00  0.00    +0.000 A 
ATOM     21  C   UNL     1     -12.988   6.506 129.043  0.00  0.00    +0.000 A 
ENDBRANCH  15  16
BRANCH  15  22
ATOM     22  N   UNL     1     -11.989   6.172 131.883  0.00  0.00    +0.000 NA
ATOM     23  H1  UNL     1     -12.943   6.499 131.740  0.00  0.00    +0.000 HD
ATOM     24  H2  UNL     1     -11.685   6.588 132.762  0.00  0.00    +0.000 HD
ENDBRANCH  15  22
ENDBRANCH  12  15
ENDBRANCH  10  11
BRANCH   6  25
ATOM     25  C   UNL     1      -5.937   0.841 133.202  0.00  0.00    +0.000 C 
ATOM     26  OXT UNL     1      -5.495  -0.174 132.683  0.00  0.00    +0.000 OA
BRANCH  25  27
ATOM     27  O   UNL     1      -6.464   0.776 134.440  0.00  0.00    +0.000 OA
ATOM     28  H   UNL     1      -6.475  -0.101 134.868  0.00  0.00    +0.000 HD
ENDBRANCH  25  27
ENDBRANCH   6  25
TORSDOF 6
ENDMDL
MODEL 8
REMARK VINA RESULT:      -6.9      1.509      1.927
REMARK  Name = Cephalexin
REMARK  7 active torsions:
REMARK  status: ('A' for Active; 'I' for Inactive)
REMARK    1  A    between atoms: C_5  and  C_6
REMARK    2  A    between atoms: CA_7  and  C_23
REMARK    3  A    between atoms: CA_11  and  N_12
REMARK    4  A    between atoms: C_13  and  CA_15
REMARK    5  A    between atoms: CA_15  and  N_16
REMARK    6  A    between atoms: CA_15  and  C_17
REMARK    7  A    between atoms: C_23  and  O_24
REMARK                            x       y       z     vdW  Elec       q    Type
REMARK                         _______ _______ _______ _____ _____    ______ ____
ROOT
ATOM      1  C   UNL     1      -7.568   1.155 130.103  0.00  0.00    +0.000 C 
ATOM      2  S   UNL     1      -8.698   0.340 131.260  0.00  0.00    +0.000 S 
ATOM      3  C   UNL     1      -7.840  -1.262 131.096  0.00  0.00    +0.000 C 
ATOM      4  C   UNL     1      -7.659  -1.708 129.660  0.00  0.00    +0.000 C 
ATOM      5  C   UNL     1      -7.379  -3.197 129.561  0.00  0.00    +0.000 C 
ATOM      6  CA  UNL     1      -7.726  -0.867 128.592  0.00  0.00    +0.000 C 
ATOM      7  N   UNL     1      -7.749   0.494 128.803  0.00  0.00    +0.000 N 
ATOM      8  C   UNL     1      -8.432   1.522 128.237  0.00  0.00    +0.000 C 
ATOM      9  O   UNL     1      -9.103   1.561 127.242  0.00  0.00    +0.000 OA
ATOM     10  CA  UNL     1      -7.956   2.493 129.381  0.00  0.00    +0.000 C 
ENDROOT
BRANCH  10  11
ATOM     11  N   UNL     1      -8.979   3.434 129.896  0.00  0.00    +0.000 N 
ATOM     12  C   UNL     1      -9.056   4.788 129.579  0.00  0.00    +0.000 C 
ATOM     13  O   UNL     1      -8.335   5.247 128.690  0.00  0.00    +0.000 OA
ATOM     14  H   UNL     1      -9.774   3.029 130.383  0.00  0.00    +0.000 HD
BRANCH  12  15
ATOM     15  CA  UNL     1     -10.092   5.689 130.415  0.00  0.00    +0.000 C 
BRANCH  15  16
ATOM     16  C   UNL     1     -11.002   6.587 129.579  0.00  0.00    +0.000 A 
ATOM     17  C   UNL     1     -10.605   7.825 129.073  0.00  0.00    +0.000 A 
ATOM     18  C   UNL     1     -11.553   8.633 128.425  0.00  0.00    +0.000 A 
ATOM     19  C   UNL     1     -12.811   8.132 128.077  0.00  0.00    +0.000 A 
ATOM     20  C   UNL     1     -13.196   6.894 128.532  0.00  0.00    +0.000 A 
ATOM     21  C   UNL     1     -12.352   6.256 129.413  0.00  0.00    +0.000 A 
ENDBRANCH  15  16
BRANCH  15  22
ATOM     22  N   UNL     1     -10.949   4.808 131.236  0.00  0.00    +0.000 NA
ATOM     23  H1  UNL     1     -11.041   5.226 132.161  0.00  0.00    +0.000 HD
ATOM     24  H2  UNL     1     -10.473   3.919 131.383  0.00  0.00    +0.000 HD
ENDBRANCH  15  22
ENDBRANCH  12  15
ENDBRANCH  10  11
BRANCH   6  25
ATOM     25  C   UNL     1      -7.693  -1.449 127.185  0.00  0.00    +0.000 C 
ATOM     26  OXT UNL     1      -8.678  -1.875 126.598  0.00  0.00    +0.000 OA
BRANCH  25  27
ATOM     27  O   UNL     1      -6.481  -1.553 126.604  0.00  0.00    +0.000 OA
ATOM     28  H   UNL     1      -5.791  -0.938 126.914  0.00  0.00    +0.000 HD
ENDBRANCH  25  27
ENDBRANCH   6  25
TORSDOF 6
ENDMDL
MODEL 9
REMARK VINA RESULT:      -6.8      2.447      2.985
REMARK  Name = Cephalexin
REMARK  7 active torsions:
REMARK  status: ('A' for Active; 'I' for Inactive)
REMARK    1  A    between atoms: C_5  and  C_6
REMARK    2  A    between atoms: CA_7  and  C_23
REMARK    3  A    between atoms: CA_11  and  N_12
REMARK    4  A    between atoms: C_13  and  CA_15
REMARK    5  A    between atoms: CA_15  and  N_16
REMARK    6  A    between atoms: CA_15  and  C_17
REMARK    7  A    between atoms: C_23  and  O_24
REMARK                            x       y       z     vdW  Elec       q    Type
REMARK                         _______ _______ _______ _____ _____    ______ ____
ROOT
ATOM      1  C   UNL     1      -7.424   1.685 129.788  0.00  0.00    +0.000 C 
ATOM      2  S   UNL     1      -5.951   2.285 130.653  0.00  0.00    +0.000 S 
ATOM      3  C   UNL     1      -4.967   0.831 130.154  0.00  0.00    +0.000 C 
ATOM      4  C   UNL     1      -5.635  -0.490 130.472  0.00  0.00    +0.000 C 
ATOM      5  C   UNL     1      -4.643  -1.639 130.481  0.00  0.00    +0.000 C 
ATOM      6  CA  UNL     1      -6.969  -0.626 130.707  0.00  0.00    +0.000 C 
ATOM      7  N   UNL     1      -7.814   0.430 130.444  0.00  0.00    +0.000 N 
ATOM      8  C   UNL     1      -8.891   0.954 131.084  0.00  0.00    +0.000 C 
ATOM      9  O   UNL     1      -9.541   0.527 131.998  0.00  0.00    +0.000 OA
ATOM     10  CA  UNL     1      -8.857   2.217 130.144  0.00  0.00    +0.000 C 
ENDROOT
BRANCH  10  11
ATOM     11  N   UNL     1      -9.106   3.520 130.805  0.00  0.00    +0.000 N 
ATOM     12  C   UNL     1     -10.263   4.283 130.664  0.00  0.00    +0.000 C 
ATOM     13  O   UNL     1     -11.238   3.808 130.079  0.00  0.00    +0.000 OA
ATOM     14  H   UNL     1      -8.460   3.795 131.540  0.00  0.00    +0.000 HD
BRANCH  12  15
ATOM     15  CA  UNL     1     -10.250   5.771 131.274  0.00  0.00    +0.000 C 
BRANCH  15  16
ATOM     16  C   UNL     1     -10.904   6.841 130.403  0.00  0.00    +0.000 A 
ATOM     17  C   UNL     1     -12.181   7.350 130.640  0.00  0.00    +0.000 A 
ATOM     18  C   UNL     1     -12.745   8.238 129.709  0.00  0.00    +0.000 A 
ATOM     19  C   UNL     1     -11.973   8.796 128.685  0.00  0.00    +0.000 A 
ATOM     20  C   UNL     1     -10.698   8.334 128.471  0.00  0.00    +0.000 A 
ATOM     21  C   UNL     1     -10.285   7.253 129.217  0.00  0.00    +0.000 A 
ENDBRANCH  15  16
BRANCH  15  22
ATOM     22  N   UNL     1     -10.939   5.764 132.583  0.00  0.00    +0.000 NA
ATOM     23  H1  UNL     1     -10.726   4.883 133.050  0.00  0.00    +0.000 HD
ATOM     24  H2  UNL     1     -11.946   5.758 132.433  0.00  0.00    +0.000 HD
ENDBRANCH  15  22
ENDBRANCH  12  15
ENDBRANCH  10  11
BRANCH   6  25
ATOM     25  C   UNL     1      -7.508  -1.971 131.179  0.00  0.00    +0.000 C 
ATOM     26  OXT UNL     1      -7.792  -2.895 130.430  0.00  0.00    +0.000 OA
BRANCH  25  27
ATOM     27  O   UNL     1      -7.742  -2.096 132.500  0.00  0.00    +0.000 OA
ATOM     28  H   UNL     1      -7.850  -1.270 133.008  0.00  0.00    +0.000 HD
ENDBRANCH  25  27
ENDBRANCH   6  25
TORSDOF 6
ENDMDL
