MODEL 1
REMARK VINA RESULT:      -7.8      0.000      0.000
REMARK  Name = Cephaloglycin
REMARK  10 active torsions:
REMARK  status: ('A' for Active; 'I' for Inactive)
REMARK    1  A    between atoms: C_5  and  C_6
REMARK    2  A    between atoms: C_6  and  O_7
REMARK    3  A    between atoms: O_7  and  C_8
REMARK    4  A    between atoms: C_8  and  C_9
REMARK    5  A    between atoms: CA_11  and  C_27
REMARK    6  A    between atoms: CA_15  and  N_16
REMARK    7  A    between atoms: C_17  and  CA_19
REMARK    8  A    between atoms: CA_19  and  N_20
REMARK    9  A    between atoms: CA_19  and  C_21
REMARK   10  A    between atoms: C_27  and  O_28
REMARK                            x       y       z     vdW  Elec       q    Type
REMARK                         _______ _______ _______ _____ _____    ______ ____
ROOT
ATOM      1  C   UNL     1      -7.241   2.692 127.435  0.00  0.00    +0.000 C 
ATOM      2  S   UNL     1      -8.510   1.423 127.576  0.00  0.00    +0.000 S 
ATOM      3  C   UNL     1      -7.782   0.403 126.246  0.00  0.00    +0.000 C 
ATOM      4  C   UNL     1      -7.560   1.171 124.959  0.00  0.00    +0.000 C 
ATOM      5  CA  UNL     1      -7.365   2.521 124.919  0.00  0.00    +0.000 C 
ATOM      6  N   UNL     1      -7.251   3.248 126.083  0.00  0.00    +0.000 N 
ATOM      7  C   UNL     1      -7.795   4.443 126.436  0.00  0.00    +0.000 C 
ATOM      8  O   UNL     1      -8.250   5.309 125.735  0.00  0.00    +0.000 OA
ATOM      9  CA  UNL     1      -7.581   4.122 127.949  0.00  0.00    +0.000 C 
ENDROOT
BRANCH   9  10
ATOM     10  N   UNL     1      -8.747   4.395 128.856  0.00  0.00    +0.000 N 
ATOM     11  C   UNL     1      -8.543   5.308 129.895  0.00  0.00    +0.000 C 
ATOM     12  O   UNL     1      -7.490   5.949 129.950  0.00  0.00    +0.000 OA
ATOM     13  H   UNL     1      -9.507   3.726 128.940  0.00  0.00    +0.000 HD
BRANCH  11  14
ATOM     14  CA  UNL     1      -9.621   5.346 131.037  0.00  0.00    +0.000 C 
BRANCH  14  15
ATOM     15  C   UNL     1     -10.657   6.445 130.815  0.00  0.00    +0.000 A 
ATOM     16  C   UNL     1     -11.781   6.562 131.651  0.00  0.00    +0.000 A 
ATOM     17  C   UNL     1     -12.826   7.425 131.305  0.00  0.00    +0.000 A 
ATOM     18  C   UNL     1     -12.709   8.270 130.202  0.00  0.00    +0.000 A 
ATOM     19  C   UNL     1     -11.576   8.215 129.407  0.00  0.00    +0.000 A 
ATOM     20  C   UNL     1     -10.577   7.298 129.702  0.00  0.00    +0.000 A 
ENDBRANCH  14  15
BRANCH  14  21
ATOM     21  N   UNL     1     -10.307   4.032 131.069  0.00  0.00    +0.000 NA
ATOM     22  H1  UNL     1     -10.750   3.895 130.155  0.00  0.00    +0.000 HD
ATOM     23  H2  UNL     1     -11.061   4.036 131.749  0.00  0.00    +0.000 HD
ENDBRANCH  14  21
ENDBRANCH  11  14
ENDBRANCH   9  10
BRANCH   5  24
ATOM     24  C   UNL     1      -7.230   3.210 123.562  0.00  0.00    +0.000 C 
ATOM     25  OXT UNL     1      -6.155   3.407 123.009  0.00  0.00    +0.000 OA
BRANCH  24  26
ATOM     26  O   UNL     1      -8.353   3.709 123.015  0.00  0.00    +0.000 OA
ATOM     27  H   UNL     1      -8.272   4.573 122.562  0.00  0.00    +0.000 HD
ENDBRANCH  24  26
ENDBRANCH   5  24
BRANCH   4  28
ATOM     28  C   UNL     1      -7.591   0.328 123.682  0.00  0.00    +0.000 C 
BRANCH  28  29
ATOM     29  O   UNL     1      -7.963  -1.039 123.915  0.00  0.00    +0.000 OA
BRANCH  29  30
ATOM     30  C   UNL     1      -9.062  -1.580 123.332  0.00  0.00    +0.000 C 
ATOM     31  C   UNL     1      -9.291  -3.068 123.399  0.00  0.00    +0.000 C 
ATOM     32  O   UNL     1      -9.875  -0.853 122.764  0.00  0.00    +0.000 OA
ENDBRANCH  29  30
ENDBRANCH  28  29
ENDBRANCH   4  28
TORSDOF 9
ENDMDL
MODEL 2
REMARK VINA RESULT:      -7.7      4.668      5.791
REMARK  Name = Cephaloglycin
REMARK  10 active torsions:
REMARK  status: ('A' for Active; 'I' for Inactive)
REMARK    1  A    between atoms: C_5  and  C_6
REMARK    2  A    between atoms: C_6  and  O_7
REMARK    3  A    between atoms: O_7  and  C_8
REMARK    4  A    between atoms: C_8  and  C_9
REMARK    5  A    between atoms: CA_11  and  C_27
REMARK    6  A    between atoms: CA_15  and  N_16
REMARK    7  A    between atoms: C_17  and  CA_19
REMARK    8  A    between atoms: CA_19  and  N_20
REMARK    9  A    between atoms: CA_19  and  C_21
REMARK   10  A    between atoms: C_27  and  O_28
REMARK                            x       y       z     vdW  Elec       q    Type
REMARK                         _______ _______ _______ _____ _____    ______ ____
ROOT
ATOM      1  C   UNL     1      -6.825   4.802 131.149  0.00  0.00    +0.000 C 
ATOM      2  S   UNL     1      -6.949   3.743 129.699  0.00  0.00    +0.000 S 
ATOM      3  C   UNL     1      -5.152   3.416 129.659  0.00  0.00    +0.000 C 
ATOM      4  C   UNL     1      -4.315   4.679 129.657  0.00  0.00    +0.000 C 
ATOM      5  CA  UNL     1      -4.745   5.862 130.185  0.00  0.00    +0.000 C 
ATOM      6  N   UNL     1      -5.945   5.933 130.858  0.00  0.00    +0.000 N 
ATOM      7  C   UNL     1      -6.937   6.862 130.799  0.00  0.00    +0.000 C 
ATOM      8  O   UNL     1      -6.897   7.994 130.396  0.00  0.00    +0.000 OA
ATOM      9  CA  UNL     1      -7.961   5.841 131.391  0.00  0.00    +0.000 C 
ENDROOT
BRANCH   9  10
ATOM     10  N   UNL     1      -9.289   5.756 130.696  0.00  0.00    +0.000 N 
ATOM     11  C   UNL     1     -10.424   6.052 131.458  0.00  0.00    +0.000 C 
ATOM     12  O   UNL     1     -10.296   6.497 132.602  0.00  0.00    +0.000 OA
ATOM     13  H   UNL     1      -9.401   5.196 129.856  0.00  0.00    +0.000 HD
BRANCH  11  14
ATOM     14  CA  UNL     1     -11.817   5.643 130.857  0.00  0.00    +0.000 C 
BRANCH  14  15
ATOM     15  C   UNL     1     -12.445   6.769 130.040  0.00  0.00    +0.000 A 
ATOM     16  C   UNL     1     -12.983   6.527 128.764  0.00  0.00    +0.000 A 
ATOM     17  C   UNL     1     -13.351   7.598 127.942  0.00  0.00    +0.000 A 
ATOM     18  C   UNL     1     -13.308   8.905 128.425  0.00  0.00    +0.000 A 
ATOM     19  C   UNL     1     -12.844   9.154 129.707  0.00  0.00    +0.000 A 
ATOM     20  C   UNL     1     -12.400   8.099 130.491  0.00  0.00    +0.000 A 
ENDBRANCH  14  15
BRANCH  14  21
ATOM     21  N   UNL     1     -11.614   4.464 129.982  0.00  0.00    +0.000 NA
ATOM     22  H1  UNL     1     -12.077   4.661 129.089  0.00  0.00    +0.000 HD
ATOM     23  H2  UNL     1     -12.079   3.647 130.365  0.00  0.00    +0.000 HD
ENDBRANCH  14  21
ENDBRANCH  11  14
ENDBRANCH   9  10
BRANCH   5  24
ATOM     24  C   UNL     1      -3.855   7.096 130.059  0.00  0.00    +0.000 C 
ATOM     25  OXT UNL     1      -3.002   7.400 130.884  0.00  0.00    +0.000 OA
BRANCH  24  26
ATOM     26  O   UNL     1      -4.112   7.934 129.038  0.00  0.00    +0.000 OA
ATOM     27  H   UNL     1      -3.672   8.808 129.068  0.00  0.00    +0.000 HD
ENDBRANCH  24  26
ENDBRANCH   5  24
BRANCH   4  28
ATOM     28  C   UNL     1      -2.942   4.552 128.992  0.00  0.00    +0.000 C 
BRANCH  28  29
ATOM     29  O   UNL     1      -2.984   4.734 127.569  0.00  0.00    +0.000 OA
BRANCH  29  30
ATOM     30  C   UNL     1      -2.893   3.679 126.720  0.00  0.00    +0.000 C 
ATOM     31  C   UNL     1      -1.567   2.993 126.515  0.00  0.00    +0.000 C 
ATOM     32  O   UNL     1      -3.896   3.278 126.132  0.00  0.00    +0.000 OA
ENDBRANCH  29  30
ENDBRANCH  28  29
ENDBRANCH   4  28
TORSDOF 9
ENDMDL
MODEL 3
REMARK VINA RESULT:      -7.4      4.331      8.605
REMARK  Name = Cephaloglycin
REMARK  10 active torsions:
REMARK  status: ('A' for Active; 'I' for Inactive)
REMARK    1  A    between atoms: C_5  and  C_6
REMARK    2  A    between atoms: C_6  and  O_7
REMARK    3  A    between atoms: O_7  and  C_8
REMARK    4  A    between atoms: C_8  and  C_9
REMARK    5  A    between atoms: CA_11  and  C_27
REMARK    6  A    between atoms: CA_15  and  N_16
REMARK    7  A    between atoms: C_17  and  CA_19
REMARK    8  A    between atoms: CA_19  and  N_20
REMARK    9  A    between atoms: CA_19  and  C_21
REMARK   10  A    between atoms: C_27  and  O_28
REMARK                            x       y       z     vdW  Elec       q    Type
REMARK                         _______ _______ _______ _____ _____    ______ ____
ROOT
ATOM      1  C   UNL     1      -7.915   1.400 125.918  0.00  0.00    +0.000 C 
ATOM      2  S   UNL     1      -6.334   0.652 125.491  0.00  0.00    +0.000 S 
ATOM      3  C   UNL     1      -5.384   1.828 126.518  0.00  0.00    +0.000 C 
ATOM      4  C   UNL     1      -5.693   3.278 126.204  0.00  0.00    +0.000 C 
ATOM      5  CA  UNL     1      -6.882   3.692 125.678  0.00  0.00    +0.000 C 
ATOM      6  N   UNL     1      -7.920   2.804 125.507  0.00  0.00    +0.000 N 
ATOM      7  C   UNL     1      -8.774   2.632 124.462  0.00  0.00    +0.000 C 
ATOM      8  O   UNL     1      -9.047   3.392 123.570  0.00  0.00    +0.000 OA
ATOM      9  CA  UNL     1      -9.109   1.184 124.942  0.00  0.00    +0.000 C 
ENDROOT
BRANCH   9  10
ATOM     10  N   UNL     1      -9.101   0.117 123.885  0.00  0.00    +0.000 N 
ATOM     11  C   UNL     1      -9.406  -1.184 124.294  0.00  0.00    +0.000 C 
ATOM     12  O   UNL     1      -9.798  -1.388 125.446  0.00  0.00    +0.000 OA
ATOM     13  H   UNL     1      -8.581   0.245 123.021  0.00  0.00    +0.000 HD
BRANCH  11  14
ATOM     14  CA  UNL     1      -9.072  -2.347 123.292  0.00  0.00    +0.000 C 
BRANCH  14  15
ATOM     15  C   UNL     1      -7.599  -2.745 123.341  0.00  0.00    +0.000 A 
ATOM     16  C   UNL     1      -7.134  -3.695 124.268  0.00  0.00    +0.000 A 
ATOM     17  C   UNL     1      -5.760  -3.884 124.450  0.00  0.00    +0.000 A 
ATOM     18  C   UNL     1      -4.843  -3.229 123.630  0.00  0.00    +0.000 A 
ATOM     19  C   UNL     1      -5.289  -2.340 122.665  0.00  0.00    +0.000 A 
ATOM     20  C   UNL     1      -6.648  -2.090 122.542  0.00  0.00    +0.000 A 
ENDBRANCH  14  15
BRANCH  14  21
ATOM     21  N   UNL     1      -9.903  -3.520 123.653  0.00  0.00    +0.000 NA
ATOM     22  H1  UNL     1     -10.231  -3.380 124.614  0.00  0.00    +0.000 HD
ATOM     23  H2  UNL     1      -9.344  -4.367 123.668  0.00  0.00    +0.000 HD
ENDBRANCH  14  21
ENDBRANCH  11  14
ENDBRANCH   9  10
BRANCH   5  24
ATOM     24  C   UNL     1      -7.061   5.167 125.323  0.00  0.00    +0.000 C 
ATOM     25  OXT UNL     1      -6.141   5.889 124.957  0.00  0.00    +0.000 OA
BRANCH  24  26
ATOM     26  O   UNL     1      -8.276   5.704 125.532  0.00  0.00    +0.000 OA
ATOM     27  H   UNL     1      -8.715   5.480 126.378  0.00  0.00    +0.000 HD
ENDBRANCH  24  26
ENDBRANCH   5  24
BRANCH   4  28
ATOM     28  C   UNL     1      -4.559   4.265 126.496  0.00  0.00    +0.000 C 
BRANCH  28  29
ATOM     29  O   UNL     1      -3.269   3.778 126.096  0.00  0.00    +0.000 OA
BRANCH  29  30
ATOM     30  C   UNL     1      -2.259   3.640 126.991  0.00  0.00    +0.000 C 
ATOM     31  C   UNL     1      -2.276   4.436 128.270  0.00  0.00    +0.000 C 
ATOM     32  O   UNL     1      -1.340   2.856 126.762  0.00  0.00    +0.000 OA
ENDBRANCH  29  30
ENDBRANCH  28  29
ENDBRANCH   4  28
TORSDOF 9
ENDMDL
MODEL 4
REMARK VINA RESULT:      -7.4      3.407      4.427
REMARK  Name = Cephaloglycin
REMARK  10 active torsions:
REMARK  status: ('A' for Active; 'I' for Inactive)
REMARK    1  A    between atoms: C_5  and  C_6
REMARK    2  A    between atoms: C_6  and  O_7
REMARK    3  A    between atoms: O_7  and  C_8
REMARK    4  A    between atoms: C_8  and  C_9
REMARK    5  A    between atoms: CA_11  and  C_27
REMARK    6  A    between atoms: CA_15  and  N_16
REMARK    7  A    between atoms: C_17  and  CA_19
REMARK    8  A    between atoms: CA_19  and  N_20
REMARK    9  A    between atoms: CA_19  and  C_21
REMARK   10  A    between atoms: C_27  and  O_28
REMARK                            x       y       z     vdW  Elec       q    Type
REMARK                         _______ _______ _______ _____ _____    ______ ____
ROOT
ATOM      1  C   UNL     1      -7.919   2.927 131.102  0.00  0.00    +0.000 C 
ATOM      2  S   UNL     1      -9.142   1.999 132.043  0.00  0.00    +0.000 S 
ATOM      3  C   UNL     1      -8.092   0.505 132.127  0.00  0.00    +0.000 C 
ATOM      4  C   UNL     1      -7.606   0.040 130.769  0.00  0.00    +0.000 C 
ATOM      5  CA  UNL     1      -7.455   0.877 129.702  0.00  0.00    +0.000 C 
ATOM      6  N   UNL     1      -7.637   2.234 129.845  0.00  0.00    +0.000 N 
ATOM      7  C   UNL     1      -8.290   3.128 129.054  0.00  0.00    +0.000 C 
ATOM      8  O   UNL     1      -8.602   3.032 127.896  0.00  0.00    +0.000 OA
ATOM      9  CA  UNL     1      -8.419   4.128 130.246  0.00  0.00    +0.000 C 
ENDROOT
BRANCH   9  10
ATOM     10  N   UNL     1      -9.770   4.751 130.445  0.00  0.00    +0.000 N 
ATOM     11  C   UNL     1      -9.857   6.139 130.304  0.00  0.00    +0.000 C 
ATOM     12  O   UNL     1      -8.883   6.776 129.894  0.00  0.00    +0.000 OA
ATOM     13  H   UNL     1     -10.490   4.272 130.980  0.00  0.00    +0.000 HD
BRANCH  11  14
ATOM     14  CA  UNL     1     -11.162   6.834 130.836  0.00  0.00    +0.000 C 
BRANCH  14  15
ATOM     15  C   UNL     1     -12.033   7.370 129.703  0.00  0.00    +0.000 A 
ATOM     16  C   UNL     1     -12.270   8.748 129.559  0.00  0.00    +0.000 A 
ATOM     17  C   UNL     1     -13.240   9.204 128.659  0.00  0.00    +0.000 A 
ATOM     18  C   UNL     1     -13.887   8.310 127.808  0.00  0.00    +0.000 A 
ATOM     19  C   UNL     1     -13.614   6.954 127.890  0.00  0.00    +0.000 A 
ATOM     20  C   UNL     1     -12.714   6.495 128.841  0.00  0.00    +0.000 A 
ENDBRANCH  14  15
BRANCH  14  21
ATOM     21  N   UNL     1     -11.935   5.834 131.610  0.00  0.00    +0.000 NA
ATOM     22  H1  UNL     1     -11.928   6.132 132.591  0.00  0.00    +0.000 HD
ATOM     23  H2  UNL     1     -11.476   4.929 131.588  0.00  0.00    +0.000 HD
ENDBRANCH  14  21
ENDBRANCH  11  14
ENDBRANCH   9  10
BRANCH   5  24
ATOM     24  C   UNL     1      -7.036   0.292 128.355  0.00  0.00    +0.000 C 
ATOM     25  OXT UNL     1      -5.874   0.248 127.971  0.00  0.00    +0.000 OA
BRANCH  24  26
ATOM     26  O   UNL     1      -8.020  -0.092 127.522  0.00  0.00    +0.000 OA
ATOM     27  H   UNL     1      -8.917  -0.164 127.907  0.00  0.00    +0.000 HD
ENDBRANCH  24  26
ENDBRANCH   5  24
BRANCH   4  28
ATOM     28  C   UNL     1      -7.313  -1.458 130.659  0.00  0.00    +0.000 C 
BRANCH  28  29
ATOM     29  O   UNL     1      -8.296  -2.172 129.893  0.00  0.00    +0.000 OA
BRANCH  29  30
ATOM     30  C   UNL     1      -7.970  -3.287 129.192  0.00  0.00    +0.000 C 
ATOM     31  C   UNL     1      -8.700  -3.609 127.913  0.00  0.00    +0.000 C 
ATOM     32  O   UNL     1      -7.071  -4.023 129.593  0.00  0.00    +0.000 OA
ENDBRANCH  29  30
ENDBRANCH  28  29
ENDBRANCH   4  28
TORSDOF 9
ENDMDL
MODEL 5
REMARK VINA RESULT:      -7.2      3.561      4.964
REMARK  Name = Cephaloglycin
REMARK  10 active torsions:
REMARK  status: ('A' for Active; 'I' for Inactive)
REMARK    1  A    between atoms: C_5  and  C_6
REMARK    2  A    between atoms: C_6  and  O_7
REMARK    3  A    between atoms: O_7  and  C_8
REMARK    4  A    between atoms: C_8  and  C_9
REMARK    5  A    between atoms: CA_11  and  C_27
REMARK    6  A    between atoms: CA_15  and  N_16
REMARK    7  A    between atoms: C_17  and  CA_19
REMARK    8  A    between atoms: CA_19  and  N_20
REMARK    9  A    between atoms: CA_19  and  C_21
REMARK   10  A    between atoms: C_27  and  O_28
REMARK                            x       y       z     vdW  Elec       q    Type
REMARK                         _______ _______ _______ _____ _____    ______ ____
ROOT
ATOM      1  C   UNL     1      -8.426   2.664 128.636  0.00  0.00    +0.000 C 
ATOM      2  S   UNL     1      -7.776   4.205 127.968  0.00  0.00    +0.000 S 
ATOM      3  C   UNL     1      -6.870   3.359 126.626  0.00  0.00    +0.000 C 
ATOM      4  C   UNL     1      -5.957   2.257 127.125  0.00  0.00    +0.000 C 
ATOM      5  CA  UNL     1      -6.174   1.576 128.288  0.00  0.00    +0.000 C 
ATOM      6  N   UNL     1      -7.318   1.791 129.022  0.00  0.00    +0.000 N 
ATOM      7  C   UNL     1      -7.493   1.943 130.363  0.00  0.00    +0.000 C 
ATOM      8  O   UNL     1      -6.764   1.625 131.266  0.00  0.00    +0.000 OA
ATOM      9  CA  UNL     1      -8.867   2.647 130.130  0.00  0.00    +0.000 C 
ENDROOT
BRANCH   9  10
ATOM     10  N   UNL     1      -9.107   3.907 130.911  0.00  0.00    +0.000 N 
ATOM     11  C   UNL     1     -10.372   4.490 130.802  0.00  0.00    +0.000 C 
ATOM     12  O   UNL     1     -11.271   3.898 130.199  0.00  0.00    +0.000 OA
ATOM     13  H   UNL     1      -8.329   4.487 131.214  0.00  0.00    +0.000 HD
BRANCH  11  14
ATOM     14  CA  UNL     1     -10.531   5.963 131.327  0.00  0.00    +0.000 C 
BRANCH  14  15
ATOM     15  C   UNL     1     -11.063   6.904 130.249  0.00  0.00    +0.000 A 
ATOM     16  C   UNL     1     -10.285   7.234 129.125  0.00  0.00    +0.000 A 
ATOM     17  C   UNL     1     -10.691   8.260 128.266  0.00  0.00    +0.000 A 
ATOM     18  C   UNL     1     -11.929   8.878 128.441  0.00  0.00    +0.000 A 
ATOM     19  C   UNL     1     -12.739   8.516 129.506  0.00  0.00    +0.000 A 
ATOM     20  C   UNL     1     -12.296   7.557 130.406  0.00  0.00    +0.000 A 
ENDBRANCH  14  15
BRANCH  14  21
ATOM     21  N   UNL     1     -11.478   5.948 132.467  0.00  0.00    +0.000 NA
ATOM     22  H1  UNL     1     -11.005   5.490 133.253  0.00  0.00    +0.000 HD
ATOM     23  H2  UNL     1     -12.288   5.375 132.255  0.00  0.00    +0.000 HD
ENDBRANCH  14  21
ENDBRANCH  11  14
ENDBRANCH   9  10
BRANCH   5  24
ATOM     24  C   UNL     1      -5.149   0.538 128.740  0.00  0.00    +0.000 C 
ATOM     25  OXT UNL     1      -5.263  -0.662 128.523  0.00  0.00    +0.000 OA
BRANCH  24  26
ATOM     26  O   UNL     1      -4.132   0.975 129.504  0.00  0.00    +0.000 OA
ATOM     27  H   UNL     1      -4.185   1.901 129.818  0.00  0.00    +0.000 HD
ENDBRANCH  24  26
ENDBRANCH   5  24
BRANCH   4  28
ATOM     28  C   UNL     1      -4.743   1.964 126.240  0.00  0.00    +0.000 C 
BRANCH  28  29
ATOM     29  O   UNL     1      -3.817   3.059 126.170  0.00  0.00    +0.000 OA
BRANCH  29  30
ATOM     30  C   UNL     1      -2.769   3.153 127.027  0.00  0.00    +0.000 C 
ATOM     31  C   UNL     1      -1.367   2.915 126.526  0.00  0.00    +0.000 C 
ATOM     32  O   UNL     1      -2.965   3.447 128.204  0.00  0.00    +0.000 OA
ENDBRANCH  29  30
ENDBRANCH  28  29
ENDBRANCH   4  28
TORSDOF 9
ENDMDL
MODEL 6
REMARK VINA RESULT:      -7.1      4.161      5.240
REMARK  Name = Cephaloglycin
REMARK  10 active torsions:
REMARK  status: ('A' for Active; 'I' for Inactive)
REMARK    1  A    between atoms: C_5  and  C_6
REMARK    2  A    between atoms: C_6  and  O_7
REMARK    3  A    between atoms: O_7  and  C_8
REMARK    4  A    between atoms: C_8  and  C_9
REMARK    5  A    between atoms: CA_11  and  C_27
REMARK    6  A    between atoms: CA_15  and  N_16
REMARK    7  A    between atoms: C_17  and  CA_19
REMARK    8  A    between atoms: CA_19  and  N_20
REMARK    9  A    between atoms: CA_19  and  C_21
REMARK   10  A    between atoms: C_27  and  O_28
REMARK                            x       y       z     vdW  Elec       q    Type
REMARK                         _______ _______ _______ _____ _____    ______ ____
ROOT
ATOM      1  C   UNL     1      -4.740   2.874 126.132  0.00  0.00    +0.000 C 
ATOM      2  S   UNL     1      -5.722   1.682 127.057  0.00  0.00    +0.000 S 
ATOM      3  C   UNL     1      -5.966   0.601 125.604  0.00  0.00    +0.000 C 
ATOM      4  C   UNL     1      -6.524   1.336 124.401  0.00  0.00    +0.000 C 
ATOM      5  CA  UNL     1      -6.342   2.672 124.190  0.00  0.00    +0.000 C 
ATOM      6  N   UNL     1      -5.532   3.409 125.025  0.00  0.00    +0.000 N 
ATOM      7  C   UNL     1      -5.715   4.639 125.576  0.00  0.00    +0.000 C 
ATOM      8  O   UNL     1      -6.465   5.518 125.242  0.00  0.00    +0.000 OA
ATOM      9  CA  UNL     1      -4.655   4.329 126.680  0.00  0.00    +0.000 C 
ENDROOT
BRANCH   9  10
ATOM     10  N   UNL     1      -5.042   4.682 128.088  0.00  0.00    +0.000 N 
ATOM     11  C   UNL     1      -4.543   5.883 128.602  0.00  0.00    +0.000 C 
ATOM     12  O   UNL     1      -3.935   6.661 127.861  0.00  0.00    +0.000 OA
ATOM     13  H   UNL     1      -5.344   3.963 128.740  0.00  0.00    +0.000 HD
BRANCH  11  14
ATOM     14  CA  UNL     1      -4.651   6.098 130.154  0.00  0.00    +0.000 C 
BRANCH  14  15
ATOM     15  C   UNL     1      -3.339   5.787 130.871  0.00  0.00    +0.000 A 
ATOM     16  C   UNL     1      -3.172   4.593 131.594  0.00  0.00    +0.000 A 
ATOM     17  C   UNL     1      -2.057   4.422 132.421  0.00  0.00    +0.000 A 
ATOM     18  C   UNL     1      -1.040   5.376 132.440  0.00  0.00    +0.000 A 
ATOM     19  C   UNL     1      -1.158   6.528 131.679  0.00  0.00    +0.000 A 
ATOM     20  C   UNL     1      -2.304   6.735 130.924  0.00  0.00    +0.000 A 
ENDBRANCH  14  15
BRANCH  14  21
ATOM     21  N   UNL     1      -5.014   7.513 130.400  0.00  0.00    +0.000 NA
ATOM     22  H1  UNL     1      -5.517   7.551 131.292  0.00  0.00    +0.000 HD
ATOM     23  H2  UNL     1      -5.665   7.846 129.696  0.00  0.00    +0.000 HD
ENDBRANCH  14  21
ENDBRANCH  11  14
ENDBRANCH   9  10
BRANCH   5  24
ATOM     24  C   UNL     1      -7.015   3.330 122.988  0.00  0.00    +0.000 C 
ATOM     25  OXT UNL     1      -6.438   3.556 121.932  0.00  0.00    +0.000 OA
BRANCH  24  26
ATOM     26  O   UNL     1      -8.275   3.770 123.157  0.00  0.00    +0.000 OA
ATOM     27  H   UNL     1      -8.724   4.128 122.364  0.00  0.00    +0.000 HD
ENDBRANCH  24  26
ENDBRANCH   5  24
BRANCH   4  28
ATOM     28  C   UNL     1      -7.339   0.476 123.432  0.00  0.00    +0.000 C 
BRANCH  28  29
ATOM     29  O   UNL     1      -8.757   0.633 123.593  0.00  0.00    +0.000 OA
BRANCH  29  30
ATOM     30  C   UNL     1      -9.634  -0.188 122.960  0.00  0.00    +0.000 C 
ATOM     31  C   UNL     1      -9.347  -1.665 122.869  0.00  0.00    +0.000 C 
ATOM     32  O   UNL     1     -10.666   0.273 122.477  0.00  0.00    +0.000 OA
ENDBRANCH  29  30
ENDBRANCH  28  29
ENDBRANCH   4  28
TORSDOF 9
ENDMDL
MODEL 7
REMARK VINA RESULT:      -7.1      3.939      8.500
REMARK  Name = Cephaloglycin
REMARK  10 active torsions:
REMARK  status: ('A' for Active; 'I' for Inactive)
REMARK    1  A    between atoms: C_5  and  C_6
REMARK    2  A    between atoms: C_6  and  O_7
REMARK    3  A    between atoms: O_7  and  C_8
REMARK    4  A    between atoms: C_8  and  C_9
REMARK    5  A    between atoms: CA_11  and  C_27
REMARK    6  A    between atoms: CA_15  and  N_16
REMARK    7  A    between atoms: C_17  and  CA_19
REMARK    8  A    between atoms: CA_19  and  N_20
REMARK    9  A    between atoms: CA_19  and  C_21
REMARK   10  A    between atoms: C_27  and  O_28
REMARK                            x       y       z     vdW  Elec       q    Type
REMARK                         _______ _______ _______ _____ _____    ______ ____
ROOT
ATOM      1  C   UNL     1      -7.294   2.243 130.514  0.00  0.00    +0.000 C 
ATOM      2  S   UNL     1      -8.434   1.944 129.153  0.00  0.00    +0.000 S 
ATOM      3  C   UNL     1      -8.491   3.707 128.678  0.00  0.00    +0.000 C 
ATOM      4  C   UNL     1      -8.847   4.624 129.832  0.00  0.00    +0.000 C 
ATOM      5  CA  UNL     1      -8.600   4.313 131.137  0.00  0.00    +0.000 C 
ATOM      6  N   UNL     1      -7.901   3.174 131.466  0.00  0.00    +0.000 N 
ATOM      7  C   UNL     1      -8.129   2.243 132.432  0.00  0.00    +0.000 C 
ATOM      8  O   UNL     1      -8.798   2.330 133.428  0.00  0.00    +0.000 OA
ATOM      9  CA  UNL     1      -7.251   1.200 131.670  0.00  0.00    +0.000 C 
ENDROOT
BRANCH   9  10
ATOM     10  N   UNL     1      -7.830  -0.178 131.531  0.00  0.00    +0.000 N 
ATOM     11  C   UNL     1      -6.927  -1.234 131.373  0.00  0.00    +0.000 C 
ATOM     12  O   UNL     1      -5.716  -1.027 131.490  0.00  0.00    +0.000 OA
ATOM     13  H   UNL     1      -8.790  -0.310 131.223  0.00  0.00    +0.000 HD
BRANCH  11  14
ATOM     14  CA  UNL     1      -7.510  -2.610 130.891  0.00  0.00    +0.000 C 
BRANCH  14  15
ATOM     15  C   UNL     1      -7.892  -2.587 129.412  0.00  0.00    +0.000 A 
ATOM     16  C   UNL     1      -8.703  -3.592 128.857  0.00  0.00    +0.000 A 
ATOM     17  C   UNL     1      -8.860  -3.681 127.469  0.00  0.00    +0.000 A 
ATOM     18  C   UNL     1      -8.321  -2.703 126.634  0.00  0.00    +0.000 A 
ATOM     19  C   UNL     1      -7.575  -1.667 127.174  0.00  0.00    +0.000 A 
ATOM     20  C   UNL     1      -7.349  -1.627 128.542  0.00  0.00    +0.000 A 
ENDBRANCH  14  15
BRANCH  14  21
ATOM     21  N   UNL     1      -6.478  -3.651 131.109  0.00  0.00    +0.000 NA
ATOM     22  H1  UNL     1      -5.636  -3.360 130.603  0.00  0.00    +0.000 HD
ATOM     23  H2  UNL     1      -6.763  -4.533 130.696  0.00  0.00    +0.000 HD
ENDBRANCH  14  21
ENDBRANCH  11  14
ENDBRANCH   9  10
BRANCH   5  24
ATOM     24  C   UNL     1      -9.072   5.272 132.229  0.00  0.00    +0.000 C 
ATOM     25  OXT UNL     1      -8.396   6.205 132.645  0.00  0.00    +0.000 OA
BRANCH  24  26
ATOM     26  O   UNL     1     -10.247   4.995 132.821  0.00  0.00    +0.000 OA
ATOM     27  H   UNL     1     -10.208   4.484 133.655  0.00  0.00    +0.000 HD
ENDBRANCH  24  26
ENDBRANCH   5  24
BRANCH   4  28
ATOM     28  C   UNL     1      -9.535   5.933 129.437  0.00  0.00    +0.000 C 
BRANCH  28  29
ATOM     29  O   UNL     1      -9.586   6.139 128.017  0.00  0.00    +0.000 OA
BRANCH  29  30
ATOM     30  C   UNL     1     -10.418   7.060 127.467  0.00  0.00    +0.000 C 
ATOM     31  C   UNL     1     -10.646   8.376 128.165  0.00  0.00    +0.000 C 
ATOM     32  O   UNL     1     -10.971   6.823 126.395  0.00  0.00    +0.000 OA
ENDBRANCH  29  30
ENDBRANCH  28  29
ENDBRANCH   4  28
TORSDOF 9
ENDMDL
MODEL 8
REMARK VINA RESULT:      -7.1      4.709      5.767
REMARK  Name = Cephaloglycin
REMARK  10 active torsions:
REMARK  status: ('A' for Active; 'I' for Inactive)
REMARK    1  A    between atoms: C_5  and  C_6
REMARK    2  A    between atoms: C_6  and  O_7
REMARK    3  A    between atoms: O_7  and  C_8
REMARK    4  A    between atoms: C_8  and  C_9
REMARK    5  A    between atoms: CA_11  and  C_27
REMARK    6  A    between atoms: CA_15  and  N_16
REMARK    7  A    between atoms: C_17  and  CA_19
REMARK    8  A    between atoms: CA_19  and  N_20
REMARK    9  A    between atoms: CA_19  and  C_21
REMARK   10  A    between atoms: C_27  and  O_28
REMARK                            x       y       z     vdW  Elec       q    Type
REMARK                         _______ _______ _______ _____ _____    ______ ____
ROOT
ATOM      1  C   UNL     1      -7.720   1.883 129.575  0.00  0.00    +0.000 C 
ATOM      2  S   UNL     1      -6.195   2.619 130.185  0.00  0.00    +0.000 S 
ATOM      3  C   UNL     1      -5.182   1.182 129.685  0.00  0.00    +0.000 C 
ATOM      4  C   UNL     1      -5.707  -0.134 130.223  0.00  0.00    +0.000 C 
ATOM      5  CA  UNL     1      -7.018  -0.344 130.536  0.00  0.00    +0.000 C 
ATOM      6  N   UNL     1      -7.966   0.618 130.266  0.00  0.00    +0.000 N 
ATOM      7  C   UNL     1      -8.999   1.079 131.022  0.00  0.00    +0.000 C 
ATOM      8  O   UNL     1      -9.536   0.566 131.968  0.00  0.00    +0.000 OA
ATOM      9  CA  UNL     1      -9.064   2.390 130.178  0.00  0.00    +0.000 C 
ENDROOT
BRANCH   9  10
ATOM     10  N   UNL     1      -9.165   3.673 130.952  0.00  0.00    +0.000 N 
ATOM     11  C   UNL     1     -10.308   4.451 130.746  0.00  0.00    +0.000 C 
ATOM     12  O   UNL     1     -11.236   4.008 130.064  0.00  0.00    +0.000 OA
ATOM     13  H   UNL     1      -8.333   4.122 131.324  0.00  0.00    +0.000 HD
BRANCH  11  14
ATOM     14  CA  UNL     1     -10.273   5.930 131.274  0.00  0.00    +0.000 C 
BRANCH  14  15
ATOM     15  C   UNL     1     -10.951   6.902 130.310  0.00  0.00    +0.000 A 
ATOM     16  C   UNL     1     -10.292   7.353 129.153  0.00  0.00    +0.000 A 
ATOM     17  C   UNL     1     -10.831   8.403 128.402  0.00  0.00    +0.000 A 
ATOM     18  C   UNL     1     -12.084   8.926 128.719  0.00  0.00    +0.000 A 
ATOM     19  C   UNL     1     -12.778   8.444 129.817  0.00  0.00    +0.000 A 
ATOM     20  C   UNL     1     -12.204   7.460 130.610  0.00  0.00    +0.000 A 
ENDBRANCH  14  15
BRANCH  14  21
ATOM     21  N   UNL     1     -10.977   5.973 132.578  0.00  0.00    +0.000 NA
ATOM     22  H1  UNL     1     -11.980   6.053 132.384  0.00  0.00    +0.000 HD
ATOM     23  H2  UNL     1     -10.723   6.807 133.097  0.00  0.00    +0.000 HD
ENDBRANCH  14  21
ENDBRANCH  11  14
ENDBRANCH   9  10
BRANCH   5  24
ATOM     24  C   UNL     1      -7.428  -1.682 131.148  0.00  0.00    +0.000 C 
ATOM     25  OXT UNL     1      -7.795  -2.644 130.484  0.00  0.00    +0.000 OA
BRANCH  24  26
ATOM     26  O   UNL     1      -7.482  -1.750 132.491  0.00  0.00    +0.000 OA
ATOM     27  H   UNL     1      -8.299  -1.417 132.914  0.00  0.00    +0.000 HD
ENDBRANCH  24  26
ENDBRANCH   5  24
BRANCH   4  28
ATOM     28  C   UNL     1      -4.651  -1.225 130.422  0.00  0.00    +0.000 C 
BRANCH  28  29
ATOM     29  O   UNL     1      -4.546  -2.119 129.304  0.00  0.00    +0.000 OA
BRANCH  29  30
ATOM     30  C   UNL     1      -4.178  -3.415 129.470  0.00  0.00    +0.000 C 
ATOM     31  C   UNL     1      -2.826  -3.879 128.990  0.00  0.00    +0.000 C 
ATOM     32  O   UNL     1      -4.942  -4.203 130.023  0.00  0.00    +0.000 OA
ENDBRANCH  29  30
ENDBRANCH  28  29
ENDBRANCH   4  28
TORSDOF 9
ENDMDL
MODEL 9
REMARK VINA RESULT:      -7.1      2.002      2.483
REMARK  Name = Cephaloglycin
REMARK  10 active torsions:
REMARK  status: ('A' for Active; 'I' for Inactive)
REMARK    1  A    between atoms: C_5  and  C_6
REMARK    2  A    between atoms: C_6  and  O_7
REMARK    3  A    between atoms: O_7  and  C_8
REMARK    4  A    between atoms: C_8  and  C_9
REMARK    5  A    between atoms: CA_11  and  C_27
REMARK    6  A    between atoms: CA_15  and  N_16
REMARK    7  A    between atoms: C_17  and  CA_19
REMARK    8  A    between atoms: CA_19  and  N_20
REMARK    9  A    between atoms: CA_19  and  C_21
REMARK   10  A    between atoms: C_27  and  O_28
REMARK                            x       y       z     vdW  Elec       q    Type
REMARK                         _______ _______ _______ _____ _____    ______ ____
ROOT
ATOM      1  C   UNL     1      -7.301   2.591 129.506  0.00  0.00    +0.000 C 
ATOM      2  S   UNL     1      -8.584   1.543 130.210  0.00  0.00    +0.000 S 
ATOM      3  C   UNL     1      -7.707   0.001 129.771  0.00  0.00    +0.000 C 
ATOM      4  C   UNL     1      -7.329  -0.073 128.305  0.00  0.00    +0.000 C 
ATOM      5  CA  UNL     1      -7.125   1.030 127.529  0.00  0.00    +0.000 C 
ATOM      6  N   UNL     1      -7.147   2.290 128.083  0.00  0.00    +0.000 N 
ATOM      7  C   UNL     1      -7.724   3.440 127.642  0.00  0.00    +0.000 C 
ATOM      8  O   UNL     1      -8.088   3.732 126.533  0.00  0.00    +0.000 OA
ATOM      9  CA  UNL     1      -7.694   4.038 129.085  0.00  0.00    +0.000 C 
ENDROOT
BRANCH   9  10
ATOM     10  N   UNL     1      -8.958   4.698 129.556  0.00  0.00    +0.000 N 
ATOM     11  C   UNL     1      -8.827   5.921 130.221  0.00  0.00    +0.000 C 
ATOM     12  O   UNL     1      -7.725   6.473 130.275  0.00  0.00    +0.000 OA
ATOM     13  H   UNL     1      -9.804   4.155 129.701  0.00  0.00    +0.000 HD
BRANCH  11  14
ATOM     14  CA  UNL     1     -10.080   6.446 131.008  0.00  0.00    +0.000 C 
BRANCH  14  15
ATOM     15  C   UNL     1     -11.090   7.134 130.092  0.00  0.00    +0.000 A 
ATOM     16  C   UNL     1     -12.462   6.839 130.173  0.00  0.00    +0.000 A 
ATOM     17  C   UNL     1     -13.340   7.305 129.188  0.00  0.00    +0.000 A 
ATOM     18  C   UNL     1     -12.887   8.169 128.191  0.00  0.00    +0.000 A 
ATOM     19  C   UNL     1     -11.549   8.524 128.139  0.00  0.00    +0.000 A 
ATOM     20  C   UNL     1     -10.664   7.993 129.066  0.00  0.00    +0.000 A 
ENDBRANCH  14  15
BRANCH  14  21
ATOM     21  N   UNL     1     -10.732   5.289 131.665  0.00  0.00    +0.000 NA
ATOM     22  H1  UNL     1     -10.217   5.096 132.530  0.00  0.00    +0.000 HD
ATOM     23  H2  UNL     1     -10.645   4.454 131.094  0.00  0.00    +0.000 HD
ENDBRANCH  14  21
ENDBRANCH  11  14
ENDBRANCH   9  10
BRANCH   5  24
ATOM     24  C   UNL     1      -6.826   0.845 126.043  0.00  0.00    +0.000 C 
ATOM     25  OXT UNL     1      -5.693   0.725 125.592  0.00  0.00    +0.000 OA
BRANCH  24  26
ATOM     26  O   UNL     1      -7.867   0.927 125.195  0.00  0.00    +0.000 OA
ATOM     27  H   UNL     1      -7.875   1.691 124.583  0.00  0.00    +0.000 HD
ENDBRANCH  24  26
ENDBRANCH   5  24
BRANCH   4  28
ATOM     28  C   UNL     1      -7.211  -1.488 127.732  0.00  0.00    +0.000 C 
BRANCH  28  29
ATOM     29  O   UNL     1      -8.483  -2.088 127.441  0.00  0.00    +0.000 OA
BRANCH  29  30
ATOM     30  C   UNL     1      -8.889  -2.295 126.163  0.00  0.00    +0.000 C 
ATOM     31  C   UNL     1      -8.482  -3.553 125.441  0.00  0.00    +0.000 C 
ATOM     32  O   UNL     1      -9.600  -1.462 125.604  0.00  0.00    +0.000 OA
ENDBRANCH  29  30
ENDBRANCH  28  29
ENDBRANCH   4  28
TORSDOF 9
ENDMDL
