MODEL 1
REMARK VINA RESULT:      -7.5      0.000      0.000
REMARK  Name = Cerivastatin
REMARK  19 active torsions:
REMARK  status: ('A' for Active; 'I' for Inactive)
REMARK    1  A    between atoms: C_1  and  O_2
REMARK    2  A    between atoms: O_2  and  C_3
REMARK    3  A    between atoms: C_3  and  C_4
REMARK    4  A    between atoms: C_5  and  C_6
REMARK    5  A    between atoms: C_13  and  C_14
REMARK    6  A    between atoms: C_15  and  C_16
REMARK    7  A    between atoms: C_16  and  O_17
REMARK    8  A    between atoms: C_16  and  C_18
REMARK    9  A    between atoms: C_18  and  C_19
REMARK   10  A    between atoms: C_19  and  O_20
REMARK   11  A    between atoms: C_19  and  C_21
REMARK   12  A    between atoms: C_21  and  C_22
REMARK   13  A    between atoms: C_22  and  O_23
REMARK   14  A    between atoms: C_25  and  C_26
REMARK   15  A    between atoms: C_26  and  C_27
REMARK   16  A    between atoms: C_26  and  C_28
REMARK   17  A    between atoms: C_30  and  C_31
REMARK   18  A    between atoms: C_31  and  C_32
REMARK   19  A    between atoms: C_31  and  C_33
REMARK                            x       y       z     vdW  Elec       q    Type
REMARK                         _______ _______ _______ _____ _____    ______ ____
ROOT
ATOM      1  C   UNL     1      -5.737  -0.585 128.043  0.00  0.00    +0.000 A 
ATOM      2  C   UNL     1      -6.146  -0.145 126.762  0.00  0.00    +0.000 A 
ATOM      3  C   UNL     1      -5.874   1.178 126.317  0.00  0.00    +0.000 A 
ATOM      4  C   UNL     1      -5.117   2.012 127.177  0.00  0.00    +0.000 A 
ATOM      5  N   UNL     1      -4.701   1.560 128.412  0.00  0.00    +0.000 NA
ATOM      6  C   UNL     1      -4.995   0.290 128.848  0.00  0.00    +0.000 A 
ENDROOT
BRANCH   2   7
ATOM      7  C   UNL     1      -6.874  -1.123 125.915  0.00  0.00    +0.000 A 
ATOM      8  C   UNL     1      -8.285  -1.205 125.992  0.00  0.00    +0.000 A 
ATOM      9  C   UNL     1      -8.992  -2.068 125.170  0.00  0.00    +0.000 A 
ATOM     10  C   UNL     1      -8.309  -2.752 124.175  0.00  0.00    +0.000 A 
ATOM     11  F   UNL     1      -9.004  -3.468 123.284  0.00  0.00    +0.000 F 
ATOM     12  C   UNL     1      -6.926  -2.657 124.044  0.00  0.00    +0.000 A 
ATOM     13  C   UNL     1      -6.195  -1.897 124.956  0.00  0.00    +0.000 A 
ENDBRANCH   2   7
BRANCH   4  14
ATOM     14  C   UNL     1      -4.700   3.475 126.880  0.00  0.00    +0.000 C 
ATOM     15  C   UNL     1      -5.012   4.397 128.064  0.00  0.00    +0.000 C 
ATOM     16  C   UNL     1      -3.235   3.748 126.553  0.00  0.00    +0.000 C 
ENDBRANCH   4  14
BRANCH   6  17
ATOM     17  C   UNL     1      -4.435  -0.063 130.240  0.00  0.00    +0.000 C 
ATOM     18  C   UNL     1      -5.533   0.018 131.302  0.00  0.00    +0.000 C 
ATOM     19  C   UNL     1      -3.819  -1.448 130.420  0.00  0.00    +0.000 C 
ENDBRANCH   6  17
BRANCH   3  20
ATOM     20  C   UNL     1      -6.333   1.582 124.973  0.00  0.00    +0.000 C 
ATOM     21  C   UNL     1      -7.446   2.161 124.532  0.00  0.00    +0.000 C 
BRANCH  21  22
ATOM     22  C   UNL     1      -7.752   2.345 123.098  0.00  0.00    +0.000 C 
BRANCH  22  23
ATOM     23  O   UNL     1      -8.560   3.499 122.902  0.00  0.00    +0.000 OA
ATOM     24  H   UNL     1      -8.628   3.983 123.741  0.00  0.00    +0.000 HD
ENDBRANCH  22  23
BRANCH  22  25
ATOM     25  C   UNL     1      -6.414   2.462 122.387  0.00  0.00    +0.000 C 
BRANCH  25  26
ATOM     26  C   UNL     1      -6.216   3.872 121.901  0.00  0.00    +0.000 C 
BRANCH  26  27
ATOM     27  O   UNL     1      -5.786   4.727 122.959  0.00  0.00    +0.000 OA
ATOM     28  H   UNL     1      -5.600   4.177 123.744  0.00  0.00    +0.000 HD
ENDBRANCH  26  27
BRANCH  26  29
ATOM     29  C   UNL     1      -5.172   3.932 120.815  0.00  0.00    +0.000 C 
BRANCH  29  30
ATOM     30  C   UNL     1      -4.993   5.323 120.248  0.00  0.00    +0.000 C 
ATOM     31  O   UNL     1      -5.514   5.656 119.209  0.00  0.00    +0.000 OA
BRANCH  30  32
ATOM     32  O   UNL     1      -4.214   6.173 120.962  0.00  0.00    +0.000 OA
ATOM     33  H   UNL     1      -3.815   5.793 121.778  0.00  0.00    +0.000 HD
ENDBRANCH  30  32
ENDBRANCH  29  30
ENDBRANCH  26  29
ENDBRANCH  25  26
ENDBRANCH  22  25
ENDBRANCH  21  22
ENDBRANCH   3  20
BRANCH   1  34
ATOM     34  C   UNL     1      -6.115  -2.000 128.392  0.00  0.00    +0.000 C 
BRANCH  34  36
ATOM     35  C   UNL     1      -7.880  -3.300 129.136  0.00  0.00    +0.000 C 
ATOM     36  O   UNL     1      -7.265  -2.023 129.224  0.00  0.00    +0.000 OA
ENDBRANCH  34  36
ENDBRANCH   1  34
TORSDOF 14
ENDMDL
MODEL 2
REMARK VINA RESULT:      -7.5      4.068      6.262
REMARK  Name = Cerivastatin
REMARK  19 active torsions:
REMARK  status: ('A' for Active; 'I' for Inactive)
REMARK    1  A    between atoms: C_1  and  O_2
REMARK    2  A    between atoms: O_2  and  C_3
REMARK    3  A    between atoms: C_3  and  C_4
REMARK    4  A    between atoms: C_5  and  C_6
REMARK    5  A    between atoms: C_13  and  C_14
REMARK    6  A    between atoms: C_15  and  C_16
REMARK    7  A    between atoms: C_16  and  O_17
REMARK    8  A    between atoms: C_16  and  C_18
REMARK    9  A    between atoms: C_18  and  C_19
REMARK   10  A    between atoms: C_19  and  O_20
REMARK   11  A    between atoms: C_19  and  C_21
REMARK   12  A    between atoms: C_21  and  C_22
REMARK   13  A    between atoms: C_22  and  O_23
REMARK   14  A    between atoms: C_25  and  C_26
REMARK   15  A    between atoms: C_26  and  C_27
REMARK   16  A    between atoms: C_26  and  C_28
REMARK   17  A    between atoms: C_30  and  C_31
REMARK   18  A    between atoms: C_31  and  C_32
REMARK   19  A    between atoms: C_31  and  C_33
REMARK                            x       y       z     vdW  Elec       q    Type
REMARK                         _______ _______ _______ _____ _____    ______ ____
ROOT
ATOM      1  C   UNL     1      -8.000  -0.904 127.135  0.00  0.00    +0.000 A 
ATOM      2  C   UNL     1      -8.083   0.500 127.290  0.00  0.00    +0.000 A 
ATOM      3  C   UNL     1      -8.078   1.100 128.579  0.00  0.00    +0.000 A 
ATOM      4  C   UNL     1      -7.915   0.242 129.695  0.00  0.00    +0.000 A 
ATOM      5  N   UNL     1      -7.807  -1.123 129.528  0.00  0.00    +0.000 NA
ATOM      6  C   UNL     1      -7.845  -1.698 128.280  0.00  0.00    +0.000 A 
ENDROOT
BRANCH   2   7
ATOM      7  C   UNL     1      -8.182   1.309 126.049  0.00  0.00    +0.000 A 
ATOM      8  C   UNL     1      -7.007   1.836 125.459  0.00  0.00    +0.000 A 
ATOM      9  C   UNL     1      -7.067   2.543 124.268  0.00  0.00    +0.000 A 
ATOM     10  C   UNL     1      -8.276   2.612 123.592  0.00  0.00    +0.000 A 
ATOM     11  F   UNL     1      -8.309   3.162 122.373  0.00  0.00    +0.000 F 
ATOM     12  C   UNL     1      -9.440   2.064 124.125  0.00  0.00    +0.000 A 
ATOM     13  C   UNL     1      -9.412   1.472 125.386  0.00  0.00    +0.000 A 
ENDBRANCH   2   7
BRANCH   4  14
ATOM     14  C   UNL     1      -7.868   0.690 131.179  0.00  0.00    +0.000 C 
ATOM     15  C   UNL     1      -9.245   0.574 131.843  0.00  0.00    +0.000 C 
ATOM     16  C   UNL     1      -6.923  -0.052 132.119  0.00  0.00    +0.000 C 
ENDBRANCH   4  14
BRANCH   6  17
ATOM     17  C   UNL     1      -7.687  -3.230 128.268  0.00  0.00    +0.000 C 
ATOM     18  C   UNL     1      -7.040  -3.719 129.565  0.00  0.00    +0.000 C 
ATOM     19  C   UNL     1      -8.956  -4.067 128.124  0.00  0.00    +0.000 C 
ENDBRANCH   6  17
BRANCH   3  20
ATOM     20  C   UNL     1      -8.175   2.570 128.677  0.00  0.00    +0.000 C 
ATOM     21  C   UNL     1      -8.692   3.384 129.593  0.00  0.00    +0.000 C 
BRANCH  21  22
ATOM     22  C   UNL     1      -8.801   4.846 129.409  0.00  0.00    +0.000 C 
BRANCH  22  23
ATOM     23  O   UNL     1      -8.800   5.179 128.026  0.00  0.00    +0.000 OA
ATOM     24  H   UNL     1      -8.824   4.361 127.503  0.00  0.00    +0.000 HD
ENDBRANCH  22  23
BRANCH  22  25
ATOM     25  C   UNL     1     -10.092   5.268 130.091  0.00  0.00    +0.000 C 
BRANCH  25  26
ATOM     26  C   UNL     1     -10.129   6.765 130.232  0.00  0.00    +0.000 C 
BRANCH  26  27
ATOM     27  O   UNL     1      -8.947   7.363 129.704  0.00  0.00    +0.000 OA
ATOM     28  H   UNL     1      -9.176   7.813 128.868  0.00  0.00    +0.000 HD
ENDBRANCH  26  27
BRANCH  26  29
ATOM     29  C   UNL     1     -11.305   7.352 129.491  0.00  0.00    +0.000 C 
BRANCH  29  30
ATOM     30  C   UNL     1     -10.969   7.739 128.068  0.00  0.00    +0.000 C 
ATOM     31  O   UNL     1     -10.936   6.921 127.178  0.00  0.00    +0.000 OA
BRANCH  30  32
ATOM     32  O   UNL     1     -10.700   9.049 127.843  0.00  0.00    +0.000 OA
ATOM     33  H   UNL     1     -11.311   9.503 127.218  0.00  0.00    +0.000 HD
ENDBRANCH  30  32
ENDBRANCH  29  30
ENDBRANCH  26  29
ENDBRANCH  25  26
ENDBRANCH  22  25
ENDBRANCH  21  22
ENDBRANCH   3  20
BRANCH   1  34
ATOM     34  C   UNL     1      -8.043  -1.401 125.715  0.00  0.00    +0.000 C 
BRANCH  34  36
ATOM     35  C   UNL     1      -9.175  -3.038 124.532  0.00  0.00    +0.000 C 
ATOM     36  O   UNL     1      -9.325  -1.928 125.404  0.00  0.00    +0.000 OA
ENDBRANCH  34  36
ENDBRANCH   1  34
TORSDOF 14
ENDMDL
MODEL 3
REMARK VINA RESULT:      -7.2      4.261      7.813
REMARK  Name = Cerivastatin
REMARK  19 active torsions:
REMARK  status: ('A' for Active; 'I' for Inactive)
REMARK    1  A    between atoms: C_1  and  O_2
REMARK    2  A    between atoms: O_2  and  C_3
REMARK    3  A    between atoms: C_3  and  C_4
REMARK    4  A    between atoms: C_5  and  C_6
REMARK    5  A    between atoms: C_13  and  C_14
REMARK    6  A    between atoms: C_15  and  C_16
REMARK    7  A    between atoms: C_16  and  O_17
REMARK    8  A    between atoms: C_16  and  C_18
REMARK    9  A    between atoms: C_18  and  C_19
REMARK   10  A    between atoms: C_19  and  O_20
REMARK   11  A    between atoms: C_19  and  C_21
REMARK   12  A    between atoms: C_21  and  C_22
REMARK   13  A    between atoms: C_22  and  O_23
REMARK   14  A    between atoms: C_25  and  C_26
REMARK   15  A    between atoms: C_26  and  C_27
REMARK   16  A    between atoms: C_26  and  C_28
REMARK   17  A    between atoms: C_30  and  C_31
REMARK   18  A    between atoms: C_31  and  C_32
REMARK   19  A    between atoms: C_31  and  C_33
REMARK                            x       y       z     vdW  Elec       q    Type
REMARK                         _______ _______ _______ _____ _____    ______ ____
ROOT
ATOM      1  C   UNL     1      -7.516  -0.173 125.010  0.00  0.00    +0.000 A 
ATOM      2  C   UNL     1      -7.366   0.594 126.190  0.00  0.00    +0.000 A 
ATOM      3  C   UNL     1      -7.513   0.004 127.475  0.00  0.00    +0.000 A 
ATOM      4  C   UNL     1      -7.745  -1.393 127.527  0.00  0.00    +0.000 A 
ATOM      5  N   UNL     1      -7.861  -2.134 126.369  0.00  0.00    +0.000 NA
ATOM      6  C   UNL     1      -7.749  -1.550 125.129  0.00  0.00    +0.000 A 
ENDROOT
BRANCH   2   7
ATOM      7  C   UNL     1      -7.057   2.036 126.020  0.00  0.00    +0.000 A 
ATOM      8  C   UNL     1      -5.734   2.439 125.714  0.00  0.00    +0.000 A 
ATOM      9  C   UNL     1      -5.432   3.773 125.492  0.00  0.00    +0.000 A 
ATOM     10  C   UNL     1      -6.469   4.693 125.439  0.00  0.00    +0.000 A 
ATOM     11  F   UNL     1      -6.202   5.953 125.077  0.00  0.00    +0.000 F 
ATOM     12  C   UNL     1      -7.786   4.319 125.690  0.00  0.00    +0.000 A 
ATOM     13  C   UNL     1      -8.077   3.004 126.050  0.00  0.00    +0.000 A 
ENDBRANCH   2   7
BRANCH   4  14
ATOM     14  C   UNL     1      -7.920  -2.233 128.819  0.00  0.00    +0.000 C 
ATOM     15  C   UNL     1      -8.636  -3.557 128.533  0.00  0.00    +0.000 C 
ATOM     16  C   UNL     1      -6.664  -2.631 129.587  0.00  0.00    +0.000 C 
ENDBRANCH   4  14
BRANCH   6  17
ATOM     17  C   UNL     1      -7.880  -2.522 123.941  0.00  0.00    +0.000 C 
ATOM     18  C   UNL     1      -7.312  -3.896 124.300  0.00  0.00    +0.000 C 
ATOM     19  C   UNL     1      -9.284  -2.804 123.414  0.00  0.00    +0.000 C 
ENDBRANCH   6  17
BRANCH   3  20
ATOM     20  C   UNL     1      -7.353   0.857 128.669  0.00  0.00    +0.000 C 
ATOM     21  C   UNL     1      -8.223   1.435 129.492  0.00  0.00    +0.000 C 
BRANCH  21  22
ATOM     22  C   UNL     1      -7.827   2.378 130.559  0.00  0.00    +0.000 C 
BRANCH  22  23
ATOM     23  O   UNL     1      -6.412   2.520 130.603  0.00  0.00    +0.000 OA
ATOM     24  H   UNL     1      -6.004   1.751 130.173  0.00  0.00    +0.000 HD
ENDBRANCH  22  23
BRANCH  22  25
ATOM     25  C   UNL     1      -8.518   3.694 130.245  0.00  0.00    +0.000 C 
BRANCH  25  26
ATOM     26  C   UNL     1      -9.912   3.687 130.811  0.00  0.00    +0.000 C 
BRANCH  26  27
ATOM     27  O   UNL     1      -9.890   3.733 132.237  0.00  0.00    +0.000 OA
ATOM     28  H   UNL     1     -10.776   3.491 132.567  0.00  0.00    +0.000 HD
ENDBRANCH  26  27
BRANCH  26  29
ATOM     29  C   UNL     1     -10.701   4.879 130.330  0.00  0.00    +0.000 C 
BRANCH  29  30
ATOM     30  C   UNL     1     -10.826   5.962 131.378  0.00  0.00    +0.000 C 
ATOM     31  O   UNL     1      -9.912   6.714 131.626  0.00  0.00    +0.000 OA
BRANCH  30  32
ATOM     32  O   UNL     1     -12.014   6.043 132.028  0.00  0.00    +0.000 OA
ATOM     33  H   UNL     1     -12.433   6.934 132.029  0.00  0.00    +0.000 HD
ENDBRANCH  30  32
ENDBRANCH  29  30
ENDBRANCH  26  29
ENDBRANCH  25  26
ENDBRANCH  22  25
ENDBRANCH  21  22
ENDBRANCH   3  20
BRANCH   1  34
ATOM     34  C   UNL     1      -7.360   0.588 123.720  0.00  0.00    +0.000 C 
BRANCH  34  36
ATOM     35  C   UNL     1      -8.672   2.163 122.645  0.00  0.00    +0.000 C 
ATOM     36  O   UNL     1      -8.623   0.825 123.119  0.00  0.00    +0.000 OA
ENDBRANCH  34  36
ENDBRANCH   1  34
TORSDOF 14
ENDMDL
MODEL 4
REMARK VINA RESULT:      -7.2      2.367      4.635
REMARK  Name = Cerivastatin
REMARK  19 active torsions:
REMARK  status: ('A' for Active; 'I' for Inactive)
REMARK    1  A    between atoms: C_1  and  O_2
REMARK    2  A    between atoms: O_2  and  C_3
REMARK    3  A    between atoms: C_3  and  C_4
REMARK    4  A    between atoms: C_5  and  C_6
REMARK    5  A    between atoms: C_13  and  C_14
REMARK    6  A    between atoms: C_15  and  C_16
REMARK    7  A    between atoms: C_16  and  O_17
REMARK    8  A    between atoms: C_16  and  C_18
REMARK    9  A    between atoms: C_18  and  C_19
REMARK   10  A    between atoms: C_19  and  O_20
REMARK   11  A    between atoms: C_19  and  C_21
REMARK   12  A    between atoms: C_21  and  C_22
REMARK   13  A    between atoms: C_22  and  O_23
REMARK   14  A    between atoms: C_25  and  C_26
REMARK   15  A    between atoms: C_26  and  C_27
REMARK   16  A    between atoms: C_26  and  C_28
REMARK   17  A    between atoms: C_30  and  C_31
REMARK   18  A    between atoms: C_31  and  C_32
REMARK   19  A    between atoms: C_31  and  C_33
REMARK                            x       y       z     vdW  Elec       q    Type
REMARK                         _______ _______ _______ _____ _____    ______ ____
ROOT
ATOM      1  C   UNL     1      -5.641  -0.264 128.048  0.00  0.00    +0.000 A 
ATOM      2  C   UNL     1      -5.908   0.489 126.879  0.00  0.00    +0.000 A 
ATOM      3  C   UNL     1      -6.549  -0.101 125.755  0.00  0.00    +0.000 A 
ATOM      4  C   UNL     1      -6.971  -1.448 125.879  0.00  0.00    +0.000 A 
ATOM      5  N   UNL     1      -6.729  -2.161 127.034  0.00  0.00    +0.000 NA
ATOM      6  C   UNL     1      -6.081  -1.593 128.105  0.00  0.00    +0.000 A 
ENDROOT
BRANCH   2   7
ATOM      7  C   UNL     1      -5.484   1.910 126.883  0.00  0.00    +0.000 A 
ATOM      8  C   UNL     1      -6.345   2.899 127.418  0.00  0.00    +0.000 A 
ATOM      9  C   UNL     1      -5.947   4.225 127.487  0.00  0.00    +0.000 A 
ATOM     10  C   UNL     1      -4.640   4.549 127.150  0.00  0.00    +0.000 A 
ATOM     11  F   UNL     1      -4.206   5.797 127.358  0.00  0.00    +0.000 F 
ATOM     12  C   UNL     1      -3.756   3.590 126.664  0.00  0.00    +0.000 A 
ATOM     13  C   UNL     1      -4.193   2.282 126.463  0.00  0.00    +0.000 A 
ENDBRANCH   2   7
BRANCH   4  14
ATOM     14  C   UNL     1      -7.698  -2.272 124.784  0.00  0.00    +0.000 C 
ATOM     15  C   UNL     1      -7.753  -3.760 125.148  0.00  0.00    +0.000 C 
ATOM     16  C   UNL     1      -9.139  -1.902 124.450  0.00  0.00    +0.000 C 
ENDBRANCH   4  14
BRANCH   6  17
ATOM     17  C   UNL     1      -5.912  -2.519 129.326  0.00  0.00    +0.000 C 
ATOM     18  C   UNL     1      -7.084  -3.497 129.430  0.00  0.00    +0.000 C 
ATOM     19  C   UNL     1      -4.664  -3.396 129.377  0.00  0.00    +0.000 C 
ENDBRANCH   6  17
BRANCH   3  20
ATOM     20  C   UNL     1      -6.794   0.732 124.561  0.00  0.00    +0.000 C 
ATOM     21  C   UNL     1      -7.766   1.578 124.232  0.00  0.00    +0.000 C 
BRANCH  21  22
ATOM     22  C   UNL     1      -7.878   2.206 122.899  0.00  0.00    +0.000 C 
BRANCH  22  23
ATOM     23  O   UNL     1      -8.613   3.421 122.977  0.00  0.00    +0.000 OA
ATOM     24  H   UNL     1      -8.531   3.895 122.133  0.00  0.00    +0.000 HD
ENDBRANCH  22  23
BRANCH  22  25
ATOM     25  C   UNL     1      -6.457   2.435 122.413  0.00  0.00    +0.000 C 
BRANCH  25  26
ATOM     26  C   UNL     1      -6.256   3.889 122.087  0.00  0.00    +0.000 C 
BRANCH  26  27
ATOM     27  O   UNL     1      -5.882   4.631 123.246  0.00  0.00    +0.000 OA
ATOM     28  H   UNL     1      -6.149   4.125 124.037  0.00  0.00    +0.000 HD
ENDBRANCH  26  27
BRANCH  26  29
ATOM     29  C   UNL     1      -5.167   4.072 121.060  0.00  0.00    +0.000 C 
BRANCH  29  30
ATOM     30  C   UNL     1      -5.528   5.084 119.995  0.00  0.00    +0.000 C 
ATOM     31  O   UNL     1      -6.381   4.860 119.169  0.00  0.00    +0.000 OA
BRANCH  30  32
ATOM     32  O   UNL     1      -4.840   6.253 120.013  0.00  0.00    +0.000 OA
ATOM     33  H   UNL     1      -4.378   6.457 120.858  0.00  0.00    +0.000 HD
ENDBRANCH  30  32
ENDBRANCH  29  30
ENDBRANCH  26  29
ENDBRANCH  25  26
ENDBRANCH  22  25
ENDBRANCH  21  22
ENDBRANCH   3  20
BRANCH   1  34
ATOM     34  C   UNL     1      -4.934   0.481 129.148  0.00  0.00    +0.000 C 
BRANCH  34  36
ATOM     35  C   UNL     1      -5.407   1.971 130.856  0.00  0.00    +0.000 C 
ATOM     36  O   UNL     1      -5.828   0.778 130.211  0.00  0.00    +0.000 OA
ENDBRANCH  34  36
ENDBRANCH   1  34
TORSDOF 14
ENDMDL
MODEL 5
REMARK VINA RESULT:      -7.0      4.294      7.347
REMARK  Name = Cerivastatin
REMARK  19 active torsions:
REMARK  status: ('A' for Active; 'I' for Inactive)
REMARK    1  A    between atoms: C_1  and  O_2
REMARK    2  A    between atoms: O_2  and  C_3
REMARK    3  A    between atoms: C_3  and  C_4
REMARK    4  A    between atoms: C_5  and  C_6
REMARK    5  A    between atoms: C_13  and  C_14
REMARK    6  A    between atoms: C_15  and  C_16
REMARK    7  A    between atoms: C_16  and  O_17
REMARK    8  A    between atoms: C_16  and  C_18
REMARK    9  A    between atoms: C_18  and  C_19
REMARK   10  A    between atoms: C_19  and  O_20
REMARK   11  A    between atoms: C_19  and  C_21
REMARK   12  A    between atoms: C_21  and  C_22
REMARK   13  A    between atoms: C_22  and  O_23
REMARK   14  A    between atoms: C_25  and  C_26
REMARK   15  A    between atoms: C_26  and  C_27
REMARK   16  A    between atoms: C_26  and  C_28
REMARK   17  A    between atoms: C_30  and  C_31
REMARK   18  A    between atoms: C_31  and  C_32
REMARK   19  A    between atoms: C_31  and  C_33
REMARK                            x       y       z     vdW  Elec       q    Type
REMARK                         _______ _______ _______ _____ _____    ______ ____
ROOT
ATOM      1  C   UNL     1      -7.550  -1.476 126.953  0.00  0.00    +0.000 A 
ATOM      2  C   UNL     1      -7.729  -0.206 127.551  0.00  0.00    +0.000 A 
ATOM      3  C   UNL     1      -8.361   0.857 126.847  0.00  0.00    +0.000 A 
ATOM      4  C   UNL     1      -8.864   0.571 125.554  0.00  0.00    +0.000 A 
ATOM      5  N   UNL     1      -8.708  -0.679 124.994  0.00  0.00    +0.000 NA
ATOM      6  C   UNL     1      -8.068  -1.692 125.669  0.00  0.00    +0.000 A 
ENDROOT
BRANCH   2   7
ATOM      7  C   UNL     1      -7.223  -0.037 128.936  0.00  0.00    +0.000 A 
ATOM      8  C   UNL     1      -5.871   0.326 129.150  0.00  0.00    +0.000 A 
ATOM      9  C   UNL     1      -5.389   0.548 130.431  0.00  0.00    +0.000 A 
ATOM     10  C   UNL     1      -6.284   0.541 131.491  0.00  0.00    +0.000 A 
ATOM     11  F   UNL     1      -5.855   0.902 132.706  0.00  0.00    +0.000 F 
ATOM     12  C   UNL     1      -7.629   0.233 131.306  0.00  0.00    +0.000 A 
ATOM     13  C   UNL     1      -8.090  -0.126 130.041  0.00  0.00    +0.000 A 
ENDBRANCH   2   7
BRANCH   4  14
ATOM     14  C   UNL     1      -9.596   1.577 124.628  0.00  0.00    +0.000 C 
ATOM     15  C   UNL     1      -8.630   2.629 124.071  0.00  0.00    +0.000 C 
ATOM     16  C   UNL     1     -10.315   1.025 123.401  0.00  0.00    +0.000 C 
ENDBRANCH   4  14
BRANCH   6  17
ATOM     17  C   UNL     1      -7.999  -3.032 124.912  0.00  0.00    +0.000 C 
ATOM     18  C   UNL     1      -9.158  -3.154 123.920  0.00  0.00    +0.000 C 
ATOM     19  C   UNL     1      -6.746  -3.311 124.086  0.00  0.00    +0.000 C 
ENDBRANCH   6  17
BRANCH   3  20
ATOM     20  C   UNL     1      -8.512   2.161 127.521  0.00  0.00    +0.000 C 
ATOM     21  C   UNL     1      -7.704   3.209 127.658  0.00  0.00    +0.000 C 
BRANCH  21  22
ATOM     22  C   UNL     1      -8.022   4.373 128.511  0.00  0.00    +0.000 C 
BRANCH  22  23
ATOM     23  O   UNL     1      -8.830   5.306 127.804  0.00  0.00    +0.000 OA
ATOM     24  H   UNL     1      -8.807   6.159 128.268  0.00  0.00    +0.000 HD
ENDBRANCH  22  23
BRANCH  22  25
ATOM     25  C   UNL     1      -8.731   3.824 129.737  0.00  0.00    +0.000 C 
BRANCH  25  26
ATOM     26  C   UNL     1      -9.790   4.791 130.190  0.00  0.00    +0.000 C 
BRANCH  26  27
ATOM     27  O   UNL     1     -10.910   4.106 130.748  0.00  0.00    +0.000 OA
ATOM     28  H   UNL     1     -11.554   3.935 130.035  0.00  0.00    +0.000 HD
ENDBRANCH  26  27
BRANCH  26  29
ATOM     29  C   UNL     1      -9.257   5.726 131.247  0.00  0.00    +0.000 C 
BRANCH  29  30
ATOM     30  C   UNL     1     -10.162   5.825 132.454  0.00  0.00    +0.000 C 
ATOM     31  O   UNL     1     -11.042   6.652 132.523  0.00  0.00    +0.000 OA
BRANCH  30  32
ATOM     32  O   UNL     1      -9.933   4.942 133.458  0.00  0.00    +0.000 OA
ATOM     33  H   UNL     1     -10.739   4.553 133.869  0.00  0.00    +0.000 HD
ENDBRANCH  30  32
ENDBRANCH  29  30
ENDBRANCH  26  29
ENDBRANCH  25  26
ENDBRANCH  22  25
ENDBRANCH  21  22
ENDBRANCH   3  20
BRANCH   1  34
ATOM     34  C   UNL     1      -6.843  -2.497 127.804  0.00  0.00    +0.000 C 
BRANCH  34  36
ATOM     35  C   UNL     1      -7.244  -3.688 129.748  0.00  0.00    +0.000 C 
ATOM     36  O   UNL     1      -7.778  -3.320 128.485  0.00  0.00    +0.000 OA
ENDBRANCH  34  36
ENDBRANCH   1  34
TORSDOF 14
ENDMDL
MODEL 6
REMARK VINA RESULT:      -7.0      3.216      8.773
REMARK  Name = Cerivastatin
REMARK  19 active torsions:
REMARK  status: ('A' for Active; 'I' for Inactive)
REMARK    1  A    between atoms: C_1  and  O_2
REMARK    2  A    between atoms: O_2  and  C_3
REMARK    3  A    between atoms: C_3  and  C_4
REMARK    4  A    between atoms: C_5  and  C_6
REMARK    5  A    between atoms: C_13  and  C_14
REMARK    6  A    between atoms: C_15  and  C_16
REMARK    7  A    between atoms: C_16  and  O_17
REMARK    8  A    between atoms: C_16  and  C_18
REMARK    9  A    between atoms: C_18  and  C_19
REMARK   10  A    between atoms: C_19  and  O_20
REMARK   11  A    between atoms: C_19  and  C_21
REMARK   12  A    between atoms: C_21  and  C_22
REMARK   13  A    between atoms: C_22  and  O_23
REMARK   14  A    between atoms: C_25  and  C_26
REMARK   15  A    between atoms: C_26  and  C_27
REMARK   16  A    between atoms: C_26  and  C_28
REMARK   17  A    between atoms: C_30  and  C_31
REMARK   18  A    between atoms: C_31  and  C_32
REMARK   19  A    between atoms: C_31  and  C_33
REMARK                            x       y       z     vdW  Elec       q    Type
REMARK                         _______ _______ _______ _____ _____    ______ ____
ROOT
ATOM      1  C   UNL     1      -6.240   2.801 124.695  0.00  0.00    +0.000 A 
ATOM      2  C   UNL     1      -5.708   1.835 125.582  0.00  0.00    +0.000 A 
ATOM      3  C   UNL     1      -5.941   0.446 125.384  0.00  0.00    +0.000 A 
ATOM      4  C   UNL     1      -6.665   0.067 124.227  0.00  0.00    +0.000 A 
ATOM      5  N   UNL     1      -7.155   1.017 123.355  0.00  0.00    +0.000 NA
ATOM      6  C   UNL     1      -6.952   2.360 123.571  0.00  0.00    +0.000 A 
ENDROOT
BRANCH   2   7
ATOM      7  C   UNL     1      -4.907   2.340 126.725  0.00  0.00    +0.000 A 
ATOM      8  C   UNL     1      -3.547   2.685 126.531  0.00  0.00    +0.000 A 
ATOM      9  C   UNL     1      -2.794   3.215 127.566  0.00  0.00    +0.000 A 
ATOM     10  C   UNL     1      -3.428   3.530 128.760  0.00  0.00    +0.000 A 
ATOM     11  F   UNL     1      -2.743   4.179 129.708  0.00  0.00    +0.000 F 
ATOM     12  C   UNL     1      -4.775   3.245 128.965  0.00  0.00    +0.000 A 
ATOM     13  C   UNL     1      -5.503   2.587 127.975  0.00  0.00    +0.000 A 
ENDBRANCH   2   7
BRANCH   4  14
ATOM     14  C   UNL     1      -7.015  -1.387 123.816  0.00  0.00    +0.000 C 
ATOM     15  C   UNL     1      -8.311  -1.442 122.999  0.00  0.00    +0.000 C 
ATOM     16  C   UNL     1      -5.998  -2.157 122.979  0.00  0.00    +0.000 C 
ENDBRANCH   4  14
BRANCH   6  17
ATOM     17  C   UNL     1      -7.543   3.286 122.491  0.00  0.00    +0.000 C 
ATOM     18  C   UNL     1      -6.563   3.459 121.329  0.00  0.00    +0.000 C 
ATOM     19  C   UNL     1      -8.854   2.857 121.837  0.00  0.00    +0.000 C 
ENDBRANCH   6  17
BRANCH   3  20
ATOM     20  C   UNL     1      -5.366  -0.513 126.347  0.00  0.00    +0.000 C 
ATOM     21  C   UNL     1      -5.879  -1.179 127.377  0.00  0.00    +0.000 C 
BRANCH  21  22
ATOM     22  C   UNL     1      -5.065  -1.993 128.304  0.00  0.00    +0.000 C 
BRANCH  22  23
ATOM     23  O   UNL     1      -4.162  -1.171 129.034  0.00  0.00    +0.000 OA
ATOM     24  H   UNL     1      -4.201  -0.267 128.679  0.00  0.00    +0.000 HD
ENDBRANCH  22  23
BRANCH  22  25
ATOM     25  C   UNL     1      -6.044  -2.709 129.218  0.00  0.00    +0.000 C 
BRANCH  25  26
ATOM     26  C   UNL     1      -5.331  -3.787 129.987  0.00  0.00    +0.000 C 
BRANCH  26  27
ATOM     27  O   UNL     1      -4.026  -4.020 129.459  0.00  0.00    +0.000 OA
ATOM     28  H   UNL     1      -3.478  -3.231 129.632  0.00  0.00    +0.000 HD
ENDBRANCH  26  27
BRANCH  26  29
ATOM     29  C   UNL     1      -5.172  -3.407 131.438  0.00  0.00    +0.000 C 
BRANCH  29  30
ATOM     30  C   UNL     1      -3.725  -3.332 131.871  0.00  0.00    +0.000 C 
ATOM     31  O   UNL     1      -3.191  -4.241 132.462  0.00  0.00    +0.000 OA
BRANCH  30  32
ATOM     32  O   UNL     1      -3.060  -2.189 131.567  0.00  0.00    +0.000 OA
ATOM     33  H   UNL     1      -3.571  -1.358 131.697  0.00  0.00    +0.000 HD
ENDBRANCH  30  32
ENDBRANCH  29  30
ENDBRANCH  26  29
ENDBRANCH  25  26
ENDBRANCH  22  25
ENDBRANCH  21  22
ENDBRANCH   3  20
BRANCH   1  34
ATOM     34  C   UNL     1      -5.937   4.234 125.043  0.00  0.00    +0.000 C 
BRANCH  34  36
ATOM     35  C   UNL     1      -7.905   4.582 126.211  0.00  0.00    +0.000 C 
ATOM     36  O   UNL     1      -7.129   5.002 125.098  0.00  0.00    +0.000 OA
ENDBRANCH  34  36
ENDBRANCH   1  34
TORSDOF 14
ENDMDL
MODEL 7
REMARK VINA RESULT:      -6.9      2.462      7.735
REMARK  Name = Cerivastatin
REMARK  19 active torsions:
REMARK  status: ('A' for Active; 'I' for Inactive)
REMARK    1  A    between atoms: C_1  and  O_2
REMARK    2  A    between atoms: O_2  and  C_3
REMARK    3  A    between atoms: C_3  and  C_4
REMARK    4  A    between atoms: C_5  and  C_6
REMARK    5  A    between atoms: C_13  and  C_14
REMARK    6  A    between atoms: C_15  and  C_16
REMARK    7  A    between atoms: C_16  and  O_17
REMARK    8  A    between atoms: C_16  and  C_18
REMARK    9  A    between atoms: C_18  and  C_19
REMARK   10  A    between atoms: C_19  and  O_20
REMARK   11  A    between atoms: C_19  and  C_21
REMARK   12  A    between atoms: C_21  and  C_22
REMARK   13  A    between atoms: C_22  and  O_23
REMARK   14  A    between atoms: C_25  and  C_26
REMARK   15  A    between atoms: C_26  and  C_27
REMARK   16  A    between atoms: C_26  and  C_28
REMARK   17  A    between atoms: C_30  and  C_31
REMARK   18  A    between atoms: C_31  and  C_32
REMARK   19  A    between atoms: C_31  and  C_33
REMARK                            x       y       z     vdW  Elec       q    Type
REMARK                         _______ _______ _______ _____ _____    ______ ____
ROOT
ATOM      1  C   UNL     1      -6.745   1.574 124.504  0.00  0.00    +0.000 A 
ATOM      2  C   UNL     1      -6.553   0.438 125.327  0.00  0.00    +0.000 A 
ATOM      3  C   UNL     1      -5.676   0.480 126.445  0.00  0.00    +0.000 A 
ATOM      4  C   UNL     1      -5.058   1.720 126.742  0.00  0.00    +0.000 A 
ATOM      5  N   UNL     1      -5.276   2.826 125.947  0.00  0.00    +0.000 NA
ATOM      6  C   UNL     1      -6.101   2.769 124.849  0.00  0.00    +0.000 A 
ENDROOT
BRANCH   2   7
ATOM      7  C   UNL     1      -7.303  -0.790 124.963  0.00  0.00    +0.000 A 
ATOM      8  C   UNL     1      -8.536  -1.075 125.599  0.00  0.00    +0.000 A 
ATOM      9  C   UNL     1      -9.284  -2.183 125.235  0.00  0.00    +0.000 A 
ATOM     10  C   UNL     1      -8.874  -2.936 124.144  0.00  0.00    +0.000 A 
ATOM     11  F   UNL     1      -9.668  -3.914 123.695  0.00  0.00    +0.000 F 
ATOM     12  C   UNL     1      -7.689  -2.654 123.469  0.00  0.00    +0.000 A 
ATOM     13  C   UNL     1      -6.865  -1.624 123.918  0.00  0.00    +0.000 A 
ENDBRANCH   2   7
BRANCH   4  14
ATOM     14  C   UNL     1      -4.083   1.985 127.918  0.00  0.00    +0.000 C 
ATOM     15  C   UNL     1      -3.107   3.120 127.591  0.00  0.00    +0.000 C 
ATOM     16  C   UNL     1      -4.680   2.366 129.269  0.00  0.00    +0.000 C 
ENDBRANCH   4  14
BRANCH   6  17
ATOM     17  C   UNL     1      -6.255   4.098 124.085  0.00  0.00    +0.000 C 
ATOM     18  C   UNL     1      -6.060   5.290 125.025  0.00  0.00    +0.000 C 
ATOM     19  C   UNL     1      -5.298   4.357 122.923  0.00  0.00    +0.000 C 
ENDBRANCH   6  17
BRANCH   3  20
ATOM     20  C   UNL     1      -5.511  -0.739 127.261  0.00  0.00    +0.000 C 
ATOM     21  C   UNL     1      -6.127  -1.189 128.351  0.00  0.00    +0.000 C 
BRANCH  21  22
ATOM     22  C   UNL     1      -5.691  -2.391 129.091  0.00  0.00    +0.000 C 
BRANCH  22  23
ATOM     23  O   UNL     1      -4.274  -2.418 129.215  0.00  0.00    +0.000 OA
ATOM     24  H   UNL     1      -4.041  -2.653 130.128  0.00  0.00    +0.000 HD
ENDBRANCH  22  23
BRANCH  22  25
ATOM     25  C   UNL     1      -6.377  -2.332 130.445  0.00  0.00    +0.000 C 
BRANCH  25  26
ATOM     26  C   UNL     1      -6.325  -3.684 131.103  0.00  0.00    +0.000 C 
BRANCH  26  27
ATOM     27  O   UNL     1      -5.634  -4.629 130.288  0.00  0.00    +0.000 OA
ATOM     28  H   UNL     1      -6.175  -4.805 129.495  0.00  0.00    +0.000 HD
ENDBRANCH  26  27
BRANCH  26  29
ATOM     29  C   UNL     1      -5.607  -3.617 132.428  0.00  0.00    +0.000 C 
BRANCH  29  30
ATOM     30  C   UNL     1      -4.225  -4.230 132.379  0.00  0.00    +0.000 C 
ATOM     31  O   UNL     1      -3.306  -3.680 131.818  0.00  0.00    +0.000 OA
BRANCH  30  32
ATOM     32  O   UNL     1      -4.072  -5.430 132.993  0.00  0.00    +0.000 OA
ATOM     33  H   UNL     1      -3.740  -6.157 132.418  0.00  0.00    +0.000 HD
ENDBRANCH  30  32
ENDBRANCH  29  30
ENDBRANCH  26  29
ENDBRANCH  25  26
ENDBRANCH  22  25
ENDBRANCH  21  22
ENDBRANCH   3  20
BRANCH   1  34
ATOM     34  C   UNL     1      -7.681   1.378 123.341  0.00  0.00    +0.000 C 
BRANCH  34  36
ATOM     35  C   UNL     1      -9.955   1.106 123.000  0.00  0.00    +0.000 C 
ATOM     36  O   UNL     1      -8.966   1.905 123.634  0.00  0.00    +0.000 OA
ENDBRANCH  34  36
ENDBRANCH   1  34
TORSDOF 14
ENDMDL
MODEL 8
REMARK VINA RESULT:      -6.6      3.528      6.729
REMARK  Name = Cerivastatin
REMARK  19 active torsions:
REMARK  status: ('A' for Active; 'I' for Inactive)
REMARK    1  A    between atoms: C_1  and  O_2
REMARK    2  A    between atoms: O_2  and  C_3
REMARK    3  A    between atoms: C_3  and  C_4
REMARK    4  A    between atoms: C_5  and  C_6
REMARK    5  A    between atoms: C_13  and  C_14
REMARK    6  A    between atoms: C_15  and  C_16
REMARK    7  A    between atoms: C_16  and  O_17
REMARK    8  A    between atoms: C_16  and  C_18
REMARK    9  A    between atoms: C_18  and  C_19
REMARK   10  A    between atoms: C_19  and  O_20
REMARK   11  A    between atoms: C_19  and  C_21
REMARK   12  A    between atoms: C_21  and  C_22
REMARK   13  A    between atoms: C_22  and  O_23
REMARK   14  A    between atoms: C_25  and  C_26
REMARK   15  A    between atoms: C_26  and  C_27
REMARK   16  A    between atoms: C_26  and  C_28
REMARK   17  A    between atoms: C_30  and  C_31
REMARK   18  A    between atoms: C_31  and  C_32
REMARK   19  A    between atoms: C_31  and  C_33
REMARK                            x       y       z     vdW  Elec       q    Type
REMARK                         _______ _______ _______ _____ _____    ______ ____
ROOT
ATOM      1  C   UNL     1      -7.672  -0.386 124.872  0.00  0.00    +0.000 A 
ATOM      2  C   UNL     1      -7.434   0.498 125.952  0.00  0.00    +0.000 A 
ATOM      3  C   UNL     1      -7.476   0.043 127.298  0.00  0.00    +0.000 A 
ATOM      4  C   UNL     1      -7.695  -1.341 127.511  0.00  0.00    +0.000 A 
ATOM      5  N   UNL     1      -7.898  -2.196 126.448  0.00  0.00    +0.000 NA
ATOM      6  C   UNL     1      -7.887  -1.742 125.150  0.00  0.00    +0.000 A 
ENDROOT
BRANCH   2   7
ATOM      7  C   UNL     1      -7.148   1.914 125.611  0.00  0.00    +0.000 A 
ATOM      8  C   UNL     1      -8.187   2.874 125.668  0.00  0.00    +0.000 A 
ATOM      9  C   UNL     1      -7.933   4.212 125.413  0.00  0.00    +0.000 A 
ATOM     10  C   UNL     1      -6.619   4.620 125.234  0.00  0.00    +0.000 A 
ATOM     11  F   UNL     1      -6.351   5.927 125.137  0.00  0.00    +0.000 F 
ATOM     12  C   UNL     1      -5.569   3.705 125.218  0.00  0.00    +0.000 A 
ATOM     13  C   UNL     1      -5.836   2.343 125.337  0.00  0.00    +0.000 A 
ENDBRANCH   2   7
BRANCH   4  14
ATOM     14  C   UNL     1      -7.762  -2.043 128.891  0.00  0.00    +0.000 C 
ATOM     15  C   UNL     1      -8.505  -3.381 128.803  0.00  0.00    +0.000 C 
ATOM     16  C   UNL     1      -6.447  -2.377 129.588  0.00  0.00    +0.000 C 
ENDBRANCH   4  14
BRANCH   6  17
ATOM     17  C   UNL     1      -8.105  -2.830 124.081  0.00  0.00    +0.000 C 
ATOM     18  C   UNL     1      -7.361  -4.114 124.455  0.00  0.00    +0.000 C 
ATOM     19  C   UNL     1      -9.541  -3.275 123.812  0.00  0.00    +0.000 C 
ENDBRANCH   6  17
BRANCH   3  20
ATOM     20  C   UNL     1      -7.227   1.014 128.382  0.00  0.00    +0.000 C 
ATOM     21  C   UNL     1      -6.134   1.356 129.057  0.00  0.00    +0.000 C 
BRANCH  21  22
ATOM     22  C   UNL     1      -6.150   2.270 130.218  0.00  0.00    +0.000 C 
BRANCH  22  23
ATOM     23  O   UNL     1      -6.174   1.534 131.435  0.00  0.00    +0.000 OA
ATOM     24  H   UNL     1      -7.086   1.505 131.769  0.00  0.00    +0.000 HD
ENDBRANCH  22  23
BRANCH  22  25
ATOM     25  C   UNL     1      -4.904   3.131 130.102  0.00  0.00    +0.000 C 
BRANCH  25  26
ATOM     26  C   UNL     1      -5.062   4.108 128.969  0.00  0.00    +0.000 C 
BRANCH  26  27
ATOM     27  O   UNL     1      -5.564   5.360 129.433  0.00  0.00    +0.000 OA
ATOM     28  H   UNL     1      -5.427   6.026 128.733  0.00  0.00    +0.000 HD
ENDBRANCH  26  27
BRANCH  26  29
ATOM     29  C   UNL     1      -3.743   4.372 128.288  0.00  0.00    +0.000 C 
BRANCH  29  30
ATOM     30  C   UNL     1      -3.391   5.842 128.238  0.00  0.00    +0.000 C 
ATOM     31  O   UNL     1      -2.494   6.304 128.904  0.00  0.00    +0.000 OA
BRANCH  30  32
ATOM     32  O   UNL     1      -4.137   6.616 127.411  0.00  0.00    +0.000 OA
ATOM     33  H   UNL     1      -3.739   7.485 127.175  0.00  0.00    +0.000 HD
ENDBRANCH  30  32
ENDBRANCH  29  30
ENDBRANCH  26  29
ENDBRANCH  25  26
ENDBRANCH  22  25
ENDBRANCH  21  22
ENDBRANCH   3  20
BRANCH   1  34
ATOM     34  C   UNL     1      -7.622   0.239 123.503  0.00  0.00    +0.000 C 
BRANCH  34  36
ATOM     35  C   UNL     1      -9.786   0.966 123.120  0.00  0.00    +0.000 C 
ATOM     36  O   UNL     1      -8.821  -0.020 122.787  0.00  0.00    +0.000 OA
ENDBRANCH  34  36
ENDBRANCH   1  34
TORSDOF 14
ENDMDL
MODEL 9
REMARK VINA RESULT:      -6.5      3.230      8.342
REMARK  Name = Cerivastatin
REMARK  19 active torsions:
REMARK  status: ('A' for Active; 'I' for Inactive)
REMARK    1  A    between atoms: C_1  and  O_2
REMARK    2  A    between atoms: O_2  and  C_3
REMARK    3  A    between atoms: C_3  and  C_4
REMARK    4  A    between atoms: C_5  and  C_6
REMARK    5  A    between atoms: C_13  and  C_14
REMARK    6  A    between atoms: C_15  and  C_16
REMARK    7  A    between atoms: C_16  and  O_17
REMARK    8  A    between atoms: C_16  and  C_18
REMARK    9  A    between atoms: C_18  and  C_19
REMARK   10  A    between atoms: C_19  and  O_20
REMARK   11  A    between atoms: C_19  and  C_21
REMARK   12  A    between atoms: C_21  and  C_22
REMARK   13  A    between atoms: C_22  and  O_23
REMARK   14  A    between atoms: C_25  and  C_26
REMARK   15  A    between atoms: C_26  and  C_27
REMARK   16  A    between atoms: C_26  and  C_28
REMARK   17  A    between atoms: C_30  and  C_31
REMARK   18  A    between atoms: C_31  and  C_32
REMARK   19  A    between atoms: C_31  and  C_33
REMARK                            x       y       z     vdW  Elec       q    Type
REMARK                         _______ _______ _______ _____ _____    ______ ____
ROOT
ATOM      1  C   UNL     1      -7.370   2.552 124.958  0.00  0.00    +0.000 A 
ATOM      2  C   UNL     1      -7.317   1.506 125.911  0.00  0.00    +0.000 A 
ATOM      3  C   UNL     1      -7.308   0.142 125.507  0.00  0.00    +0.000 A 
ATOM      4  C   UNL     1      -7.284  -0.124 124.116  0.00  0.00    +0.000 A 
ATOM      5  N   UNL     1      -7.309   0.905 123.198  0.00  0.00    +0.000 NA
ATOM      6  C   UNL     1      -7.349   2.221 123.597  0.00  0.00    +0.000 A 
ENDROOT
BRANCH   2   7
ATOM      7  C   UNL     1      -7.277   1.900 127.341  0.00  0.00    +0.000 A 
ATOM      8  C   UNL     1      -8.483   1.993 128.078  0.00  0.00    +0.000 A 
ATOM      9  C   UNL     1      -8.468   2.301 129.429  0.00  0.00    +0.000 A 
ATOM     10  C   UNL     1      -7.246   2.385 130.081  0.00  0.00    +0.000 A 
ATOM     11  F   UNL     1      -7.229   2.532 131.410  0.00  0.00    +0.000 F 
ATOM     12  C   UNL     1      -6.044   2.253 129.392  0.00  0.00    +0.000 A 
ATOM     13  C   UNL     1      -6.052   2.079 128.010  0.00  0.00    +0.000 A 
ENDBRANCH   2   7
BRANCH   4  14
ATOM     14  C   UNL     1      -7.258  -1.532 123.465  0.00  0.00    +0.000 C 
ATOM     15  C   UNL     1      -8.576  -1.841 122.747  0.00  0.00    +0.000 C 
ATOM     16  C   UNL     1      -6.176  -1.820 122.430  0.00  0.00    +0.000 C 
ENDBRANCH   4  14
BRANCH   6  17
ATOM     17  C   UNL     1      -7.347   3.246 122.447  0.00  0.00    +0.000 C 
ATOM     18  C   UNL     1      -6.171   2.998 121.501  0.00  0.00    +0.000 C 
ATOM     19  C   UNL     1      -8.575   3.290 121.541  0.00  0.00    +0.000 C 
ENDBRANCH   6  17
BRANCH   3  20
ATOM     20  C   UNL     1      -7.259  -0.904 126.547  0.00  0.00    +0.000 C 
ATOM     21  C   UNL     1      -8.194  -1.660 127.115  0.00  0.00    +0.000 C 
BRANCH  21  22
ATOM     22  C   UNL     1      -7.927  -2.559 128.257  0.00  0.00    +0.000 C 
BRANCH  22  23
ATOM     23  O   UNL     1      -8.439  -3.861 128.000  0.00  0.00    +0.000 OA
ATOM     24  H   UNL     1      -8.661  -4.286 128.845  0.00  0.00    +0.000 HD
ENDBRANCH  22  23
BRANCH  22  25
ATOM     25  C   UNL     1      -6.420  -2.571 128.449  0.00  0.00    +0.000 C 
BRANCH  25  26
ATOM     26  C   UNL     1      -6.089  -2.890 129.881  0.00  0.00    +0.000 C 
BRANCH  26  27
ATOM     27  O   UNL     1      -6.032  -4.299 130.096  0.00  0.00    +0.000 OA
ATOM     28  H   UNL     1      -5.094  -4.564 130.149  0.00  0.00    +0.000 HD
ENDBRANCH  26  27
BRANCH  26  29
ATOM     29  C   UNL     1      -4.751  -2.316 130.272  0.00  0.00    +0.000 C 
BRANCH  29  30
ATOM     30  C   UNL     1      -3.665  -3.365 130.362  0.00  0.00    +0.000 C 
ATOM     31  O   UNL     1      -3.279  -3.789 131.427  0.00  0.00    +0.000 OA
BRANCH  30  32
ATOM     32  O   UNL     1      -3.144  -3.801 129.188  0.00  0.00    +0.000 OA
ATOM     33  H   UNL     1      -3.269  -3.195 128.422  0.00  0.00    +0.000 HD
ENDBRANCH  30  32
ENDBRANCH  29  30
ENDBRANCH  26  29
ENDBRANCH  25  26
ENDBRANCH  22  25
ENDBRANCH  21  22
ENDBRANCH   3  20
BRANCH   1  34
ATOM     34  C   UNL     1      -7.401   3.944 125.529  0.00  0.00    +0.000 C 
BRANCH  34  36
ATOM     35  C   UNL     1      -8.884   5.505 126.379  0.00  0.00    +0.000 C 
ATOM     36  O   UNL     1      -8.686   4.526 125.370  0.00  0.00    +0.000 OA
ENDBRANCH  34  36
ENDBRANCH   1  34
TORSDOF 14
ENDMDL
