MODEL 1
REMARK VINA RESULT:      -9.1      0.000      0.000
REMARK  Name = Ceritinib
REMARK  12 active torsions:
REMARK  status: ('A' for Active; 'I' for Inactive)
REMARK    1  A    between atoms: C_1  and  C_2
REMARK    2  A    between atoms: C_2  and  C_3
REMARK    3  A    between atoms: C_2  and  O_4
REMARK    4  A    between atoms: O_4  and  C_5
REMARK    5  A    between atoms: C_6  and  N_7
REMARK    6  A    between atoms: N_15  and  C_16
REMARK    7  A    between atoms: C_21  and  S_22
REMARK    8  A    between atoms: S_22  and  C_25
REMARK    9  A    between atoms: C_25  and  C_26
REMARK   10  A    between atoms: C_25  and  C_27
REMARK   11  A    between atoms: C_29  and  C_30
REMARK   12  A    between atoms: C_31  and  C_33
REMARK                            x       y       z     vdW  Elec       q    Type
REMARK                         _______ _______ _______ _____ _____    ______ ____
ROOT
ATOM      1  N   UNL     1      -5.881   2.520 126.343  0.00  0.00    +0.000 N 
ATOM      2  C   UNL     1      -6.625   2.541 125.197  0.00  0.00    +0.000 A 
ATOM      3  N   UNL     1      -7.308   3.551 124.729  0.00  0.00    +0.000 NA
ATOM      4  C   UNL     1      -8.237   3.258 123.743  0.00  0.00    +0.000 A 
ATOM      5  C   UNL     1      -8.675   2.026 123.419  0.00  0.00    +0.000 A 
ATOM      6 CL   UNL     1      -9.910   1.738 122.270  0.00  0.00    +0.000 Cl
ATOM      7  C   UNL     1      -7.812   0.895 123.923  0.00  0.00    +0.000 A 
ATOM      8  N   UNL     1      -6.742   1.298 124.683  0.00  0.00    +0.000 N 
ATOM      9  N   UNL     1      -8.015  -0.340 123.534  0.00  0.00    +0.000 NA
ATOM     10  H   UNL     1      -5.166   1.827 126.484  0.00  0.00    +0.000 HD
ATOM     11  H   UNL     1      -5.982   0.661 124.853  0.00  0.00    +0.000 HD
ENDROOT
BRANCH   1  13
ATOM     12  C   UNL     1      -5.559   4.233 128.090  0.00  0.00    +0.000 A 
ATOM     13  C   UNL     1      -6.234   3.148 127.541  0.00  0.00    +0.000 A 
ATOM     14  C   UNL     1      -7.304   2.587 128.217  0.00  0.00    +0.000 A 
ATOM     15  C   UNL     1      -7.686   2.878 129.511  0.00  0.00    +0.000 A 
ATOM     16  C   UNL     1      -8.866   1.936 129.841  0.00  0.00    +0.000 C 
ATOM     17  C   UNL     1      -6.926   3.905 130.172  0.00  0.00    +0.000 A 
ATOM     18  C   UNL     1      -5.874   4.572 129.424  0.00  0.00    +0.000 A 
BRANCH  17  19
ATOM     19  C   UNL     1      -7.106   4.413 131.633  0.00  0.00    +0.000 C 
ATOM     20  C   UNL     1      -8.560   4.375 132.126  0.00  0.00    +0.000 C 
ATOM     21  C   UNL     1      -9.385   5.355 131.343  0.00  0.00    +0.000 C 
ATOM     22  N   UNL     1      -8.770   6.701 131.265  0.00  0.00    +0.000 NA
ATOM     23  C   UNL     1      -7.308   6.815 131.062  0.00  0.00    +0.000 C 
ATOM     24  C   UNL     1      -6.510   5.810 131.843  0.00  0.00    +0.000 C 
ATOM     25  H   UNL     1      -8.958   7.142 132.162  0.00  0.00    +0.000 HD
ENDBRANCH  17  19
BRANCH  12  26
ATOM     26  O   UNL     1      -4.495   4.851 127.459  0.00  0.00    +0.000 OA
BRANCH  26  28
ATOM     27  C   UNL     1      -2.274   3.904 127.140  0.00  0.00    +0.000 C 
ATOM     28  C   UNL     1      -3.167   4.745 128.059  0.00  0.00    +0.000 C 
ATOM     29  C   UNL     1      -2.394   6.052 128.175  0.00  0.00    +0.000 C 
ENDBRANCH  26  28
ENDBRANCH  12  26
ENDBRANCH   1  13
BRANCH   9  30
ATOM     30  C   UNL     1      -7.079  -1.332 123.884  0.00  0.00    +0.000 A 
ATOM     31  C   UNL     1      -6.123  -1.692 122.912  0.00  0.00    +0.000 A 
ATOM     32  C   UNL     1      -5.276  -2.782 123.084  0.00  0.00    +0.000 A 
ATOM     33  C   UNL     1      -5.247  -3.432 124.310  0.00  0.00    +0.000 A 
ATOM     34  C   UNL     1      -6.097  -3.015 125.339  0.00  0.00    +0.000 A 
ATOM     35  C   UNL     1      -7.065  -2.015 125.111  0.00  0.00    +0.000 A 
BRANCH  35  36
ATOM     36  S   UNL     1      -8.275  -1.808 126.420  0.00  0.00    +0.000 S 
ATOM     37  O   UNL     1      -8.062  -0.476 126.940  0.00  0.00    +0.000 OA
ATOM     38  O   UNL     1      -9.565  -2.154 125.820  0.00  0.00    +0.000 OA
BRANCH  36  39
ATOM     39  C   UNL     1      -7.954  -2.943 127.756  0.00  0.00    +0.000 C 
ATOM     40  C   UNL     1      -7.871  -2.190 129.080  0.00  0.00    +0.000 C 
ATOM     41  C   UNL     1      -9.060  -3.969 127.957  0.00  0.00    +0.000 C 
ENDBRANCH  36  39
ENDBRANCH  35  36
ENDBRANCH   9  30
TORSDOF 7
ENDMDL
MODEL 2
REMARK VINA RESULT:      -8.5      2.991      8.081
REMARK  Name = Ceritinib
REMARK  12 active torsions:
REMARK  status: ('A' for Active; 'I' for Inactive)
REMARK    1  A    between atoms: C_1  and  C_2
REMARK    2  A    between atoms: C_2  and  C_3
REMARK    3  A    between atoms: C_2  and  O_4
REMARK    4  A    between atoms: O_4  and  C_5
REMARK    5  A    between atoms: C_6  and  N_7
REMARK    6  A    between atoms: N_15  and  C_16
REMARK    7  A    between atoms: C_21  and  S_22
REMARK    8  A    between atoms: S_22  and  C_25
REMARK    9  A    between atoms: C_25  and  C_26
REMARK   10  A    between atoms: C_25  and  C_27
REMARK   11  A    between atoms: C_29  and  C_30
REMARK   12  A    between atoms: C_31  and  C_33
REMARK                            x       y       z     vdW  Elec       q    Type
REMARK                         _______ _______ _______ _____ _____    ______ ____
ROOT
ATOM      1  N   UNL     1      -7.847   3.286 126.191  0.00  0.00    +0.000 N 
ATOM      2  C   UNL     1      -6.867   3.884 126.931  0.00  0.00    +0.000 A 
ATOM      3  N   UNL     1      -5.582   3.840 126.706  0.00  0.00    +0.000 NA
ATOM      4  C   UNL     1      -4.763   4.238 127.750  0.00  0.00    +0.000 A 
ATOM      5  C   UNL     1      -5.149   4.408 129.029  0.00  0.00    +0.000 A 
ATOM      6 CL   UNL     1      -4.064   4.787 130.297  0.00  0.00    +0.000 Cl
ATOM      7  C   UNL     1      -6.640   4.524 129.230  0.00  0.00    +0.000 A 
ATOM      8  N   UNL     1      -7.376   4.381 128.079  0.00  0.00    +0.000 N 
ATOM      9  N   UNL     1      -7.145   4.870 130.388  0.00  0.00    +0.000 NA
ATOM     10  H   UNL     1      -8.803   3.595 126.248  0.00  0.00    +0.000 HD
ATOM     11  H   UNL     1      -8.335   4.684 128.059  0.00  0.00    +0.000 HD
ENDROOT
BRANCH   1  13
ATOM     12  C   UNL     1      -7.726   1.792 124.230  0.00  0.00    +0.000 A 
ATOM     13  C   UNL     1      -7.749   2.022 125.601  0.00  0.00    +0.000 A 
ATOM     14  C   UNL     1      -7.727   0.952 126.481  0.00  0.00    +0.000 A 
ATOM     15  C   UNL     1      -7.867  -0.377 126.141  0.00  0.00    +0.000 A 
ATOM     16  C   UNL     1      -7.867  -1.171 127.468  0.00  0.00    +0.000 C 
ATOM     17  C   UNL     1      -7.984  -0.655 124.734  0.00  0.00    +0.000 A 
ATOM     18  C   UNL     1      -7.896   0.457 123.803  0.00  0.00    +0.000 A 
BRANCH  17  19
ATOM     19  C   UNL     1      -8.187  -2.047 124.066  0.00  0.00    +0.000 C 
ATOM     20  C   UNL     1      -7.479  -3.195 124.800  0.00  0.00    +0.000 C 
ATOM     21  C   UNL     1      -5.992  -3.012 124.710  0.00  0.00    +0.000 C 
ATOM     22  N   UNL     1      -5.522  -2.748 123.330  0.00  0.00    +0.000 NA
ATOM     23  C   UNL     1      -6.314  -1.852 122.457  0.00  0.00    +0.000 C 
ATOM     24  C   UNL     1      -7.798  -2.045 122.582  0.00  0.00    +0.000 C 
ATOM     25  H   UNL     1      -5.516  -3.652 122.862  0.00  0.00    +0.000 HD
ENDBRANCH  17  19
BRANCH  12  26
ATOM     26  O   UNL     1      -7.728   2.815 123.298  0.00  0.00    +0.000 OA
BRANCH  26  28
ATOM     27  C   UNL     1      -6.857   3.638 121.179  0.00  0.00    +0.000 C 
ATOM     28  C   UNL     1      -6.495   3.095 122.566  0.00  0.00    +0.000 C 
ATOM     29  C   UNL     1      -5.626   4.202 123.145  0.00  0.00    +0.000 C 
ENDBRANCH  26  28
ENDBRANCH  12  26
ENDBRANCH   1  13
BRANCH   9  30
ATOM     30  C   UNL     1      -8.524   5.143 130.482  0.00  0.00    +0.000 A 
ATOM     31  C   UNL     1      -8.925   6.491 130.390  0.00  0.00    +0.000 A 
ATOM     32  C   UNL     1     -10.232   6.887 130.654  0.00  0.00    +0.000 A 
ATOM     33  C   UNL     1     -11.209   5.920 130.845  0.00  0.00    +0.000 A 
ATOM     34  C   UNL     1     -10.863   4.566 130.814  0.00  0.00    +0.000 A 
ATOM     35  C   UNL     1      -9.512   4.172 130.706  0.00  0.00    +0.000 A 
BRANCH  35  36
ATOM     36  S   UNL     1      -9.199   2.427 130.991  0.00  0.00    +0.000 S 
ATOM     37  O   UNL     1     -10.408   1.907 131.588  0.00  0.00    +0.000 OA
ATOM     38  O   UNL     1      -8.740   1.897 129.705  0.00  0.00    +0.000 OA
BRANCH  36  39
ATOM     39  C   UNL     1      -7.894   2.211 132.186  0.00  0.00    +0.000 C 
ATOM     40  C   UNL     1      -8.256   2.908 133.494  0.00  0.00    +0.000 C 
ATOM     41  C   UNL     1      -7.659   0.757 132.568  0.00  0.00    +0.000 C 
ENDBRANCH  36  39
ENDBRANCH  35  36
ENDBRANCH   9  30
TORSDOF 7
ENDMDL
MODEL 3
REMARK VINA RESULT:      -8.5      2.875      8.129
REMARK  Name = Ceritinib
REMARK  12 active torsions:
REMARK  status: ('A' for Active; 'I' for Inactive)
REMARK    1  A    between atoms: C_1  and  C_2
REMARK    2  A    between atoms: C_2  and  C_3
REMARK    3  A    between atoms: C_2  and  O_4
REMARK    4  A    between atoms: O_4  and  C_5
REMARK    5  A    between atoms: C_6  and  N_7
REMARK    6  A    between atoms: N_15  and  C_16
REMARK    7  A    between atoms: C_21  and  S_22
REMARK    8  A    between atoms: S_22  and  C_25
REMARK    9  A    between atoms: C_25  and  C_26
REMARK   10  A    between atoms: C_25  and  C_27
REMARK   11  A    between atoms: C_29  and  C_30
REMARK   12  A    between atoms: C_31  and  C_33
REMARK                            x       y       z     vdW  Elec       q    Type
REMARK                         _______ _______ _______ _____ _____    ______ ____
ROOT
ATOM      1  N   UNL     1      -6.876   0.479 128.980  0.00  0.00    +0.000 N 
ATOM      2  C   UNL     1      -7.496   1.576 129.509  0.00  0.00    +0.000 A 
ATOM      3  N   UNL     1      -8.730   1.647 129.930  0.00  0.00    +0.000 NA
ATOM      4  C   UNL     1      -9.240   2.922 130.120  0.00  0.00    +0.000 A 
ATOM      5  C   UNL     1      -8.685   4.063 129.671  0.00  0.00    +0.000 A 
ATOM      6 CL   UNL     1      -9.424   5.598 129.838  0.00  0.00    +0.000 Cl
ATOM      7  C   UNL     1      -7.236   3.946 129.263  0.00  0.00    +0.000 A 
ATOM      8  N   UNL     1      -6.726   2.675 129.362  0.00  0.00    +0.000 N 
ATOM      9  N   UNL     1      -6.522   5.007 128.980  0.00  0.00    +0.000 NA
ATOM     10  H   UNL     1      -5.872   0.414 128.953  0.00  0.00    +0.000 HD
ATOM     11  H   UNL     1      -5.729   2.536 129.356  0.00  0.00    +0.000 HD
ENDROOT
BRANCH   1  13
ATOM     12  C   UNL     1      -7.224  -1.815 128.140  0.00  0.00    +0.000 A 
ATOM     13  C   UNL     1      -7.476  -0.447 128.123  0.00  0.00    +0.000 A 
ATOM     14  C   UNL     1      -8.336   0.084 127.176  0.00  0.00    +0.000 A 
ATOM     15  C   UNL     1      -8.858  -0.588 126.090  0.00  0.00    +0.000 A 
ATOM     16  C   UNL     1      -9.678   0.448 125.287  0.00  0.00    +0.000 C 
ATOM     17  C   UNL     1      -8.513  -1.981 125.990  0.00  0.00    +0.000 A 
ATOM     18  C   UNL     1      -7.701  -2.566 127.044  0.00  0.00    +0.000 A 
BRANCH  17  19
ATOM     19  C   UNL     1      -8.924  -2.972 124.861  0.00  0.00    +0.000 C 
ATOM     20  C   UNL     1      -7.948  -4.143 124.681  0.00  0.00    +0.000 C 
ATOM     21  C   UNL     1      -6.626  -3.629 124.189  0.00  0.00    +0.000 C 
ATOM     22  N   UNL     1      -6.753  -2.718 123.029  0.00  0.00    +0.000 NA
ATOM     23  C   UNL     1      -7.854  -1.728 123.006  0.00  0.00    +0.000 C 
ATOM     24  C   UNL     1      -9.159  -2.265 123.521  0.00  0.00    +0.000 C 
ATOM     25  H   UNL     1      -6.907  -3.318 122.221  0.00  0.00    +0.000 HD
ENDBRANCH  17  19
BRANCH  12  26
ATOM     26  O   UNL     1      -6.392  -2.412 129.070  0.00  0.00    +0.000 OA
BRANCH  26  28
ATOM     27  C   UNL     1      -5.880  -4.397 130.384  0.00  0.00    +0.000 C 
ATOM     28  C   UNL     1      -6.964  -3.384 129.998  0.00  0.00    +0.000 C 
ATOM     29  C   UNL     1      -7.399  -2.826 131.346  0.00  0.00    +0.000 C 
ENDBRANCH  26  28
ENDBRANCH  12  26
ENDBRANCH   1  13
BRANCH   9  30
ATOM     30  C   UNL     1      -5.134   4.867 128.784  0.00  0.00    +0.000 A 
ATOM     31  C   UNL     1      -4.293   5.137 129.882  0.00  0.00    +0.000 A 
ATOM     32  C   UNL     1      -2.911   5.210 129.748  0.00  0.00    +0.000 A 
ATOM     33  C   UNL     1      -2.325   4.840 128.545  0.00  0.00    +0.000 A 
ATOM     34  C   UNL     1      -3.130   4.443 127.473  0.00  0.00    +0.000 A 
ATOM     35  C   UNL     1      -4.536   4.524 127.561  0.00  0.00    +0.000 A 
BRANCH  35  36
ATOM     36  S   UNL     1      -5.414   4.278 126.015  0.00  0.00    +0.000 S 
ATOM     37  O   UNL     1      -6.538   5.186 126.057  0.00  0.00    +0.000 OA
ATOM     38  O   UNL     1      -4.405   4.422 124.964  0.00  0.00    +0.000 OA
BRANCH  36  39
ATOM     39  C   UNL     1      -6.084   2.628 125.929  0.00  0.00    +0.000 C 
ATOM     40  C   UNL     1      -6.600   2.341 124.522  0.00  0.00    +0.000 C 
ATOM     41  C   UNL     1      -5.053   1.542 126.198  0.00  0.00    +0.000 C 
ENDBRANCH  36  39
ENDBRANCH  35  36
ENDBRANCH   9  30
TORSDOF 7
ENDMDL
MODEL 4
REMARK VINA RESULT:      -8.5      3.316      8.958
REMARK  Name = Ceritinib
REMARK  12 active torsions:
REMARK  status: ('A' for Active; 'I' for Inactive)
REMARK    1  A    between atoms: C_1  and  C_2
REMARK    2  A    between atoms: C_2  and  C_3
REMARK    3  A    between atoms: C_2  and  O_4
REMARK    4  A    between atoms: O_4  and  C_5
REMARK    5  A    between atoms: C_6  and  N_7
REMARK    6  A    between atoms: N_15  and  C_16
REMARK    7  A    between atoms: C_21  and  S_22
REMARK    8  A    between atoms: S_22  and  C_25
REMARK    9  A    between atoms: C_25  and  C_26
REMARK   10  A    between atoms: C_25  and  C_27
REMARK   11  A    between atoms: C_29  and  C_30
REMARK   12  A    between atoms: C_31  and  C_33
REMARK                            x       y       z     vdW  Elec       q    Type
REMARK                         _______ _______ _______ _____ _____    ______ ____
ROOT
ATOM      1  N   UNL     1      -5.798  -0.138 129.790  0.00  0.00    +0.000 N 
ATOM      2  C   UNL     1      -6.747   0.584 130.456  0.00  0.00    +0.000 A 
ATOM      3  N   UNL     1      -8.040   0.409 130.405  0.00  0.00    +0.000 NA
ATOM      4  C   UNL     1      -8.820   1.444 130.894  0.00  0.00    +0.000 A 
ATOM      5  C   UNL     1      -8.387   2.690 131.165  0.00  0.00    +0.000 A 
ATOM      6 CL   UNL     1      -9.424   3.960 131.658  0.00  0.00    +0.000 Cl
ATOM      7  C   UNL     1      -6.889   2.828 131.284  0.00  0.00    +0.000 A 
ATOM      8  N   UNL     1      -6.196   1.669 131.041  0.00  0.00    +0.000 N 
ATOM      9  N   UNL     1      -6.341   3.936 131.721  0.00  0.00    +0.000 NA
ATOM     10  H   UNL     1      -4.839  -0.140 130.095  0.00  0.00    +0.000 HD
ATOM     11  H   UNL     1      -5.235   1.590 131.333  0.00  0.00    +0.000 HD
ENDROOT
BRANCH   1  13
ATOM     12  C   UNL     1      -5.885  -1.962 128.129  0.00  0.00    +0.000 A 
ATOM     13  C   UNL     1      -5.924  -0.617 128.482  0.00  0.00    +0.000 A 
ATOM     14  C   UNL     1      -6.045   0.351 127.500  0.00  0.00    +0.000 A 
ATOM     15  C   UNL     1      -5.950   0.139 126.140  0.00  0.00    +0.000 A 
ATOM     16  C   UNL     1      -6.059   1.529 125.472  0.00  0.00    +0.000 C 
ATOM     17  C   UNL     1      -5.772  -1.228 125.730  0.00  0.00    +0.000 A 
ATOM     18  C   UNL     1      -5.757  -2.258 126.754  0.00  0.00    +0.000 A 
BRANCH  17  19
ATOM     19  C   UNL     1      -5.599  -1.757 124.275  0.00  0.00    +0.000 C 
ATOM     20  C   UNL     1      -6.500  -1.052 123.250  0.00  0.00    +0.000 C 
ATOM     21  C   UNL     1      -7.938  -1.370 123.537  0.00  0.00    +0.000 C 
ATOM     22  N   UNL     1      -8.188  -2.819 123.719  0.00  0.00    +0.000 NA
ATOM     23  C   UNL     1      -7.207  -3.630 124.476  0.00  0.00    +0.000 C 
ATOM     24  C   UNL     1      -5.777  -3.278 124.182  0.00  0.00    +0.000 C 
ATOM     25  H   UNL     1      -8.207  -3.216 122.782  0.00  0.00    +0.000 HD
ENDBRANCH  17  19
BRANCH  12  26
ATOM     26  O   UNL     1      -5.785  -2.979 129.062  0.00  0.00    +0.000 OA
BRANCH  26  28
ATOM     27  C   UNL     1      -7.211  -3.131 131.029  0.00  0.00    +0.000 C 
ATOM     28  C   UNL     1      -7.014  -3.579 129.577  0.00  0.00    +0.000 C 
ATOM     29  C   UNL     1      -8.300  -3.118 128.905  0.00  0.00    +0.000 C 
ENDBRANCH  26  28
ENDBRANCH  12  26
ENDBRANCH   1  13
BRANCH   9  30
ATOM     30  C   UNL     1      -4.958   3.958 131.988  0.00  0.00    +0.000 A 
ATOM     31  C   UNL     1      -4.552   3.742 133.320  0.00  0.00    +0.000 A 
ATOM     32  C   UNL     1      -3.235   3.927 133.725  0.00  0.00    +0.000 A 
ATOM     33  C   UNL     1      -2.257   4.162 132.768  0.00  0.00    +0.000 A 
ATOM     34  C   UNL     1      -2.612   4.255 131.419  0.00  0.00    +0.000 A 
ATOM     35  C   UNL     1      -3.968   4.227 131.029  0.00  0.00    +0.000 A 
BRANCH  35  36
ATOM     36  S   UNL     1      -4.281   4.664 129.317  0.00  0.00    +0.000 S 
ATOM     37  O   UNL     1      -4.854   3.483 128.712  0.00  0.00    +0.000 OA
ATOM     38  O   UNL     1      -5.058   5.904 129.365  0.00  0.00    +0.000 OA
BRANCH  36  39
ATOM     39  C   UNL     1      -2.751   4.993 128.464  0.00  0.00    +0.000 C 
ATOM     40  C   UNL     1      -2.716   4.244 127.135  0.00  0.00    +0.000 C 
ATOM     41  C   UNL     1      -2.567   6.458 128.094  0.00  0.00    +0.000 C 
ENDBRANCH  36  39
ENDBRANCH  35  36
ENDBRANCH   9  30
TORSDOF 7
ENDMDL
MODEL 5
REMARK VINA RESULT:      -8.5      3.981      8.287
REMARK  Name = Ceritinib
REMARK  12 active torsions:
REMARK  status: ('A' for Active; 'I' for Inactive)
REMARK    1  A    between atoms: C_1  and  C_2
REMARK    2  A    between atoms: C_2  and  C_3
REMARK    3  A    between atoms: C_2  and  O_4
REMARK    4  A    between atoms: O_4  and  C_5
REMARK    5  A    between atoms: C_6  and  N_7
REMARK    6  A    between atoms: N_15  and  C_16
REMARK    7  A    between atoms: C_21  and  S_22
REMARK    8  A    between atoms: S_22  and  C_25
REMARK    9  A    between atoms: C_25  and  C_26
REMARK   10  A    between atoms: C_25  and  C_27
REMARK   11  A    between atoms: C_29  and  C_30
REMARK   12  A    between atoms: C_31  and  C_33
REMARK                            x       y       z     vdW  Elec       q    Type
REMARK                         _______ _______ _______ _____ _____    ______ ____
ROOT
ATOM      1  N   UNL     1      -8.408   0.769 130.132  0.00  0.00    +0.000 N 
ATOM      2  C   UNL     1      -8.402   1.576 129.029  0.00  0.00    +0.000 A 
ATOM      3  N   UNL     1      -8.284   1.196 127.785  0.00  0.00    +0.000 NA
ATOM      4  C   UNL     1      -7.979   2.188 126.867  0.00  0.00    +0.000 A 
ATOM      5  C   UNL     1      -7.542   3.426 127.168  0.00  0.00    +0.000 A 
ATOM      6 CL   UNL     1      -7.070   4.571 125.985  0.00  0.00    +0.000 Cl
ATOM      7  C   UNL     1      -7.764   3.846 128.600  0.00  0.00    +0.000 A 
ATOM      8  N   UNL     1      -8.328   2.875 129.390  0.00  0.00    +0.000 N 
ATOM      9  N   UNL     1      -7.556   5.081 128.987  0.00  0.00    +0.000 NA
ATOM     10  H   UNL     1      -8.786   1.090 131.007  0.00  0.00    +0.000 HD
ATOM     11  H   UNL     1      -8.739   3.126 130.274  0.00  0.00    +0.000 HD
ENDROOT
BRANCH   1  13
ATOM     12  C   UNL     1      -6.354  -0.364 130.900  0.00  0.00    +0.000 A 
ATOM     13  C   UNL     1      -7.609  -0.366 130.301  0.00  0.00    +0.000 A 
ATOM     14  C   UNL     1      -8.122  -1.541 129.776  0.00  0.00    +0.000 A 
ATOM     15  C   UNL     1      -7.431  -2.724 129.615  0.00  0.00    +0.000 A 
ATOM     16  C   UNL     1      -8.398  -3.703 128.912  0.00  0.00    +0.000 C 
ATOM     17  C   UNL     1      -6.076  -2.729 130.100  0.00  0.00    +0.000 A 
ATOM     18  C   UNL     1      -5.573  -1.531 130.750  0.00  0.00    +0.000 A 
BRANCH  17  19
ATOM     19  C   UNL     1      -5.055  -3.901 130.020  0.00  0.00    +0.000 C 
ATOM     20  C   UNL     1      -5.526  -5.181 130.727  0.00  0.00    +0.000 C 
ATOM     21  C   UNL     1      -5.618  -4.938 132.205  0.00  0.00    +0.000 C 
ATOM     22  N   UNL     1      -4.401  -4.307 132.767  0.00  0.00    +0.000 NA
ATOM     23  C   UNL     1      -3.724  -3.237 132.000  0.00  0.00    +0.000 C 
ATOM     24  C   UNL     1      -3.663  -3.499 130.522  0.00  0.00    +0.000 C 
ATOM     25  H   UNL     1      -3.717  -5.056 132.855  0.00  0.00    +0.000 HD
ENDBRANCH  17  19
BRANCH  12  26
ATOM     26  O   UNL     1      -5.793   0.770 131.459  0.00  0.00    +0.000 OA
BRANCH  26  28
ATOM     27  C   UNL     1      -4.715   1.922 129.605  0.00  0.00    +0.000 C 
ATOM     28  C   UNL     1      -4.501   1.232 130.956  0.00  0.00    +0.000 C 
ATOM     29  C   UNL     1      -3.824   2.315 131.785  0.00  0.00    +0.000 C 
ENDBRANCH  26  28
ENDBRANCH  12  26
ENDBRANCH   1  13
BRANCH   9  30
ATOM     30  C   UNL     1      -7.948   5.469 130.283  0.00  0.00    +0.000 A 
ATOM     31  C   UNL     1      -7.035   5.241 131.332  0.00  0.00    +0.000 A 
ATOM     32  C   UNL     1      -7.391   5.413 132.665  0.00  0.00    +0.000 A 
ATOM     33  C   UNL     1      -8.617   5.987 132.972  0.00  0.00    +0.000 A 
ATOM     34  C   UNL     1      -9.495   6.343 131.944  0.00  0.00    +0.000 A 
ATOM     35  C   UNL     1      -9.199   6.021 130.602  0.00  0.00    +0.000 A 
BRANCH  35  36
ATOM     36  S   UNL     1     -10.548   6.260 129.443  0.00  0.00    +0.000 S 
ATOM     37  O   UNL     1      -9.923   6.561 128.175  0.00  0.00    +0.000 OA
ATOM     38  O   UNL     1     -11.390   5.069 129.571  0.00  0.00    +0.000 OA
BRANCH  36  39
ATOM     39  C   UNL     1     -11.519   7.686 129.894  0.00  0.00    +0.000 C 
ATOM     40  C   UNL     1     -11.913   8.472 128.648  0.00  0.00    +0.000 C 
ATOM     41  C   UNL     1     -12.836   7.332 130.569  0.00  0.00    +0.000 C 
ENDBRANCH  36  39
ENDBRANCH  35  36
ENDBRANCH   9  30
TORSDOF 7
ENDMDL
MODEL 6
REMARK VINA RESULT:      -8.4      3.523      8.544
REMARK  Name = Ceritinib
REMARK  12 active torsions:
REMARK  status: ('A' for Active; 'I' for Inactive)
REMARK    1  A    between atoms: C_1  and  C_2
REMARK    2  A    between atoms: C_2  and  C_3
REMARK    3  A    between atoms: C_2  and  O_4
REMARK    4  A    between atoms: O_4  and  C_5
REMARK    5  A    between atoms: C_6  and  N_7
REMARK    6  A    between atoms: N_15  and  C_16
REMARK    7  A    between atoms: C_21  and  S_22
REMARK    8  A    between atoms: S_22  and  C_25
REMARK    9  A    between atoms: C_25  and  C_26
REMARK   10  A    between atoms: C_25  and  C_27
REMARK   11  A    between atoms: C_29  and  C_30
REMARK   12  A    between atoms: C_31  and  C_33
REMARK                            x       y       z     vdW  Elec       q    Type
REMARK                         _______ _______ _______ _____ _____    ______ ____
ROOT
ATOM      1  N   UNL     1      -6.859   2.230 127.391  0.00  0.00    +0.000 N 
ATOM      2  C   UNL     1      -6.013   3.032 128.104  0.00  0.00    +0.000 A 
ATOM      3  N   UNL     1      -4.898   3.562 127.679  0.00  0.00    +0.000 NA
ATOM      4  C   UNL     1      -4.048   4.063 128.652  0.00  0.00    +0.000 A 
ATOM      5  C   UNL     1      -4.141   3.822 129.974  0.00  0.00    +0.000 A 
ATOM      6 CL   UNL     1      -2.991   4.376 131.115  0.00  0.00    +0.000 Cl
ATOM      7  C   UNL     1      -5.473   3.276 130.426  0.00  0.00    +0.000 A 
ATOM      8  N   UNL     1      -6.366   3.057 129.407  0.00  0.00    +0.000 N 
ATOM      9  N   UNL     1      -5.766   3.167 131.698  0.00  0.00    +0.000 NA
ATOM     10  H   UNL     1      -7.816   2.104 127.675  0.00  0.00    +0.000 HD
ATOM     11  H   UNL     1      -7.344   2.937 129.616  0.00  0.00    +0.000 HD
ENDROOT
BRANCH   1  13
ATOM     12  C   UNL     1      -6.524   1.385 125.096  0.00  0.00    +0.000 A 
ATOM     13  C   UNL     1      -6.458   1.249 126.479  0.00  0.00    +0.000 A 
ATOM     14  C   UNL     1      -6.019   0.060 127.035  0.00  0.00    +0.000 A 
ATOM     15  C   UNL     1      -5.796  -1.118 126.353  0.00  0.00    +0.000 A 
ATOM     16  C   UNL     1      -5.408  -2.173 127.415  0.00  0.00    +0.000 C 
ATOM     17  C   UNL     1      -5.983  -1.062 124.928  0.00  0.00    +0.000 A 
ATOM     18  C   UNL     1      -6.337   0.214 124.330  0.00  0.00    +0.000 A 
BRANCH  17  19
ATOM     19  C   UNL     1      -5.839  -2.236 123.915  0.00  0.00    +0.000 C 
ATOM     20  C   UNL     1      -6.483  -1.956 122.549  0.00  0.00    +0.000 C 
ATOM     21  C   UNL     1      -7.972  -1.848 122.703  0.00  0.00    +0.000 C 
ATOM     22  N   UNL     1      -8.559  -2.972 123.469  0.00  0.00    +0.000 NA
ATOM     23  C   UNL     1      -7.844  -3.485 124.660  0.00  0.00    +0.000 C 
ATOM     24  C   UNL     1      -6.355  -3.564 124.483  0.00  0.00    +0.000 C 
ATOM     25  H   UNL     1      -8.606  -3.754 122.820  0.00  0.00    +0.000 HD
ENDBRANCH  17  19
BRANCH  12  26
ATOM     26  O   UNL     1      -6.935   2.552 124.477  0.00  0.00    +0.000 OA
BRANCH  26  28
ATOM     27  C   UNL     1      -6.073   3.786 122.564  0.00  0.00    +0.000 C 
ATOM     28  C   UNL     1      -5.922   3.520 124.065  0.00  0.00    +0.000 C 
ATOM     29  C   UNL     1      -6.061   4.911 124.669  0.00  0.00    +0.000 C 
ENDBRANCH  26  28
ENDBRANCH  12  26
ENDBRANCH   1  13
BRANCH   9  30
ATOM     30  C   UNL     1      -7.081   2.826 132.072  0.00  0.00    +0.000 A 
ATOM     31  C   UNL     1      -7.467   1.478 131.930  0.00  0.00    +0.000 A 
ATOM     32  C   UNL     1      -8.787   1.072 132.091  0.00  0.00    +0.000 A 
ATOM     33  C   UNL     1      -9.722   1.978 132.573  0.00  0.00    +0.000 A 
ATOM     34  C   UNL     1      -9.339   3.294 132.846  0.00  0.00    +0.000 A 
ATOM     35  C   UNL     1      -8.039   3.745 132.530  0.00  0.00    +0.000 A 
BRANCH  35  36
ATOM     36  S   UNL     1      -7.795   5.519 132.649  0.00  0.00    +0.000 S 
ATOM     37  O   UNL     1      -9.052   6.054 133.119  0.00  0.00    +0.000 OA
ATOM     38  O   UNL     1      -6.585   5.694 133.456  0.00  0.00    +0.000 OA
BRANCH  36  39
ATOM     39  C   UNL     1      -7.501   6.221 131.037  0.00  0.00    +0.000 C 
ATOM     40  C   UNL     1      -8.637   7.167 130.660  0.00  0.00    +0.000 C 
ATOM     41  C   UNL     1      -6.242   7.072 130.968  0.00  0.00    +0.000 C 
ENDBRANCH  36  39
ENDBRANCH  35  36
ENDBRANCH   9  30
TORSDOF 7
ENDMDL
MODEL 7
REMARK VINA RESULT:      -8.3      3.008      7.946
REMARK  Name = Ceritinib
REMARK  12 active torsions:
REMARK  status: ('A' for Active; 'I' for Inactive)
REMARK    1  A    between atoms: C_1  and  C_2
REMARK    2  A    between atoms: C_2  and  C_3
REMARK    3  A    between atoms: C_2  and  O_4
REMARK    4  A    between atoms: O_4  and  C_5
REMARK    5  A    between atoms: C_6  and  N_7
REMARK    6  A    between atoms: N_15  and  C_16
REMARK    7  A    between atoms: C_21  and  S_22
REMARK    8  A    between atoms: S_22  and  C_25
REMARK    9  A    between atoms: C_25  and  C_26
REMARK   10  A    between atoms: C_25  and  C_27
REMARK   11  A    between atoms: C_29  and  C_30
REMARK   12  A    between atoms: C_31  and  C_33
REMARK                            x       y       z     vdW  Elec       q    Type
REMARK                         _______ _______ _______ _____ _____    ______ ____
ROOT
ATOM      1  N   UNL     1      -7.305   3.132 126.107  0.00  0.00    +0.000 N 
ATOM      2  C   UNL     1      -6.404   3.826 126.865  0.00  0.00    +0.000 A 
ATOM      3  N   UNL     1      -5.120   3.930 126.650  0.00  0.00    +0.000 NA
ATOM      4  C   UNL     1      -4.358   4.401 127.707  0.00  0.00    +0.000 A 
ATOM      5  C   UNL     1      -4.770   4.506 128.984  0.00  0.00    +0.000 A 
ATOM      6 CL   UNL     1      -3.743   4.986 130.268  0.00  0.00    +0.000 Cl
ATOM      7  C   UNL     1      -6.266   4.451 129.174  0.00  0.00    +0.000 A 
ATOM      8  N   UNL     1      -6.973   4.244 128.015  0.00  0.00    +0.000 N 
ATOM      9  N   UNL     1      -6.814   4.720 130.334  0.00  0.00    +0.000 NA
ATOM     10  H   UNL     1      -8.290   3.331 126.160  0.00  0.00    +0.000 HD
ATOM     11  H   UNL     1      -7.960   4.437 127.992  0.00  0.00    +0.000 HD
ENDROOT
BRANCH   1  13
ATOM     12  C   UNL     1      -7.107   1.670 124.128  0.00  0.00    +0.000 A 
ATOM     13  C   UNL     1      -7.061   1.897 125.500  0.00  0.00    +0.000 A 
ATOM     14  C   UNL     1      -6.810   0.845 126.365  0.00  0.00    +0.000 A 
ATOM     15  C   UNL     1      -6.772  -0.491 126.024  0.00  0.00    +0.000 A 
ATOM     16  C   UNL     1      -6.550  -1.273 127.339  0.00  0.00    +0.000 C 
ATOM     17  C   UNL     1      -6.951  -0.786 124.627  0.00  0.00    +0.000 A 
ATOM     18  C   UNL     1      -7.104   0.324 123.703  0.00  0.00    +0.000 A 
BRANCH  17  19
ATOM     19  C   UNL     1      -6.991  -2.194 123.962  0.00  0.00    +0.000 C 
ATOM     20  C   UNL     1      -7.725  -2.221 122.614  0.00  0.00    +0.000 C 
ATOM     21  C   UNL     1      -9.182  -1.925 122.824  0.00  0.00    +0.000 C 
ATOM     22  N   UNL     1      -9.790  -2.742 123.900  0.00  0.00    +0.000 NA
ATOM     23  C   UNL     1      -9.019  -2.991 125.140  0.00  0.00    +0.000 C 
ATOM     24  C   UNL     1      -7.562  -3.266 124.899  0.00  0.00    +0.000 C 
ATOM     25  H   UNL     1      -9.956  -3.658 123.491  0.00  0.00    +0.000 HD
ENDBRANCH  17  19
BRANCH  12  26
ATOM     26  O   UNL     1      -7.335   2.679 123.209  0.00  0.00    +0.000 OA
BRANCH  26  28
ATOM     27  C   UNL     1      -6.751   3.723 121.089  0.00  0.00    +0.000 C 
ATOM     28  C   UNL     1      -6.212   3.163 122.410  0.00  0.00    +0.000 C 
ATOM     29  C   UNL     1      -5.453   4.347 122.993  0.00  0.00    +0.000 C 
ENDBRANCH  26  28
ENDBRANCH  12  26
ENDBRANCH   1  13
BRANCH   9  30
ATOM     30  C   UNL     1      -8.216   4.834 130.419  0.00  0.00    +0.000 A 
ATOM     31  C   UNL     1      -8.770   6.124 130.292  0.00  0.00    +0.000 A 
ATOM     32  C   UNL     1     -10.114   6.373 130.545  0.00  0.00    +0.000 A 
ATOM     33  C   UNL     1     -10.974   5.305 130.760  0.00  0.00    +0.000 A 
ATOM     34  C   UNL     1     -10.474   4.000 130.765  0.00  0.00    +0.000 A 
ATOM     35  C   UNL     1      -9.086   3.761 130.668  0.00  0.00    +0.000 A 
BRANCH  35  36
ATOM     36  S   UNL     1      -8.576   2.073 130.998  0.00  0.00    +0.000 S 
ATOM     37  O   UNL     1      -9.751   1.402 131.505  0.00  0.00    +0.000 OA
ATOM     38  O   UNL     1      -7.951   1.604 129.760  0.00  0.00    +0.000 OA
BRANCH  36  39
ATOM     39  C   UNL     1      -7.353   2.029 132.295  0.00  0.00    +0.000 C 
ATOM     40  C   UNL     1      -7.858   2.784 133.521  0.00  0.00    +0.000 C 
ATOM     41  C   UNL     1      -7.052   0.624 132.795  0.00  0.00    +0.000 C 
ENDBRANCH  36  39
ENDBRANCH  35  36
ENDBRANCH   9  30
TORSDOF 7
ENDMDL
MODEL 8
REMARK VINA RESULT:      -8.3      4.121      8.562
REMARK  Name = Ceritinib
REMARK  12 active torsions:
REMARK  status: ('A' for Active; 'I' for Inactive)
REMARK    1  A    between atoms: C_1  and  C_2
REMARK    2  A    between atoms: C_2  and  C_3
REMARK    3  A    between atoms: C_2  and  O_4
REMARK    4  A    between atoms: O_4  and  C_5
REMARK    5  A    between atoms: C_6  and  N_7
REMARK    6  A    between atoms: N_15  and  C_16
REMARK    7  A    between atoms: C_21  and  S_22
REMARK    8  A    between atoms: S_22  and  C_25
REMARK    9  A    between atoms: C_25  and  C_26
REMARK   10  A    between atoms: C_25  and  C_27
REMARK   11  A    between atoms: C_29  and  C_30
REMARK   12  A    between atoms: C_31  and  C_33
REMARK                            x       y       z     vdW  Elec       q    Type
REMARK                         _______ _______ _______ _____ _____    ______ ____
ROOT
ATOM      1  N   UNL     1      -8.712   0.696 130.783  0.00  0.00    +0.000 N 
ATOM      2  C   UNL     1      -8.370   1.413 129.672  0.00  0.00    +0.000 A 
ATOM      3  N   UNL     1      -8.054   0.933 128.500  0.00  0.00    +0.000 NA
ATOM      4  C   UNL     1      -7.434   1.810 127.625  0.00  0.00    +0.000 A 
ATOM      5  C   UNL     1      -6.900   3.002 127.956  0.00  0.00    +0.000 A 
ATOM      6 CL   UNL     1      -6.043   3.989 126.851  0.00  0.00    +0.000 Cl
ATOM      7  C   UNL     1      -7.350   3.548 129.289  0.00  0.00    +0.000 A 
ATOM      8  N   UNL     1      -8.192   2.715 129.983  0.00  0.00    +0.000 N 
ATOM      9  N   UNL     1      -7.056   4.771 129.656  0.00  0.00    +0.000 NA
ATOM     10  H   UNL     1      -9.214   1.124 131.543  0.00  0.00    +0.000 HD
ATOM     11  H   UNL     1      -8.736   3.080 130.747  0.00  0.00    +0.000 HD
ENDROOT
BRANCH   1  13
ATOM     12  C   UNL     1      -7.421  -0.710 132.348  0.00  0.00    +0.000 A 
ATOM     13  C   UNL     1      -8.131  -0.516 131.168  0.00  0.00    +0.000 A 
ATOM     14  C   UNL     1      -8.252  -1.553 130.257  0.00  0.00    +0.000 A 
ATOM     15  C   UNL     1      -7.574  -2.754 130.304  0.00  0.00    +0.000 A 
ATOM     16  C   UNL     1      -7.975  -3.533 129.031  0.00  0.00    +0.000 C 
ATOM     17  C   UNL     1      -6.719  -2.946 131.445  0.00  0.00    +0.000 A 
ATOM     18  C   UNL     1      -6.676  -1.904 132.457  0.00  0.00    +0.000 A 
BRANCH  17  19
ATOM     19  C   UNL     1      -5.812  -4.177 131.742  0.00  0.00    +0.000 C 
ATOM     20  C   UNL     1      -4.702  -3.894 132.765  0.00  0.00    +0.000 C 
ATOM     21  C   UNL     1      -3.725  -2.909 132.192  0.00  0.00    +0.000 C 
ATOM     22  N   UNL     1      -3.265  -3.272 130.831  0.00  0.00    +0.000 NA
ATOM     23  C   UNL     1      -4.242  -3.817 129.861  0.00  0.00    +0.000 C 
ATOM     24  C   UNL     1      -5.218  -4.785 130.466  0.00  0.00    +0.000 C 
ATOM     25  H   UNL     1      -2.570  -4.003 130.960  0.00  0.00    +0.000 HD
ENDBRANCH  17  19
BRANCH  12  26
ATOM     26  O   UNL     1      -7.279   0.277 133.307  0.00  0.00    +0.000 OA
BRANCH  26  28
ATOM     27  C   UNL     1      -5.575   1.703 132.311  0.00  0.00    +0.000 C 
ATOM     28  C   UNL     1      -5.954   0.852 133.528  0.00  0.00    +0.000 C 
ATOM     29  C   UNL     1      -5.854   1.844 134.678  0.00  0.00    +0.000 C 
ENDBRANCH  26  28
ENDBRANCH  12  26
ENDBRANCH   1  13
BRANCH   9  30
ATOM     30  C   UNL     1      -7.647   5.298 130.821  0.00  0.00    +0.000 A 
ATOM     31  C   UNL     1      -6.880   5.278 132.003  0.00  0.00    +0.000 A 
ATOM     32  C   UNL     1      -7.429   5.599 133.240  0.00  0.00    +0.000 A 
ATOM     33  C   UNL     1      -8.715   6.118 133.298  0.00  0.00    +0.000 A 
ATOM     34  C   UNL     1      -9.457   6.270 132.123  0.00  0.00    +0.000 A 
ATOM     35  C   UNL     1      -8.958   5.796 130.891  0.00  0.00    +0.000 A 
BRANCH  35  36
ATOM     36  S   UNL     1     -10.141   5.782 129.541  0.00  0.00    +0.000 S 
ATOM     37  O   UNL     1      -9.377   6.083 128.351  0.00  0.00    +0.000 OA
ATOM     38  O   UNL     1     -10.841   4.500 129.648  0.00  0.00    +0.000 OA
BRANCH  36  39
ATOM     39  C   UNL     1     -11.334   7.092 129.738  0.00  0.00    +0.000 C 
ATOM     40  C   UNL     1     -10.991   8.260 128.819  0.00  0.00    +0.000 C 
ATOM     41  C   UNL     1     -12.747   6.687 129.348  0.00  0.00    +0.000 C 
ENDBRANCH  36  39
ENDBRANCH  35  36
ENDBRANCH   9  30
TORSDOF 7
ENDMDL
MODEL 9
REMARK VINA RESULT:      -8.3      3.155      7.956
REMARK  Name = Ceritinib
REMARK  12 active torsions:
REMARK  status: ('A' for Active; 'I' for Inactive)
REMARK    1  A    between atoms: C_1  and  C_2
REMARK    2  A    between atoms: C_2  and  C_3
REMARK    3  A    between atoms: C_2  and  O_4
REMARK    4  A    between atoms: O_4  and  C_5
REMARK    5  A    between atoms: C_6  and  N_7
REMARK    6  A    between atoms: N_15  and  C_16
REMARK    7  A    between atoms: C_21  and  S_22
REMARK    8  A    between atoms: S_22  and  C_25
REMARK    9  A    between atoms: C_25  and  C_26
REMARK   10  A    between atoms: C_25  and  C_27
REMARK   11  A    between atoms: C_29  and  C_30
REMARK   12  A    between atoms: C_31  and  C_33
REMARK                            x       y       z     vdW  Elec       q    Type
REMARK                         _______ _______ _______ _____ _____    ______ ____
ROOT
ATOM      1  N   UNL     1      -7.314   2.397 127.191  0.00  0.00    +0.000 N 
ATOM      2  C   UNL     1      -6.360   3.228 127.707  0.00  0.00    +0.000 A 
ATOM      3  N   UNL     1      -5.309   3.689 127.086  0.00  0.00    +0.000 NA
ATOM      4  C   UNL     1      -4.319   4.242 127.883  0.00  0.00    +0.000 A 
ATOM      5  C   UNL     1      -4.225   4.111 129.220  0.00  0.00    +0.000 A 
ATOM      6 CL   UNL     1      -2.913   4.720 130.135  0.00  0.00    +0.000 Cl
ATOM      7  C   UNL     1      -5.488   3.643 129.900  0.00  0.00    +0.000 A 
ATOM      8  N   UNL     1      -6.522   3.369 129.040  0.00  0.00    +0.000 N 
ATOM      9  N   UNL     1      -5.597   3.644 131.206  0.00  0.00    +0.000 NA
ATOM     10  H   UNL     1      -8.222   2.321 127.618  0.00  0.00    +0.000 HD
ATOM     11  H   UNL     1      -7.461   3.294 129.395  0.00  0.00    +0.000 HD
ENDROOT
BRANCH   1  13
ATOM     12  C   UNL     1      -7.128   1.424 124.930  0.00  0.00    +0.000 A 
ATOM     13  C   UNL     1      -7.065   1.334 126.317  0.00  0.00    +0.000 A 
ATOM     14  C   UNL     1      -6.791   0.117 126.918  0.00  0.00    +0.000 A 
ATOM     15  C   UNL     1      -6.743  -1.106 126.283  0.00  0.00    +0.000 A 
ATOM     16  C   UNL     1      -6.494  -2.162 127.384  0.00  0.00    +0.000 C 
ATOM     17  C   UNL     1      -6.938  -1.080 124.857  0.00  0.00    +0.000 A 
ATOM     18  C   UNL     1      -7.116   0.209 124.211  0.00  0.00    +0.000 A 
BRANCH  17  19
ATOM     19  C   UNL     1      -6.972  -2.301 123.892  0.00  0.00    +0.000 C 
ATOM     20  C   UNL     1      -7.716  -2.028 122.576  0.00  0.00    +0.000 C 
ATOM     21  C   UNL     1      -9.173  -1.801 122.856  0.00  0.00    +0.000 C 
ATOM     22  N   UNL     1      -9.767  -2.845 123.722  0.00  0.00    +0.000 NA
ATOM     23  C   UNL     1      -8.986  -3.362 124.868  0.00  0.00    +0.000 C 
ATOM     24  C   UNL     1      -7.528  -3.562 124.564  0.00  0.00    +0.000 C 
ATOM     25  H   UNL     1      -9.929  -3.647 123.117  0.00  0.00    +0.000 HD
ENDBRANCH  17  19
BRANCH  12  26
ATOM     26  O   UNL     1      -7.380   2.611 124.267  0.00  0.00    +0.000 OA
BRANCH  26  28
ATOM     27  C   UNL     1      -8.466   3.098 122.143  0.00  0.00    +0.000 C 
ATOM     28  C   UNL     1      -7.163   2.665 122.823  0.00  0.00    +0.000 C 
ATOM     29  C   UNL     1      -6.170   3.717 122.348  0.00  0.00    +0.000 C 
ENDBRANCH  26  28
ENDBRANCH  12  26
ENDBRANCH   1  13
BRANCH   9  30
ATOM     30  C   UNL     1      -6.850   3.374 131.790  0.00  0.00    +0.000 A 
ATOM     31  C   UNL     1      -7.631   4.478 132.189  0.00  0.00    +0.000 A 
ATOM     32  C   UNL     1      -8.791   4.322 132.940  0.00  0.00    +0.000 A 
ATOM     33  C   UNL     1      -9.293   3.047 133.158  0.00  0.00    +0.000 A 
ATOM     34  C   UNL     1      -8.606   1.935 132.662  0.00  0.00    +0.000 A 
ATOM     35  C   UNL     1      -7.348   2.085 132.041  0.00  0.00    +0.000 A 
BRANCH  35  36
ATOM     36  S   UNL     1      -6.456   0.557 131.740  0.00  0.00    +0.000 S 
ATOM     37  O   UNL     1      -6.245   0.506 130.311  0.00  0.00    +0.000 OA
ATOM     38  O   UNL     1      -5.304   0.592 132.642  0.00  0.00    +0.000 OA
BRANCH  36  39
ATOM     39  C   UNL     1      -7.462  -0.851 132.167  0.00  0.00    +0.000 C 
ATOM     40  C   UNL     1      -7.751  -1.689 130.925  0.00  0.00    +0.000 C 
ATOM     41  C   UNL     1      -6.783  -1.807 133.136  0.00  0.00    +0.000 C 
ENDBRANCH  36  39
ENDBRANCH  35  36
ENDBRANCH   9  30
TORSDOF 7
ENDMDL
