MODEL 1
REMARK VINA RESULT:      -5.9      0.000      0.000
REMARK  Name = Cetalkonium
REMARK  20 active torsions:
REMARK  status: ('A' for Active; 'I' for Inactive)
REMARK    1  A    between atoms: C_1  and  C_2
REMARK    2  A    between atoms: C_2  and  C_3
REMARK    3  A    between atoms: C_3  and  C_4
REMARK    4  A    between atoms: C_4  and  C_5
REMARK    5  A    between atoms: C_5  and  C_6
REMARK    6  A    between atoms: C_6  and  C_7
REMARK    7  A    between atoms: C_7  and  C_8
REMARK    8  A    between atoms: C_8  and  C_9
REMARK    9  A    between atoms: C_9  and  C_10
REMARK   10  A    between atoms: C_10  and  C_11
REMARK   11  A    between atoms: C_11  and  C_12
REMARK   12  A    between atoms: C_12  and  C_13
REMARK   13  A    between atoms: C_13  and  C_14
REMARK   14  A    between atoms: C_14  and  C_15
REMARK   15  A    between atoms: C_15  and  C_16
REMARK   16  A    between atoms: C_16  and  N_17
REMARK   17  A    between atoms: N_17  and  C_18
REMARK   18  A    between atoms: N_17  and  C_19
REMARK   19  A    between atoms: N_17  and  C_20
REMARK   20  A    between atoms: C_20  and  C_21
REMARK                            x       y       z     vdW  Elec       q    Type
REMARK                         _______ _______ _______ _____ _____    ______ ____
ROOT
ATOM      1  C   UNL     1      -8.958  -3.815 128.043  0.00  0.00    +0.000 C 
ENDROOT
BRANCH   1   2
ATOM      2  C   UNL     1      -8.220  -3.412 129.305  0.00  0.00    +0.000 C 
BRANCH   2   3
ATOM      3  C   UNL     1      -7.680  -2.024 129.093  0.00  0.00    +0.000 C 
BRANCH   3   4
ATOM      4  C   UNL     1      -7.120  -1.437 130.379  0.00  0.00    +0.000 C 
BRANCH   4   5
ATOM      5  N   UNL     1      -5.755  -0.793 130.130  0.00  0.00    +0.000 N 
ATOM      6  C   UNL     1      -5.495  -0.667 128.627  0.00  0.00    +0.000 C 
ATOM      7  C   UNL     1      -5.716   0.594 130.773  0.00  0.00    +0.000 C 
BRANCH   5   8
ATOM      8  C   UNL     1      -4.663  -1.716 130.772  0.00  0.00    +0.000 C 
BRANCH   8   9
ATOM      9  C   UNL     1      -5.266  -2.895 131.501  0.00  0.00    +0.000 A 
ATOM     10  C   UNL     1      -5.728  -2.729 132.818  0.00  0.00    +0.000 A 
ATOM     11  C   UNL     1      -5.828  -3.836 133.659  0.00  0.00    +0.000 A 
ATOM     12  C   UNL     1      -5.611  -5.111 133.157  0.00  0.00    +0.000 A 
ATOM     13  C   UNL     1      -5.292  -5.295 131.810  0.00  0.00    +0.000 A 
ATOM     14  C   UNL     1      -5.119  -4.185 130.982  0.00  0.00    +0.000 A 
ENDBRANCH   8   9
ENDBRANCH   5   8
ENDBRANCH   4   5
ENDBRANCH   3   4
ENDBRANCH   2   3
ENDBRANCH   1   2
BRANCH   1  15
ATOM     15  C   UNL     1      -8.329  -3.118 126.863  0.00  0.00    +0.000 C 
BRANCH  15  16
ATOM     16  C   UNL     1      -9.325  -3.037 125.727  0.00  0.00    +0.000 C 
BRANCH  16  17
ATOM     17  C   UNL     1      -8.727  -3.688 124.499  0.00  0.00    +0.000 C 
BRANCH  17  18
ATOM     18  C   UNL     1      -9.473  -3.232 123.263  0.00  0.00    +0.000 C 
BRANCH  18  19
ATOM     19  C   UNL     1      -8.672  -2.160 122.551  0.00  0.00    +0.000 C 
BRANCH  19  20
ATOM     20  C   UNL     1      -9.236  -0.792 122.882  0.00  0.00    +0.000 C 
BRANCH  20  21
ATOM     21  C   UNL     1      -8.150   0.083 123.482  0.00  0.00    +0.000 C 
BRANCH  21  22
ATOM     22  C   UNL     1      -6.819  -0.645 123.444  0.00  0.00    +0.000 C 
BRANCH  22  23
ATOM     23  C   UNL     1      -6.273  -0.807 124.854  0.00  0.00    +0.000 C 
BRANCH  23  24
ATOM     24  C   UNL     1      -5.342  -2.008 124.921  0.00  0.00    +0.000 C 
BRANCH  24  26
ATOM     25  C   UNL     1      -4.668  -4.098 123.732  0.00  0.00    +0.000 C 
ATOM     26  C   UNL     1      -5.298  -2.728 123.580  0.00  0.00    +0.000 C 
ENDBRANCH  24  26
ENDBRANCH  23  24
ENDBRANCH  22  23
ENDBRANCH  21  22
ENDBRANCH  20  21
ENDBRANCH  19  20
ENDBRANCH  18  19
ENDBRANCH  17  18
ENDBRANCH  16  17
ENDBRANCH  15  16
ENDBRANCH   1  15
TORSDOF 17
ENDMDL
MODEL 2
REMARK VINA RESULT:      -5.8      2.272      5.295
REMARK  Name = Cetalkonium
REMARK  20 active torsions:
REMARK  status: ('A' for Active; 'I' for Inactive)
REMARK    1  A    between atoms: C_1  and  C_2
REMARK    2  A    between atoms: C_2  and  C_3
REMARK    3  A    between atoms: C_3  and  C_4
REMARK    4  A    between atoms: C_4  and  C_5
REMARK    5  A    between atoms: C_5  and  C_6
REMARK    6  A    between atoms: C_6  and  C_7
REMARK    7  A    between atoms: C_7  and  C_8
REMARK    8  A    between atoms: C_8  and  C_9
REMARK    9  A    between atoms: C_9  and  C_10
REMARK   10  A    between atoms: C_10  and  C_11
REMARK   11  A    between atoms: C_11  and  C_12
REMARK   12  A    between atoms: C_12  and  C_13
REMARK   13  A    between atoms: C_13  and  C_14
REMARK   14  A    between atoms: C_14  and  C_15
REMARK   15  A    between atoms: C_15  and  C_16
REMARK   16  A    between atoms: C_16  and  N_17
REMARK   17  A    between atoms: N_17  and  C_18
REMARK   18  A    between atoms: N_17  and  C_19
REMARK   19  A    between atoms: N_17  and  C_20
REMARK   20  A    between atoms: C_20  and  C_21
REMARK                            x       y       z     vdW  Elec       q    Type
REMARK                         _______ _______ _______ _____ _____    ______ ____
ROOT
ATOM      1  C   UNL     1      -7.636  -2.314 130.659  0.00  0.00    +0.000 C 
ENDROOT
BRANCH   1   2
ATOM      2  C   UNL     1      -8.039  -0.941 131.163  0.00  0.00    +0.000 C 
BRANCH   2   3
ATOM      3  C   UNL     1      -7.767   0.046 130.061  0.00  0.00    +0.000 C 
BRANCH   3   4
ATOM      4  C   UNL     1      -7.986   1.478 130.524  0.00  0.00    +0.000 C 
BRANCH   4   5
ATOM      5  N   UNL     1      -8.016   2.434 129.331  0.00  0.00    +0.000 N 
ATOM      6  C   UNL     1      -8.948   3.613 129.619  0.00  0.00    +0.000 C 
ATOM      7  C   UNL     1      -6.604   2.955 129.054  0.00  0.00    +0.000 C 
BRANCH   5   8
ATOM      8  C   UNL     1      -8.549   1.639 128.090  0.00  0.00    +0.000 C 
BRANCH   8   9
ATOM      9  C   UNL     1      -7.731   1.901 126.847  0.00  0.00    +0.000 A 
ATOM     10  C   UNL     1      -8.163   2.875 125.929  0.00  0.00    +0.000 A 
ATOM     11  C   UNL     1      -7.739   2.809 124.603  0.00  0.00    +0.000 A 
ATOM     12  C   UNL     1      -6.786   1.876 124.224  0.00  0.00    +0.000 A 
ATOM     13  C   UNL     1      -6.245   0.997 125.165  0.00  0.00    +0.000 A 
ATOM     14  C   UNL     1      -6.718   1.011 126.476  0.00  0.00    +0.000 A 
ENDBRANCH   8   9
ENDBRANCH   5   8
ENDBRANCH   4   5
ENDBRANCH   3   4
ENDBRANCH   2   3
ENDBRANCH   1   2
BRANCH   1  15
ATOM     15  C   UNL     1      -7.766  -2.342 129.157  0.00  0.00    +0.000 C 
BRANCH  15  16
ATOM     16  C   UNL     1      -8.631  -3.512 128.741  0.00  0.00    +0.000 C 
BRANCH  16  17
ATOM     17  C   UNL     1      -8.773  -3.509 127.234  0.00  0.00    +0.000 C 
BRANCH  17  18
ATOM     18  C   UNL     1      -8.246  -2.205 126.674  0.00  0.00    +0.000 C 
BRANCH  18  19
ATOM     19  C   UNL     1      -8.995  -1.856 125.403  0.00  0.00    +0.000 C 
BRANCH  19  20
ATOM     20  C   UNL     1      -9.133  -3.090 124.534  0.00  0.00    +0.000 C 
BRANCH  20  21
ATOM     21  C   UNL     1      -8.757  -2.756 123.101  0.00  0.00    +0.000 C 
BRANCH  21  22
ATOM     22  C   UNL     1      -7.778  -1.596 123.079  0.00  0.00    +0.000 C 
BRANCH  22  23
ATOM     23  C   UNL     1      -6.400  -2.085 122.664  0.00  0.00    +0.000 C 
BRANCH  23  24
ATOM     24  C   UNL     1      -5.522  -2.281 123.890  0.00  0.00    +0.000 C 
BRANCH  24  26
ATOM     25  C   UNL     1      -4.245  -4.385 123.463  0.00  0.00    +0.000 C 
ATOM     26  C   UNL     1      -5.396  -3.761 124.227  0.00  0.00    +0.000 C 
ENDBRANCH  24  26
ENDBRANCH  23  24
ENDBRANCH  22  23
ENDBRANCH  21  22
ENDBRANCH  20  21
ENDBRANCH  19  20
ENDBRANCH  18  19
ENDBRANCH  17  18
ENDBRANCH  16  17
ENDBRANCH  15  16
ENDBRANCH   1  15
TORSDOF 17
ENDMDL
MODEL 3
REMARK VINA RESULT:      -5.8      2.019      3.765
REMARK  Name = Cetalkonium
REMARK  20 active torsions:
REMARK  status: ('A' for Active; 'I' for Inactive)
REMARK    1  A    between atoms: C_1  and  C_2
REMARK    2  A    between atoms: C_2  and  C_3
REMARK    3  A    between atoms: C_3  and  C_4
REMARK    4  A    between atoms: C_4  and  C_5
REMARK    5  A    between atoms: C_5  and  C_6
REMARK    6  A    between atoms: C_6  and  C_7
REMARK    7  A    between atoms: C_7  and  C_8
REMARK    8  A    between atoms: C_8  and  C_9
REMARK    9  A    between atoms: C_9  and  C_10
REMARK   10  A    between atoms: C_10  and  C_11
REMARK   11  A    between atoms: C_11  and  C_12
REMARK   12  A    between atoms: C_12  and  C_13
REMARK   13  A    between atoms: C_13  and  C_14
REMARK   14  A    between atoms: C_14  and  C_15
REMARK   15  A    between atoms: C_15  and  C_16
REMARK   16  A    between atoms: C_16  and  N_17
REMARK   17  A    between atoms: N_17  and  C_18
REMARK   18  A    between atoms: N_17  and  C_19
REMARK   19  A    between atoms: N_17  and  C_20
REMARK   20  A    between atoms: C_20  and  C_21
REMARK                            x       y       z     vdW  Elec       q    Type
REMARK                         _______ _______ _______ _____ _____    ______ ____
ROOT
ATOM      1  C   UNL     1      -8.053  -3.012 129.346  0.00  0.00    +0.000 C 
ENDROOT
BRANCH   1   2
ATOM      2  C   UNL     1      -6.666  -3.610 129.499  0.00  0.00    +0.000 C 
BRANCH   2   3
ATOM      3  C   UNL     1      -6.389  -3.746 130.970  0.00  0.00    +0.000 C 
BRANCH   3   4
ATOM      4  C   UNL     1      -7.210  -2.762 131.789  0.00  0.00    +0.000 C 
BRANCH   4   5
ATOM      5  N   UNL     1      -6.303  -1.728 132.459  0.00  0.00    +0.000 N 
ATOM      6  C   UNL     1      -6.700  -1.545 133.925  0.00  0.00    +0.000 C 
ATOM      7  C   UNL     1      -4.847  -2.191 132.378  0.00  0.00    +0.000 C 
BRANCH   5   8
ATOM      8  C   UNL     1      -6.479  -0.368 131.698  0.00  0.00    +0.000 C 
BRANCH   8   9
ATOM      9  C   UNL     1      -7.600   0.467 132.272  0.00  0.00    +0.000 A 
ATOM     10  C   UNL     1      -8.901   0.323 131.757  0.00  0.00    +0.000 A 
ATOM     11  C   UNL     1      -9.817   1.363 131.898  0.00  0.00    +0.000 A 
ATOM     12  C   UNL     1      -9.496   2.473 132.665  0.00  0.00    +0.000 A 
ATOM     13  C   UNL     1      -8.255   2.558 133.299  0.00  0.00    +0.000 A 
ATOM     14  C   UNL     1      -7.307   1.554 133.102  0.00  0.00    +0.000 A 
ENDBRANCH   8   9
ENDBRANCH   5   8
ENDBRANCH   4   5
ENDBRANCH   3   4
ENDBRANCH   2   3
ENDBRANCH   1   2
BRANCH   1  15
ATOM     15  C   UNL     1      -8.781  -3.738 128.242  0.00  0.00    +0.000 C 
BRANCH  15  16
ATOM     16  C   UNL     1      -8.257  -3.280 126.898  0.00  0.00    +0.000 C 
BRANCH  16  17
ATOM     17  C   UNL     1      -9.406  -3.226 125.914  0.00  0.00    +0.000 C 
BRANCH  17  18
ATOM     18  C   UNL     1      -8.993  -3.877 124.611  0.00  0.00    +0.000 C 
BRANCH  18  19
ATOM     19  C   UNL     1      -9.598  -3.117 123.448  0.00  0.00    +0.000 C 
BRANCH  19  20
ATOM     20  C   UNL     1      -8.831  -1.829 123.222  0.00  0.00    +0.000 C 
BRANCH  20  21
ATOM     21  C   UNL     1      -7.805  -2.026 122.121  0.00  0.00    +0.000 C 
BRANCH  21  22
ATOM     22  C   UNL     1      -6.458  -1.483 122.563  0.00  0.00    +0.000 C 
BRANCH  22  23
ATOM     23  C   UNL     1      -6.378  -1.462 124.081  0.00  0.00    +0.000 C 
BRANCH  23  24
ATOM     24  C   UNL     1      -5.186  -2.281 124.554  0.00  0.00    +0.000 C 
BRANCH  24  26
ATOM     25  C   UNL     1      -4.268  -4.400 123.602  0.00  0.00    +0.000 C 
ATOM     26  C   UNL     1      -5.435  -3.767 124.334  0.00  0.00    +0.000 C 
ENDBRANCH  24  26
ENDBRANCH  23  24
ENDBRANCH  22  23
ENDBRANCH  21  22
ENDBRANCH  20  21
ENDBRANCH  19  20
ENDBRANCH  18  19
ENDBRANCH  17  18
ENDBRANCH  16  17
ENDBRANCH  15  16
ENDBRANCH   1  15
TORSDOF 17
ENDMDL
MODEL 4
REMARK VINA RESULT:      -5.7      2.057      3.961
REMARK  Name = Cetalkonium
REMARK  20 active torsions:
REMARK  status: ('A' for Active; 'I' for Inactive)
REMARK    1  A    between atoms: C_1  and  C_2
REMARK    2  A    between atoms: C_2  and  C_3
REMARK    3  A    between atoms: C_3  and  C_4
REMARK    4  A    between atoms: C_4  and  C_5
REMARK    5  A    between atoms: C_5  and  C_6
REMARK    6  A    between atoms: C_6  and  C_7
REMARK    7  A    between atoms: C_7  and  C_8
REMARK    8  A    between atoms: C_8  and  C_9
REMARK    9  A    between atoms: C_9  and  C_10
REMARK   10  A    between atoms: C_10  and  C_11
REMARK   11  A    between atoms: C_11  and  C_12
REMARK   12  A    between atoms: C_12  and  C_13
REMARK   13  A    between atoms: C_13  and  C_14
REMARK   14  A    between atoms: C_14  and  C_15
REMARK   15  A    between atoms: C_15  and  C_16
REMARK   16  A    between atoms: C_16  and  N_17
REMARK   17  A    between atoms: N_17  and  C_18
REMARK   18  A    between atoms: N_17  and  C_19
REMARK   19  A    between atoms: N_17  and  C_20
REMARK   20  A    between atoms: C_20  and  C_21
REMARK                            x       y       z     vdW  Elec       q    Type
REMARK                         _______ _______ _______ _____ _____    ______ ____
ROOT
ATOM      1  C   UNL     1      -8.918  -3.912 127.872  0.00  0.00    +0.000 C 
ENDROOT
BRANCH   1   2
ATOM      2  C   UNL     1      -8.577  -3.290 129.213  0.00  0.00    +0.000 C 
BRANCH   2   3
ATOM      3  C   UNL     1      -7.553  -2.215 128.969  0.00  0.00    +0.000 C 
BRANCH   3   4
ATOM      4  C   UNL     1      -6.342  -2.379 129.874  0.00  0.00    +0.000 C 
BRANCH   4   5
ATOM      5  N   UNL     1      -6.078  -1.095 130.662  0.00  0.00    +0.000 N 
ATOM      6  C   UNL     1      -4.655  -1.102 131.224  0.00  0.00    +0.000 C 
ATOM      7  C   UNL     1      -6.259   0.117 129.746  0.00  0.00    +0.000 C 
BRANCH   5   8
ATOM      8  C   UNL     1      -7.105  -1.035 131.844  0.00  0.00    +0.000 C 
BRANCH   8   9
ATOM      9  C   UNL     1      -7.782   0.312 131.946  0.00  0.00    +0.000 A 
ATOM     10  C   UNL     1      -7.178   1.332 132.702  0.00  0.00    +0.000 A 
ATOM     11  C   UNL     1      -7.957   2.369 133.210  0.00  0.00    +0.000 A 
ATOM     12  C   UNL     1      -9.293   2.473 132.852  0.00  0.00    +0.000 A 
ATOM     13  C   UNL     1      -9.866   1.541 131.983  0.00  0.00    +0.000 A 
ATOM     14  C   UNL     1      -9.109   0.461 131.531  0.00  0.00    +0.000 A 
ENDBRANCH   8   9
ENDBRANCH   5   8
ENDBRANCH   4   5
ENDBRANCH   3   4
ENDBRANCH   2   3
ENDBRANCH   1   2
BRANCH   1  15
ATOM     15  C   UNL     1      -8.447  -2.994 126.772  0.00  0.00    +0.000 C 
BRANCH  15  16
ATOM     16  C   UNL     1      -9.514  -2.886 125.704  0.00  0.00    +0.000 C 
BRANCH  16  17
ATOM     17  C   UNL     1      -8.974  -3.453 124.409  0.00  0.00    +0.000 C 
BRANCH  17  18
ATOM     18  C   UNL     1      -8.802  -2.340 123.397  0.00  0.00    +0.000 C 
BRANCH  18  19
ATOM     19  C   UNL     1      -7.360  -2.292 122.934  0.00  0.00    +0.000 C 
BRANCH  19  20
ATOM     20  C   UNL     1      -6.688  -1.047 123.480  0.00  0.00    +0.000 C 
BRANCH  20  21
ATOM     21  C   UNL     1      -5.806  -1.412 124.661  0.00  0.00    +0.000 C 
BRANCH  21  22
ATOM     22  C   UNL     1      -5.992  -0.402 125.778  0.00  0.00    +0.000 C 
BRANCH  22  23
ATOM     23  C   UNL     1      -7.089   0.585 125.412  0.00  0.00    +0.000 C 
BRANCH  23  24
ATOM     24  C   UNL     1      -8.137   0.636 126.512  0.00  0.00    +0.000 C 
BRANCH  24  26
ATOM     25  C   UNL     1      -9.469   1.233 124.485  0.00  0.00    +0.000 C 
ATOM     26  C   UNL     1      -9.535   0.738 125.916  0.00  0.00    +0.000 C 
ENDBRANCH  24  26
ENDBRANCH  23  24
ENDBRANCH  22  23
ENDBRANCH  21  22
ENDBRANCH  20  21
ENDBRANCH  19  20
ENDBRANCH  18  19
ENDBRANCH  17  18
ENDBRANCH  16  17
ENDBRANCH  15  16
ENDBRANCH   1  15
TORSDOF 17
ENDMDL
MODEL 5
REMARK VINA RESULT:      -5.7      3.084      7.333
REMARK  Name = Cetalkonium
REMARK  20 active torsions:
REMARK  status: ('A' for Active; 'I' for Inactive)
REMARK    1  A    between atoms: C_1  and  C_2
REMARK    2  A    between atoms: C_2  and  C_3
REMARK    3  A    between atoms: C_3  and  C_4
REMARK    4  A    between atoms: C_4  and  C_5
REMARK    5  A    between atoms: C_5  and  C_6
REMARK    6  A    between atoms: C_6  and  C_7
REMARK    7  A    between atoms: C_7  and  C_8
REMARK    8  A    between atoms: C_8  and  C_9
REMARK    9  A    between atoms: C_9  and  C_10
REMARK   10  A    between atoms: C_10  and  C_11
REMARK   11  A    between atoms: C_11  and  C_12
REMARK   12  A    between atoms: C_12  and  C_13
REMARK   13  A    between atoms: C_13  and  C_14
REMARK   14  A    between atoms: C_14  and  C_15
REMARK   15  A    between atoms: C_15  and  C_16
REMARK   16  A    between atoms: C_16  and  N_17
REMARK   17  A    between atoms: N_17  and  C_18
REMARK   18  A    between atoms: N_17  and  C_19
REMARK   19  A    between atoms: N_17  and  C_20
REMARK   20  A    between atoms: C_20  and  C_21
REMARK                            x       y       z     vdW  Elec       q    Type
REMARK                         _______ _______ _______ _____ _____    ______ ____
ROOT
ATOM      1  C   UNL     1      -6.532   0.035 124.986  0.00  0.00    +0.000 C 
ENDROOT
BRANCH   1   2
ATOM      2  C   UNL     1      -7.226   0.498 126.253  0.00  0.00    +0.000 C 
BRANCH   2   3
ATOM      3  C   UNL     1      -6.225   1.278 127.061  0.00  0.00    +0.000 C 
BRANCH   3   4
ATOM      4  C   UNL     1      -6.663   2.722 127.253  0.00  0.00    +0.000 C 
BRANCH   4   5
ATOM      5  N   UNL     1      -5.599   3.685 126.724  0.00  0.00    +0.000 N 
ATOM      6  C   UNL     1      -5.043   4.539 127.865  0.00  0.00    +0.000 C 
ATOM      7  C   UNL     1      -4.461   2.890 126.080  0.00  0.00    +0.000 C 
BRANCH   5   8
ATOM      8  C   UNL     1      -6.277   4.614 125.660  0.00  0.00    +0.000 C 
BRANCH   8   9
ATOM      9  C   UNL     1      -6.342   3.969 124.295  0.00  0.00    +0.000 A 
ATOM     10  C   UNL     1      -5.363   4.282 123.335  0.00  0.00    +0.000 A 
ATOM     11  C   UNL     1      -5.644   4.110 121.981  0.00  0.00    +0.000 A 
ATOM     12  C   UNL     1      -6.826   3.500 121.590  0.00  0.00    +0.000 A 
ATOM     13  C   UNL     1      -7.742   3.054 122.545  0.00  0.00    +0.000 A 
ATOM     14  C   UNL     1      -7.499   3.290 123.898  0.00  0.00    +0.000 A 
ENDBRANCH   8   9
ENDBRANCH   5   8
ENDBRANCH   4   5
ENDBRANCH   3   4
ENDBRANCH   2   3
ENDBRANCH   1   2
BRANCH   1  15
ATOM     15  C   UNL     1      -5.906  -1.315 125.234  0.00  0.00    +0.000 C 
BRANCH  15  16
ATOM     16  C   UNL     1      -5.669  -2.018 123.916  0.00  0.00    +0.000 C 
BRANCH  16  17
ATOM     17  C   UNL     1      -6.628  -1.466 122.883  0.00  0.00    +0.000 C 
BRANCH  17  18
ATOM     18  C   UNL     1      -7.655  -2.519 122.525  0.00  0.00    +0.000 C 
BRANCH  18  19
ATOM     19  C   UNL     1      -8.973  -2.196 123.201  0.00  0.00    +0.000 C 
BRANCH  19  20
ATOM     20  C   UNL     1      -9.284  -3.248 124.247  0.00  0.00    +0.000 C 
BRANCH  20  21
ATOM     21  C   UNL     1      -9.355  -2.604 125.620  0.00  0.00    +0.000 C 
BRANCH  21  22
ATOM     22  C   UNL     1      -8.741  -3.526 126.658  0.00  0.00    +0.000 C 
BRANCH  22  23
ATOM     23  C   UNL     1      -8.128  -2.709 127.784  0.00  0.00    +0.000 C 
BRANCH  23  24
ATOM     24  C   UNL     1      -8.008  -3.557 129.041  0.00  0.00    +0.000 C 
BRANCH  24  26
ATOM     25  C   UNL     1      -6.025  -4.367 130.326  0.00  0.00    +0.000 C 
ATOM     26  C   UNL     1      -6.785  -3.145 129.850  0.00  0.00    +0.000 C 
ENDBRANCH  24  26
ENDBRANCH  23  24
ENDBRANCH  22  23
ENDBRANCH  21  22
ENDBRANCH  20  21
ENDBRANCH  19  20
ENDBRANCH  18  19
ENDBRANCH  17  18
ENDBRANCH  16  17
ENDBRANCH  15  16
ENDBRANCH   1  15
TORSDOF 17
ENDMDL
MODEL 6
REMARK VINA RESULT:      -5.6      1.793      4.486
REMARK  Name = Cetalkonium
REMARK  20 active torsions:
REMARK  status: ('A' for Active; 'I' for Inactive)
REMARK    1  A    between atoms: C_1  and  C_2
REMARK    2  A    between atoms: C_2  and  C_3
REMARK    3  A    between atoms: C_3  and  C_4
REMARK    4  A    between atoms: C_4  and  C_5
REMARK    5  A    between atoms: C_5  and  C_6
REMARK    6  A    between atoms: C_6  and  C_7
REMARK    7  A    between atoms: C_7  and  C_8
REMARK    8  A    between atoms: C_8  and  C_9
REMARK    9  A    between atoms: C_9  and  C_10
REMARK   10  A    between atoms: C_10  and  C_11
REMARK   11  A    between atoms: C_11  and  C_12
REMARK   12  A    between atoms: C_12  and  C_13
REMARK   13  A    between atoms: C_13  and  C_14
REMARK   14  A    between atoms: C_14  and  C_15
REMARK   15  A    between atoms: C_15  and  C_16
REMARK   16  A    between atoms: C_16  and  N_17
REMARK   17  A    between atoms: N_17  and  C_18
REMARK   18  A    between atoms: N_17  and  C_19
REMARK   19  A    between atoms: N_17  and  C_20
REMARK   20  A    between atoms: C_20  and  C_21
REMARK                            x       y       z     vdW  Elec       q    Type
REMARK                         _______ _______ _______ _____ _____    ______ ____
ROOT
ATOM      1  C   UNL     1      -5.672  -4.774 131.158  0.00  0.00    +0.000 C 
ENDROOT
BRANCH   1   2
ATOM      2  C   UNL     1      -4.828  -5.124 132.370  0.00  0.00    +0.000 C 
BRANCH   2   3
ATOM      3  C   UNL     1      -5.727  -5.091 133.575  0.00  0.00    +0.000 C 
BRANCH   3   4
ATOM      4  C   UNL     1      -6.658  -3.888 133.548  0.00  0.00    +0.000 C 
BRANCH   4   5
ATOM      5  N   UNL     1      -6.619  -3.145 134.884  0.00  0.00    +0.000 N 
ATOM      6  C   UNL     1      -7.979  -3.237 135.581  0.00  0.00    +0.000 C 
ATOM      7  C   UNL     1      -5.543  -3.758 135.783  0.00  0.00    +0.000 C 
BRANCH   5   8
ATOM      8  C   UNL     1      -6.284  -1.642 134.590  0.00  0.00    +0.000 C 
BRANCH   8   9
ATOM      9  C   UNL     1      -5.678  -1.449 133.220  0.00  0.00    +0.000 A 
ATOM     10  C   UNL     1      -4.286  -1.567 133.058  0.00  0.00    +0.000 A 
ATOM     11  C   UNL     1      -3.661  -0.943 131.981  0.00  0.00    +0.000 A 
ATOM     12  C   UNL     1      -4.422  -0.332 130.995  0.00  0.00    +0.000 A 
ATOM     13  C   UNL     1      -5.816  -0.336 131.076  0.00  0.00    +0.000 A 
ATOM     14  C   UNL     1      -6.443  -0.895 132.189  0.00  0.00    +0.000 A 
ENDBRANCH   8   9
ENDBRANCH   5   8
ENDBRANCH   4   5
ENDBRANCH   3   4
ENDBRANCH   2   3
ENDBRANCH   1   2
BRANCH   1  15
ATOM     15  C   UNL     1      -4.826  -3.997 130.180  0.00  0.00    +0.000 C 
BRANCH  15  16
ATOM     16  C   UNL     1      -5.718  -3.290 129.183  0.00  0.00    +0.000 C 
BRANCH  16  17
ATOM     17  C   UNL     1      -7.165  -3.545 129.548  0.00  0.00    +0.000 C 
BRANCH  17  18
ATOM     18  C   UNL     1      -8.071  -2.787 128.602  0.00  0.00    +0.000 C 
BRANCH  18  19
ATOM     19  C   UNL     1      -8.773  -3.762 127.677  0.00  0.00    +0.000 C 
BRANCH  19  20
ATOM     20  C   UNL     1      -8.956  -3.131 126.311  0.00  0.00    +0.000 C 
BRANCH  20  21
ATOM     21  C   UNL     1      -8.228  -3.953 125.262  0.00  0.00    +0.000 C 
BRANCH  21  22
ATOM     22  C   UNL     1      -7.809  -3.063 124.105  0.00  0.00    +0.000 C 
BRANCH  22  23
ATOM     23  C   UNL     1      -6.749  -2.076 124.565  0.00  0.00    +0.000 C 
BRANCH  23  24
ATOM     24  C   UNL     1      -5.443  -2.803 124.849  0.00  0.00    +0.000 C 
BRANCH  24  26
ATOM     25  C   UNL     1      -4.439  -4.723 123.607  0.00  0.00    +0.000 C 
ATOM     26  C   UNL     1      -4.785  -3.248 123.550  0.00  0.00    +0.000 C 
ENDBRANCH  24  26
ENDBRANCH  23  24
ENDBRANCH  22  23
ENDBRANCH  21  22
ENDBRANCH  20  21
ENDBRANCH  19  20
ENDBRANCH  18  19
ENDBRANCH  17  18
ENDBRANCH  16  17
ENDBRANCH  15  16
ENDBRANCH   1  15
TORSDOF 17
ENDMDL
MODEL 7
REMARK VINA RESULT:      -5.6      1.633      3.934
REMARK  Name = Cetalkonium
REMARK  20 active torsions:
REMARK  status: ('A' for Active; 'I' for Inactive)
REMARK    1  A    between atoms: C_1  and  C_2
REMARK    2  A    between atoms: C_2  and  C_3
REMARK    3  A    between atoms: C_3  and  C_4
REMARK    4  A    between atoms: C_4  and  C_5
REMARK    5  A    between atoms: C_5  and  C_6
REMARK    6  A    between atoms: C_6  and  C_7
REMARK    7  A    between atoms: C_7  and  C_8
REMARK    8  A    between atoms: C_8  and  C_9
REMARK    9  A    between atoms: C_9  and  C_10
REMARK   10  A    between atoms: C_10  and  C_11
REMARK   11  A    between atoms: C_11  and  C_12
REMARK   12  A    between atoms: C_12  and  C_13
REMARK   13  A    between atoms: C_13  and  C_14
REMARK   14  A    between atoms: C_14  and  C_15
REMARK   15  A    between atoms: C_15  and  C_16
REMARK   16  A    between atoms: C_16  and  N_17
REMARK   17  A    between atoms: N_17  and  C_18
REMARK   18  A    between atoms: N_17  and  C_19
REMARK   19  A    between atoms: N_17  and  C_20
REMARK   20  A    between atoms: C_20  and  C_21
REMARK                            x       y       z     vdW  Elec       q    Type
REMARK                         _______ _______ _______ _____ _____    ______ ____
ROOT
ATOM      1  C   UNL     1      -8.118  -2.894 128.036  0.00  0.00    +0.000 C 
ENDROOT
BRANCH   1   2
ATOM      2  C   UNL     1      -8.099  -3.351 129.482  0.00  0.00    +0.000 C 
BRANCH   2   3
ATOM      3  C   UNL     1      -6.670  -3.647 129.847  0.00  0.00    +0.000 C 
BRANCH   3   4
ATOM      4  C   UNL     1      -6.276  -2.980 131.155  0.00  0.00    +0.000 C 
BRANCH   4   5
ATOM      5  N   UNL     1      -5.038  -2.102 130.964  0.00  0.00    +0.000 N 
ATOM      6  C   UNL     1      -3.872  -2.642 131.795  0.00  0.00    +0.000 C 
ATOM      7  C   UNL     1      -4.645  -2.084 129.485  0.00  0.00    +0.000 C 
BRANCH   5   8
ATOM      8  C   UNL     1      -5.395  -0.654 131.445  0.00  0.00    +0.000 C 
BRANCH   8   9
ATOM      9  C   UNL     1      -6.078   0.155 130.366  0.00  0.00    +0.000 A 
ATOM     10  C   UNL     1      -5.361   1.168 129.704  0.00  0.00    +0.000 A 
ATOM     11  C   UNL     1      -6.049   2.212 129.090  0.00  0.00    +0.000 A 
ATOM     12  C   UNL     1      -7.433   2.177 129.007  0.00  0.00    +0.000 A 
ATOM     13  C   UNL     1      -8.146   1.099 129.537  0.00  0.00    +0.000 A 
ATOM     14  C   UNL     1      -7.467   0.088 130.217  0.00  0.00    +0.000 A 
ENDBRANCH   8   9
ENDBRANCH   5   8
ENDBRANCH   4   5
ENDBRANCH   3   4
ENDBRANCH   2   3
ENDBRANCH   1   2
BRANCH   1  15
ATOM     15  C   UNL     1      -8.994  -3.828 127.238  0.00  0.00    +0.000 C 
BRANCH  15  16
ATOM     16  C   UNL     1      -9.424  -3.153 125.954  0.00  0.00    +0.000 C 
BRANCH  16  17
ATOM     17  C   UNL     1      -8.634  -3.737 124.802  0.00  0.00    +0.000 C 
BRANCH  17  18
ATOM     18  C   UNL     1      -8.841  -2.893 123.562  0.00  0.00    +0.000 C 
BRANCH  18  19
ATOM     19  C   UNL     1      -7.527  -2.259 123.152  0.00  0.00    +0.000 C 
BRANCH  19  20
ATOM     20  C   UNL     1      -6.385  -2.913 123.906  0.00  0.00    +0.000 C 
BRANCH  20  21
ATOM     21  C   UNL     1      -5.429  -1.850 124.417  0.00  0.00    +0.000 C 
BRANCH  21  22
ATOM     22  C   UNL     1      -5.641  -1.635 125.905  0.00  0.00    +0.000 C 
BRANCH  22  23
ATOM     23  C   UNL     1      -5.726  -0.149 126.210  0.00  0.00    +0.000 C 
BRANCH  23  24
ATOM     24  C   UNL     1      -6.458   0.576 125.091  0.00  0.00    +0.000 C 
BRANCH  24  26
ATOM     25  C   UNL     1      -8.806   0.299 125.898  0.00  0.00    +0.000 C 
ATOM     26  C   UNL     1      -7.690   1.290 125.631  0.00  0.00    +0.000 C 
ENDBRANCH  24  26
ENDBRANCH  23  24
ENDBRANCH  22  23
ENDBRANCH  21  22
ENDBRANCH  20  21
ENDBRANCH  19  20
ENDBRANCH  18  19
ENDBRANCH  17  18
ENDBRANCH  16  17
ENDBRANCH  15  16
ENDBRANCH   1  15
TORSDOF 17
ENDMDL
MODEL 8
REMARK VINA RESULT:      -5.5      1.543      3.000
REMARK  Name = Cetalkonium
REMARK  20 active torsions:
REMARK  status: ('A' for Active; 'I' for Inactive)
REMARK    1  A    between atoms: C_1  and  C_2
REMARK    2  A    between atoms: C_2  and  C_3
REMARK    3  A    between atoms: C_3  and  C_4
REMARK    4  A    between atoms: C_4  and  C_5
REMARK    5  A    between atoms: C_5  and  C_6
REMARK    6  A    between atoms: C_6  and  C_7
REMARK    7  A    between atoms: C_7  and  C_8
REMARK    8  A    between atoms: C_8  and  C_9
REMARK    9  A    between atoms: C_9  and  C_10
REMARK   10  A    between atoms: C_10  and  C_11
REMARK   11  A    between atoms: C_11  and  C_12
REMARK   12  A    between atoms: C_12  and  C_13
REMARK   13  A    between atoms: C_13  and  C_14
REMARK   14  A    between atoms: C_14  and  C_15
REMARK   15  A    between atoms: C_15  and  C_16
REMARK   16  A    between atoms: C_16  and  N_17
REMARK   17  A    between atoms: N_17  and  C_18
REMARK   18  A    between atoms: N_17  and  C_19
REMARK   19  A    between atoms: N_17  and  C_20
REMARK   20  A    between atoms: C_20  and  C_21
REMARK                            x       y       z     vdW  Elec       q    Type
REMARK                         _______ _______ _______ _____ _____    ______ ____
ROOT
ATOM      1  C   UNL     1      -8.554  -3.832 126.747  0.00  0.00    +0.000 C 
ENDROOT
BRANCH   1   2
ATOM      2  C   UNL     1      -8.871  -3.736 128.228  0.00  0.00    +0.000 C 
BRANCH   2   3
ATOM      3  C   UNL     1      -7.912  -2.750 128.835  0.00  0.00    +0.000 C 
BRANCH   3   4
ATOM      4  C   UNL     1      -6.831  -3.446 129.648  0.00  0.00    +0.000 C 
BRANCH   4   5
ATOM      5  N   UNL     1      -5.596  -2.554 129.781  0.00  0.00    +0.000 N 
ATOM      6  C   UNL     1      -4.575  -2.896 128.694  0.00  0.00    +0.000 C 
ATOM      7  C   UNL     1      -6.006  -1.085 129.651  0.00  0.00    +0.000 C 
BRANCH   5   8
ATOM      8  C   UNL     1      -4.964  -2.814 131.191  0.00  0.00    +0.000 C 
BRANCH   8   9
ATOM      9  C   UNL     1      -5.931  -3.487 132.137  0.00  0.00    +0.000 A 
ATOM     10  C   UNL     1      -6.989  -2.743 132.688  0.00  0.00    +0.000 A 
ATOM     11  C   UNL     1      -7.577  -3.159 133.881  0.00  0.00    +0.000 A 
ATOM     12  C   UNL     1      -7.221  -4.375 134.444  0.00  0.00    +0.000 A 
ATOM     13  C   UNL     1      -6.272  -5.190 133.823  0.00  0.00    +0.000 A 
ATOM     14  C   UNL     1      -5.627  -4.745 132.669  0.00  0.00    +0.000 A 
ENDBRANCH   8   9
ENDBRANCH   5   8
ENDBRANCH   4   5
ENDBRANCH   3   4
ENDBRANCH   2   3
ENDBRANCH   1   2
BRANCH   1  15
ATOM     15  C   UNL     1      -9.475  -2.909 125.988  0.00  0.00    +0.000 C 
BRANCH  15  16
ATOM     16  C   UNL     1      -9.285  -3.108 124.500  0.00  0.00    +0.000 C 
BRANCH  16  17
ATOM     17  C   UNL     1      -7.831  -3.427 124.227  0.00  0.00    +0.000 C 
BRANCH  17  18
ATOM     18  C   UNL     1      -7.124  -2.189 123.718  0.00  0.00    +0.000 C 
BRANCH  18  19
ATOM     19  C   UNL     1      -5.777  -2.055 124.402  0.00  0.00    +0.000 C 
BRANCH  19  20
ATOM     20  C   UNL     1      -5.918  -1.203 125.648  0.00  0.00    +0.000 C 
BRANCH  20  21
ATOM     21  C   UNL     1      -6.869  -0.050 125.380  0.00  0.00    +0.000 C 
BRANCH  21  22
ATOM     22  C   UNL     1      -7.730   0.206 126.603  0.00  0.00    +0.000 C 
BRANCH  22  23
ATOM     23  C   UNL     1      -8.805   1.231 126.279  0.00  0.00    +0.000 C 
BRANCH  23  24
ATOM     24  C   UNL     1      -9.818   0.640 125.311  0.00  0.00    +0.000 C 
BRANCH  24  26
ATOM     25  C   UNL     1      -9.984   0.694 122.819  0.00  0.00    +0.000 C 
ATOM     26  C   UNL     1      -9.970   1.529 124.084  0.00  0.00    +0.000 C 
ENDBRANCH  24  26
ENDBRANCH  23  24
ENDBRANCH  22  23
ENDBRANCH  21  22
ENDBRANCH  20  21
ENDBRANCH  19  20
ENDBRANCH  18  19
ENDBRANCH  17  18
ENDBRANCH  16  17
ENDBRANCH  15  16
ENDBRANCH   1  15
TORSDOF 17
ENDMDL
MODEL 9
REMARK VINA RESULT:      -5.5      1.558      3.222
REMARK  Name = Cetalkonium
REMARK  20 active torsions:
REMARK  status: ('A' for Active; 'I' for Inactive)
REMARK    1  A    between atoms: C_1  and  C_2
REMARK    2  A    between atoms: C_2  and  C_3
REMARK    3  A    between atoms: C_3  and  C_4
REMARK    4  A    between atoms: C_4  and  C_5
REMARK    5  A    between atoms: C_5  and  C_6
REMARK    6  A    between atoms: C_6  and  C_7
REMARK    7  A    between atoms: C_7  and  C_8
REMARK    8  A    between atoms: C_8  and  C_9
REMARK    9  A    between atoms: C_9  and  C_10
REMARK   10  A    between atoms: C_10  and  C_11
REMARK   11  A    between atoms: C_11  and  C_12
REMARK   12  A    between atoms: C_12  and  C_13
REMARK   13  A    between atoms: C_13  and  C_14
REMARK   14  A    between atoms: C_14  and  C_15
REMARK   15  A    between atoms: C_15  and  C_16
REMARK   16  A    between atoms: C_16  and  N_17
REMARK   17  A    between atoms: N_17  and  C_18
REMARK   18  A    between atoms: N_17  and  C_19
REMARK   19  A    between atoms: N_17  and  C_20
REMARK   20  A    between atoms: C_20  and  C_21
REMARK                            x       y       z     vdW  Elec       q    Type
REMARK                         _______ _______ _______ _____ _____    ______ ____
ROOT
ATOM      1  C   UNL     1      -7.452  -1.465 129.571  0.00  0.00    +0.000 C 
ENDROOT
BRANCH   1   2
ATOM      2  C   UNL     1      -8.072  -0.386 130.440  0.00  0.00    +0.000 C 
BRANCH   2   3
ATOM      3  C   UNL     1      -7.813  -0.754 131.876  0.00  0.00    +0.000 C 
BRANCH   3   4
ATOM      4  C   UNL     1      -6.405  -0.374 132.306  0.00  0.00    +0.000 C 
BRANCH   4   5
ATOM      5  N   UNL     1      -5.981  -1.175 133.539  0.00  0.00    +0.000 N 
ATOM      6  C   UNL     1      -5.744  -0.238 134.725  0.00  0.00    +0.000 C 
ATOM      7  C   UNL     1      -7.074  -2.184 133.896  0.00  0.00    +0.000 C 
BRANCH   5   8
ATOM      8  C   UNL     1      -4.649  -1.924 133.192  0.00  0.00    +0.000 C 
BRANCH   8   9
ATOM      9  C   UNL     1      -4.624  -2.416 131.763  0.00  0.00    +0.000 A 
ATOM     10  C   UNL     1      -5.235  -3.641 131.444  0.00  0.00    +0.000 A 
ATOM     11  C   UNL     1      -4.831  -4.338 130.307  0.00  0.00    +0.000 A 
ATOM     12  C   UNL     1      -3.937  -3.760 129.419  0.00  0.00    +0.000 A 
ATOM     13  C   UNL     1      -3.434  -2.479 129.657  0.00  0.00    +0.000 A 
ATOM     14  C   UNL     1      -3.778  -1.808 130.830  0.00  0.00    +0.000 A 
ENDBRANCH   8   9
ENDBRANCH   5   8
ENDBRANCH   4   5
ENDBRANCH   3   4
ENDBRANCH   2   3
ENDBRANCH   1   2
BRANCH   1  15
ATOM     15  C   UNL     1      -8.227  -2.747 129.754  0.00  0.00    +0.000 C 
BRANCH  15  16
ATOM     16  C   UNL     1      -8.157  -3.571 128.487  0.00  0.00    +0.000 C 
BRANCH  16  17
ATOM     17  C   UNL     1      -8.195  -2.642 127.293  0.00  0.00    +0.000 C 
BRANCH  17  18
ATOM     18  C   UNL     1      -9.240  -3.120 126.307  0.00  0.00    +0.000 C 
BRANCH  18  19
ATOM     19  C   UNL     1      -8.558  -3.700 125.083  0.00  0.00    +0.000 C 
BRANCH  19  20
ATOM     20  C   UNL     1      -9.302  -3.274 123.832  0.00  0.00    +0.000 C 
BRANCH  20  21
ATOM     21  C   UNL     1      -8.545  -2.157 123.137  0.00  0.00    +0.000 C 
BRANCH  21  22
ATOM     22  C   UNL     1      -7.051  -2.408 123.227  0.00  0.00    +0.000 C 
BRANCH  22  23
ATOM     23  C   UNL     1      -6.348  -1.181 123.785  0.00  0.00    +0.000 C 
BRANCH  23  24
ATOM     24  C   UNL     1      -5.445  -1.574 124.943  0.00  0.00    +0.000 C 
BRANCH  24  26
ATOM     25  C   UNL     1      -6.664   0.406 125.855  0.00  0.00    +0.000 C 
ATOM     26  C   UNL     1      -5.462  -0.502 126.024  0.00  0.00    +0.000 C 
ENDBRANCH  24  26
ENDBRANCH  23  24
ENDBRANCH  22  23
ENDBRANCH  21  22
ENDBRANCH  20  21
ENDBRANCH  19  20
ENDBRANCH  18  19
ENDBRANCH  17  18
ENDBRANCH  16  17
ENDBRANCH  15  16
ENDBRANCH   1  15
TORSDOF 17
ENDMDL
