MODEL 1
REMARK VINA RESULT:      -7.5      0.000      0.000
REMARK  Name = Cetirizine
REMARK  9 active torsions:
REMARK  status: ('A' for Active; 'I' for Inactive)
REMARK    1  A    between atoms: O_1  and  C_2
REMARK    2  A    between atoms: C_2  and  C_4
REMARK    3  A    between atoms: C_4  and  O_5
REMARK    4  A    between atoms: O_5  and  C_6
REMARK    5  A    between atoms: C_6  and  C_7
REMARK    6  A    between atoms: C_7  and  N_8
REMARK    7  A    between atoms: N_11  and  C_14
REMARK    8  A    between atoms: C_14  and  C_15
REMARK    9  A    between atoms: C_14  and  C_21
REMARK                            x       y       z     vdW  Elec       q    Type
REMARK                         _______ _______ _______ _____ _____    ______ ____
ROOT
ATOM      1  N   UNL     1      -6.219   3.412 126.654  0.00  0.00    +0.000 NA
ATOM      2  C   UNL     1      -6.599   2.006 126.540  0.00  0.00    +0.000 C 
ATOM      3  C   UNL     1      -8.037   1.771 126.043  0.00  0.00    +0.000 C 
ATOM      4  N   UNL     1      -8.325   2.461 124.758  0.00  0.00    +0.000 NA
ATOM      5  C   UNL     1      -8.151   3.900 125.069  0.00  0.00    +0.000 C 
ATOM      6  C   UNL     1      -6.715   4.258 125.567  0.00  0.00    +0.000 C 
ENDROOT
BRANCH   1   7
ATOM      7  C   UNL     1      -6.117   3.860 128.032  0.00  0.00    +0.000 C 
BRANCH   7   8
ATOM      8  C   UNL     1      -4.822   4.528 128.503  0.00  0.00    +0.000 C 
BRANCH   8   9
ATOM      9  O   UNL     1      -3.943   4.613 127.378  0.00  0.00    +0.000 OA
BRANCH   9  10
ATOM     10  C   UNL     1      -2.603   4.241 127.677  0.00  0.00    +0.000 C 
BRANCH  10  11
ATOM     11  C   UNL     1      -2.186   2.990 126.901  0.00  0.00    +0.000 C 
ATOM     12  O   UNL     1      -1.026   2.669 126.651  0.00  0.00    +0.000 OA
BRANCH  11  13
ATOM     13  O   UNL     1      -3.224   2.223 126.489  0.00  0.00    +0.000 OA
ATOM     14  H   UNL     1      -3.842   1.928 127.184  0.00  0.00    +0.000 HD
ENDBRANCH  11  13
ENDBRANCH  10  11
ENDBRANCH   9  10
ENDBRANCH   8   9
ENDBRANCH   7   8
ENDBRANCH   1   7
BRANCH   4  15
ATOM     15  C   UNL     1      -7.407   1.933 123.685  0.00  0.00    +0.000 C 
BRANCH  15  16
ATOM     16  C   UNL     1      -7.290   2.798 122.406  0.00  0.00    +0.000 A 
ATOM     17  C   UNL     1      -8.414   3.241 121.687  0.00  0.00    +0.000 A 
ATOM     18  C   UNL     1      -8.285   3.875 120.452  0.00  0.00    +0.000 A 
ATOM     19  C   UNL     1      -7.024   4.190 119.964  0.00  0.00    +0.000 A 
ATOM     20 CL   UNL     1      -6.856   5.061 118.498  0.00  0.00    +0.000 Cl
ATOM     21  C   UNL     1      -5.894   3.783 120.649  0.00  0.00    +0.000 A 
ATOM     22  C   UNL     1      -6.041   3.034 121.809  0.00  0.00    +0.000 A 
ENDBRANCH  15  16
BRANCH  15  23
ATOM     23  C   UNL     1      -7.786   0.479 123.354  0.00  0.00    +0.000 A 
ATOM     24  C   UNL     1      -9.119   0.095 123.134  0.00  0.00    +0.000 A 
ATOM     25  C   UNL     1      -9.438  -1.256 123.015  0.00  0.00    +0.000 A 
ATOM     26  C   UNL     1      -8.428  -2.220 123.047  0.00  0.00    +0.000 A 
ATOM     27  C   UNL     1      -7.096  -1.841 123.203  0.00  0.00    +0.000 A 
ATOM     28  C   UNL     1      -6.774  -0.498 123.330  0.00  0.00    +0.000 A 
ENDBRANCH  15  23
ENDBRANCH   4  15
TORSDOF 9
ENDMDL
MODEL 2
REMARK VINA RESULT:      -7.3      3.559      5.863
REMARK  Name = Cetirizine
REMARK  9 active torsions:
REMARK  status: ('A' for Active; 'I' for Inactive)
REMARK    1  A    between atoms: O_1  and  C_2
REMARK    2  A    between atoms: C_2  and  C_4
REMARK    3  A    between atoms: C_4  and  O_5
REMARK    4  A    between atoms: O_5  and  C_6
REMARK    5  A    between atoms: C_6  and  C_7
REMARK    6  A    between atoms: C_7  and  N_8
REMARK    7  A    between atoms: N_11  and  C_14
REMARK    8  A    between atoms: C_14  and  C_15
REMARK    9  A    between atoms: C_14  and  C_21
REMARK                            x       y       z     vdW  Elec       q    Type
REMARK                         _______ _______ _______ _____ _____    ______ ____
ROOT
ATOM      1  N   UNL     1      -7.899   3.619 127.199  0.00  0.00    +0.000 NA
ATOM      2  C   UNL     1      -7.997   4.492 126.033  0.00  0.00    +0.000 C 
ATOM      3  C   UNL     1      -6.766   4.467 125.109  0.00  0.00    +0.000 C 
ATOM      4  N   UNL     1      -6.405   3.096 124.663  0.00  0.00    +0.000 NA
ATOM      5  C   UNL     1      -6.082   2.377 125.919  0.00  0.00    +0.000 C 
ATOM      6  C   UNL     1      -7.272   2.324 126.928  0.00  0.00    +0.000 C 
ENDROOT
BRANCH   1   7
ATOM      7  C   UNL     1      -7.715   4.351 128.439  0.00  0.00    +0.000 C 
BRANCH   7   8
ATOM      8  C   UNL     1      -8.947   4.853 129.197  0.00  0.00    +0.000 C 
BRANCH   8   9
ATOM      9  O   UNL     1      -9.017   6.271 129.020  0.00  0.00    +0.000 OA
BRANCH   9  10
ATOM     10  C   UNL     1     -10.347   6.761 128.903  0.00  0.00    +0.000 C 
BRANCH  10  11
ATOM     11  C   UNL     1     -10.612   7.327 127.507  0.00  0.00    +0.000 C 
ATOM     12  O   UNL     1     -10.611   6.671 126.467  0.00  0.00    +0.000 OA
BRANCH  11  13
ATOM     13  O   UNL     1     -10.859   8.659 127.488  0.00  0.00    +0.000 OA
ATOM     14  H   UNL     1     -10.247   9.201 126.957  0.00  0.00    +0.000 HD
ENDBRANCH  11  13
ENDBRANCH  10  11
ENDBRANCH   9  10
ENDBRANCH   8   9
ENDBRANCH   7   8
ENDBRANCH   1   7
BRANCH   4  15
ATOM     15  C   UNL     1      -7.545   2.504 123.875  0.00  0.00    +0.000 C 
BRANCH  15  16
ATOM     16  C   UNL     1      -7.698   0.966 123.951  0.00  0.00    +0.000 A 
ATOM     17  C   UNL     1      -6.823   0.086 123.288  0.00  0.00    +0.000 A 
ATOM     18  C   UNL     1      -7.075  -1.285 123.232  0.00  0.00    +0.000 A 
ATOM     19  C   UNL     1      -8.140  -1.823 123.941  0.00  0.00    +0.000 A 
ATOM     20 CL   UNL     1      -8.397  -3.517 123.964  0.00  0.00    +0.000 Cl
ATOM     21  C   UNL     1      -9.014  -0.991 124.616  0.00  0.00    +0.000 A 
ATOM     22  C   UNL     1      -8.827   0.382 124.549  0.00  0.00    +0.000 A 
ENDBRANCH  15  16
BRANCH  15  23
ATOM     23  C   UNL     1      -7.473   2.997 122.419  0.00  0.00    +0.000 A 
ATOM     24  C   UNL     1      -6.247   3.270 121.792  0.00  0.00    +0.000 A 
ATOM     25  C   UNL     1      -6.232   3.882 120.540  0.00  0.00    +0.000 A 
ATOM     26  C   UNL     1      -7.432   4.160 119.883  0.00  0.00    +0.000 A 
ATOM     27  C   UNL     1      -8.652   3.834 120.472  0.00  0.00    +0.000 A 
ATOM     28  C   UNL     1      -8.672   3.234 121.722  0.00  0.00    +0.000 A 
ENDBRANCH  15  23
ENDBRANCH   4  15
TORSDOF 9
ENDMDL
MODEL 3
REMARK VINA RESULT:      -7.3      2.505      3.780
REMARK  Name = Cetirizine
REMARK  9 active torsions:
REMARK  status: ('A' for Active; 'I' for Inactive)
REMARK    1  A    between atoms: O_1  and  C_2
REMARK    2  A    between atoms: C_2  and  C_4
REMARK    3  A    between atoms: C_4  and  O_5
REMARK    4  A    between atoms: O_5  and  C_6
REMARK    5  A    between atoms: C_6  and  C_7
REMARK    6  A    between atoms: C_7  and  N_8
REMARK    7  A    between atoms: N_11  and  C_14
REMARK    8  A    between atoms: C_14  and  C_15
REMARK    9  A    between atoms: C_14  and  C_21
REMARK                            x       y       z     vdW  Elec       q    Type
REMARK                         _______ _______ _______ _____ _____    ______ ____
ROOT
ATOM      1  N   UNL     1      -6.483   3.421 126.866  0.00  0.00    +0.000 NA
ATOM      2  C   UNL     1      -6.855   2.018 126.707  0.00  0.00    +0.000 C 
ATOM      3  C   UNL     1      -8.261   1.792 126.121  0.00  0.00    +0.000 C 
ATOM      4  N   UNL     1      -8.471   2.503 124.833  0.00  0.00    +0.000 NA
ATOM      5  C   UNL     1      -8.316   3.937 125.177  0.00  0.00    +0.000 C 
ATOM      6  C   UNL     1      -6.913   4.286 125.765  0.00  0.00    +0.000 C 
ENDROOT
BRANCH   1   7
ATOM      7  C   UNL     1      -6.463   3.847 128.254  0.00  0.00    +0.000 C 
BRANCH   7   8
ATOM      8  C   UNL     1      -7.789   4.015 129.000  0.00  0.00    +0.000 C 
BRANCH   8   9
ATOM      9  O   UNL     1      -7.969   5.411 129.258  0.00  0.00    +0.000 OA
BRANCH   9  10
ATOM     10  C   UNL     1      -9.144   5.701 130.006  0.00  0.00    +0.000 C 
BRANCH  10  11
ATOM     11  C   UNL     1     -10.093   6.610 129.223  0.00  0.00    +0.000 C 
ATOM     12  O   UNL     1     -11.163   6.258 128.731  0.00  0.00    +0.000 OA
BRANCH  11  13
ATOM     13  O   UNL     1      -9.659   7.888 129.102  0.00  0.00    +0.000 OA
ATOM     14  H   UNL     1      -8.879   8.024 128.533  0.00  0.00    +0.000 HD
ENDBRANCH  11  13
ENDBRANCH  10  11
ENDBRANCH   9  10
ENDBRANCH   8   9
ENDBRANCH   7   8
ENDBRANCH   1   7
BRANCH   4  15
ATOM     15  C   UNL     1      -7.491   1.992 123.808  0.00  0.00    +0.000 C 
BRANCH  15  16
ATOM     16  C   UNL     1      -7.385   2.814 122.500  0.00  0.00    +0.000 A 
ATOM     17  C   UNL     1      -8.517   3.231 121.776  0.00  0.00    +0.000 A 
ATOM     18  C   UNL     1      -8.398   3.824 120.519  0.00  0.00    +0.000 A 
ATOM     19  C   UNL     1      -7.142   4.123 120.011  0.00  0.00    +0.000 A 
ATOM     20 CL   UNL     1      -6.987   4.945 118.515  0.00  0.00    +0.000 Cl
ATOM     21  C   UNL     1      -6.006   3.740 120.699  0.00  0.00    +0.000 A 
ATOM     22  C   UNL     1      -6.142   3.031 121.885  0.00  0.00    +0.000 A 
ENDBRANCH  15  16
BRANCH  15  23
ATOM     23  C   UNL     1      -7.773   0.506 123.524  0.00  0.00    +0.000 A 
ATOM     24  C   UNL     1      -6.742  -0.447 123.491  0.00  0.00    +0.000 A 
ATOM     25  C   UNL     1      -7.012  -1.744 123.057  0.00  0.00    +0.000 A 
ATOM     26  C   UNL     1      -8.317  -2.111 122.721  0.00  0.00    +0.000 A 
ATOM     27  C   UNL     1      -9.356  -1.187 122.812  0.00  0.00    +0.000 A 
ATOM     28  C   UNL     1      -9.090   0.107 123.235  0.00  0.00    +0.000 A 
ENDBRANCH  15  23
ENDBRANCH   4  15
TORSDOF 9
ENDMDL
MODEL 4
REMARK VINA RESULT:      -7.1      3.683      5.893
REMARK  Name = Cetirizine
REMARK  9 active torsions:
REMARK  status: ('A' for Active; 'I' for Inactive)
REMARK    1  A    between atoms: O_1  and  C_2
REMARK    2  A    between atoms: C_2  and  C_4
REMARK    3  A    between atoms: C_4  and  O_5
REMARK    4  A    between atoms: O_5  and  C_6
REMARK    5  A    between atoms: C_6  and  C_7
REMARK    6  A    between atoms: C_7  and  N_8
REMARK    7  A    between atoms: N_11  and  C_14
REMARK    8  A    between atoms: C_14  and  C_15
REMARK    9  A    between atoms: C_14  and  C_21
REMARK                            x       y       z     vdW  Elec       q    Type
REMARK                         _______ _______ _______ _____ _____    ______ ____
ROOT
ATOM      1  N   UNL     1      -8.033   3.653 127.110  0.00  0.00    +0.000 NA
ATOM      2  C   UNL     1      -7.978   4.592 125.993  0.00  0.00    +0.000 C 
ATOM      3  C   UNL     1      -6.698   4.500 125.143  0.00  0.00    +0.000 C 
ATOM      4  N   UNL     1      -6.436   3.125 124.640  0.00  0.00    +0.000 NA
ATOM      5  C   UNL     1      -6.259   2.314 125.869  0.00  0.00    +0.000 C 
ATOM      6  C   UNL     1      -7.511   2.321 126.802  0.00  0.00    +0.000 C 
ENDROOT
BRANCH   1   7
ATOM      7  C   UNL     1      -7.863   4.299 128.400  0.00  0.00    +0.000 C 
BRANCH   7   8
ATOM      8  C   UNL     1      -8.423   3.619 129.652  0.00  0.00    +0.000 C 
BRANCH   8   9
ATOM      9  O   UNL     1      -9.837   3.487 129.480  0.00  0.00    +0.000 OA
BRANCH   9  10
ATOM     10  C   UNL     1     -10.586   3.893 130.619  0.00  0.00    +0.000 C 
BRANCH  10  11
ATOM     11  C   UNL     1     -11.313   5.215 130.366  0.00  0.00    +0.000 C 
ATOM     12  O   UNL     1     -11.501   5.716 129.259  0.00  0.00    +0.000 OA
BRANCH  11  13
ATOM     13  O   UNL     1     -11.757   5.826 131.490  0.00  0.00    +0.000 OA
ATOM     14  H   UNL     1     -11.529   6.769 131.584  0.00  0.00    +0.000 HD
ENDBRANCH  11  13
ENDBRANCH  10  11
ENDBRANCH   9  10
ENDBRANCH   8   9
ENDBRANCH   7   8
ENDBRANCH   1   7
BRANCH   4  15
ATOM     15  C   UNL     1      -7.573   2.686 123.754  0.00  0.00    +0.000 C 
BRANCH  15  16
ATOM     16  C   UNL     1      -7.840   1.162 123.698  0.00  0.00    +0.000 A 
ATOM     17  C   UNL     1      -6.890   0.245 123.213  0.00  0.00    +0.000 A 
ATOM     18  C   UNL     1      -7.210  -1.098 123.015  0.00  0.00    +0.000 A 
ATOM     19  C   UNL     1      -8.449  -1.580 123.413  0.00  0.00    +0.000 A 
ATOM     20 CL   UNL     1      -8.815  -3.248 123.271  0.00  0.00    +0.000 Cl
ATOM     21  C   UNL     1      -9.405  -0.712 123.906  0.00  0.00    +0.000 A 
ATOM     22  C   UNL     1      -9.117   0.644 123.969  0.00  0.00    +0.000 A 
ENDBRANCH  15  16
BRANCH  15  23
ATOM     23  C   UNL     1      -7.388   3.283 122.348  0.00  0.00    +0.000 A 
ATOM     24  C   UNL     1      -8.486   3.588 121.526  0.00  0.00    +0.000 A 
ATOM     25  C   UNL     1      -8.274   3.958 120.199  0.00  0.00    +0.000 A 
ATOM     26  C   UNL     1      -6.973   4.089 119.709  0.00  0.00    +0.000 A 
ATOM     27  C   UNL     1      -5.879   3.849 120.537  0.00  0.00    +0.000 A 
ATOM     28  C   UNL     1      -6.085   3.472 121.856  0.00  0.00    +0.000 A 
ENDBRANCH  15  23
ENDBRANCH   4  15
TORSDOF 9
ENDMDL
MODEL 5
REMARK VINA RESULT:      -6.7      4.563      6.487
REMARK  Name = Cetirizine
REMARK  9 active torsions:
REMARK  status: ('A' for Active; 'I' for Inactive)
REMARK    1  A    between atoms: O_1  and  C_2
REMARK    2  A    between atoms: C_2  and  C_4
REMARK    3  A    between atoms: C_4  and  O_5
REMARK    4  A    between atoms: O_5  and  C_6
REMARK    5  A    between atoms: C_6  and  C_7
REMARK    6  A    between atoms: C_7  and  N_8
REMARK    7  A    between atoms: N_11  and  C_14
REMARK    8  A    between atoms: C_14  and  C_15
REMARK    9  A    between atoms: C_14  and  C_21
REMARK                            x       y       z     vdW  Elec       q    Type
REMARK                         _______ _______ _______ _____ _____    ______ ____
ROOT
ATOM      1  N   UNL     1      -5.816   1.894 128.059  0.00  0.00    +0.000 NA
ATOM      2  C   UNL     1      -5.281   0.933 129.019  0.00  0.00    +0.000 C 
ATOM      3  C   UNL     1      -6.349   0.120 129.774  0.00  0.00    +0.000 C 
ATOM      4  N   UNL     1      -7.298  -0.573 128.864  0.00  0.00    +0.000 NA
ATOM      5  C   UNL     1      -7.962   0.526 128.122  0.00  0.00    +0.000 C 
ATOM      6  C   UNL     1      -6.970   1.408 127.300  0.00  0.00    +0.000 C 
ENDROOT
BRANCH   1   7
ATOM      7  C   UNL     1      -5.674   3.271 128.499  0.00  0.00    +0.000 C 
BRANCH   7   8
ATOM      8  C   UNL     1      -5.160   4.320 127.509  0.00  0.00    +0.000 C 
BRANCH   8   9
ATOM      9  O   UNL     1      -6.293   5.028 126.999  0.00  0.00    +0.000 OA
BRANCH   9  10
ATOM     10  C   UNL     1      -6.635   4.664 125.667  0.00  0.00    +0.000 C 
BRANCH  10  11
ATOM     11  C   UNL     1      -8.151   4.656 125.463  0.00  0.00    +0.000 C 
ATOM     12  O   UNL     1      -8.807   3.689 125.079  0.00  0.00    +0.000 OA
BRANCH  11  13
ATOM     13  O   UNL     1      -8.753   5.836 125.745  0.00  0.00    +0.000 OA
ATOM     14  H   UNL     1      -9.615   5.991 125.316  0.00  0.00    +0.000 HD
ENDBRANCH  11  13
ENDBRANCH  10  11
ENDBRANCH   9  10
ENDBRANCH   8   9
ENDBRANCH   7   8
ENDBRANCH   1   7
BRANCH   4  15
ATOM     15  C   UNL     1      -6.546  -1.552 127.999  0.00  0.00    +0.000 C 
BRANCH  15  16
ATOM     16  C   UNL     1      -7.323  -2.127 126.791  0.00  0.00    +0.000 A 
ATOM     17  C   UNL     1      -6.869  -1.992 125.466  0.00  0.00    +0.000 A 
ATOM     18  C   UNL     1      -7.662  -2.369 124.383  0.00  0.00    +0.000 A 
ATOM     19  C   UNL     1      -8.878  -3.003 124.602  0.00  0.00    +0.000 A 
ATOM     20 CL   UNL     1      -9.812  -3.563 123.280  0.00  0.00    +0.000 Cl
ATOM     21  C   UNL     1      -9.352  -3.165 125.890  0.00  0.00    +0.000 A 
ATOM     22  C   UNL     1      -8.612  -2.662 126.951  0.00  0.00    +0.000 A 
ENDBRANCH  15  16
BRANCH  15  23
ATOM     23  C   UNL     1      -5.957  -2.668 128.880  0.00  0.00    +0.000 A 
ATOM     24  C   UNL     1      -6.748  -3.382 129.794  0.00  0.00    +0.000 A 
ATOM     25  C   UNL     1      -6.144  -4.257 130.695  0.00  0.00    +0.000 A 
ATOM     26  C   UNL     1      -4.765  -4.472 130.644  0.00  0.00    +0.000 A 
ATOM     27  C   UNL     1      -3.983  -3.813 129.698  0.00  0.00    +0.000 A 
ATOM     28  C   UNL     1      -4.578  -2.935 128.805  0.00  0.00    +0.000 A 
ENDBRANCH  15  23
ENDBRANCH   4  15
TORSDOF 9
ENDMDL
MODEL 6
REMARK VINA RESULT:      -6.6      4.213      5.807
REMARK  Name = Cetirizine
REMARK  9 active torsions:
REMARK  status: ('A' for Active; 'I' for Inactive)
REMARK    1  A    between atoms: O_1  and  C_2
REMARK    2  A    between atoms: C_2  and  C_4
REMARK    3  A    between atoms: C_4  and  O_5
REMARK    4  A    between atoms: O_5  and  C_6
REMARK    5  A    between atoms: C_6  and  C_7
REMARK    6  A    between atoms: C_7  and  N_8
REMARK    7  A    between atoms: N_11  and  C_14
REMARK    8  A    between atoms: C_14  and  C_15
REMARK    9  A    between atoms: C_14  and  C_21
REMARK                            x       y       z     vdW  Elec       q    Type
REMARK                         _______ _______ _______ _____ _____    ______ ____
ROOT
ATOM      1  N   UNL     1      -5.893   2.198 128.577  0.00  0.00    +0.000 NA
ATOM      2  C   UNL     1      -5.342   1.137 129.416  0.00  0.00    +0.000 C 
ATOM      3  C   UNL     1      -6.397   0.244 130.093  0.00  0.00    +0.000 C 
ATOM      4  N   UNL     1      -7.360  -0.346 129.127  0.00  0.00    +0.000 NA
ATOM      5  C   UNL     1      -8.036   0.826 128.522  0.00  0.00    +0.000 C 
ATOM      6  C   UNL     1      -7.057   1.796 127.787  0.00  0.00    +0.000 C 
ENDROOT
BRANCH   1   7
ATOM      7  C   UNL     1      -5.744   3.518 129.165  0.00  0.00    +0.000 C 
BRANCH   7   8
ATOM      8  C   UNL     1      -4.369   4.191 129.145  0.00  0.00    +0.000 C 
BRANCH   8   9
ATOM      9  O   UNL     1      -3.992   4.368 127.776  0.00  0.00    +0.000 OA
BRANCH   9  10
ATOM     10  C   UNL     1      -2.591   4.254 127.556  0.00  0.00    +0.000 C 
BRANCH  10  11
ATOM     11  C   UNL     1      -2.245   2.954 126.828  0.00  0.00    +0.000 C 
ATOM     12  O   UNL     1      -1.116   2.625 126.469  0.00  0.00    +0.000 OA
BRANCH  11  13
ATOM     13  O   UNL     1      -3.311   2.151 126.594  0.00  0.00    +0.000 OA
ATOM     14  H   UNL     1      -4.113   2.590 126.256  0.00  0.00    +0.000 HD
ENDBRANCH  11  13
ENDBRANCH  10  11
ENDBRANCH   9  10
ENDBRANCH   8   9
ENDBRANCH   7   8
ENDBRANCH   1   7
BRANCH   4  15
ATOM     15  C   UNL     1      -6.621  -1.222 128.148  0.00  0.00    +0.000 C 
BRANCH  15  16
ATOM     16  C   UNL     1      -7.426  -1.687 126.911  0.00  0.00    +0.000 A 
ATOM     17  C   UNL     1      -8.565  -2.506 127.014  0.00  0.00    +0.000 A 
ATOM     18  C   UNL     1      -9.176  -3.049 125.883  0.00  0.00    +0.000 A 
ATOM     19  C   UNL     1      -8.735  -2.687 124.618  0.00  0.00    +0.000 A 
ATOM     20 CL   UNL     1      -9.544  -3.266 123.222  0.00  0.00    +0.000 Cl
ATOM     21  C   UNL     1      -7.627  -1.873 124.476  0.00  0.00    +0.000 A 
ATOM     22  C   UNL     1      -6.949  -1.451 125.611  0.00  0.00    +0.000 A 
ENDBRANCH  15  16
BRANCH  15  23
ATOM     23  C   UNL     1      -5.991  -2.410 128.896  0.00  0.00    +0.000 A 
ATOM     24  C   UNL     1      -6.730  -3.190 129.800  0.00  0.00    +0.000 A 
ATOM     25  C   UNL     1      -6.081  -4.140 130.586  0.00  0.00    +0.000 A 
ATOM     26  C   UNL     1      -4.712  -4.361 130.428  0.00  0.00    +0.000 A 
ATOM     27  C   UNL     1      -3.983  -3.635 129.488  0.00  0.00    +0.000 A 
ATOM     28  C   UNL     1      -4.623  -2.682 128.709  0.00  0.00    +0.000 A 
ENDBRANCH  15  23
ENDBRANCH   4  15
TORSDOF 9
ENDMDL
MODEL 7
REMARK VINA RESULT:      -6.6      5.759      8.024
REMARK  Name = Cetirizine
REMARK  9 active torsions:
REMARK  status: ('A' for Active; 'I' for Inactive)
REMARK    1  A    between atoms: O_1  and  C_2
REMARK    2  A    between atoms: C_2  and  C_4
REMARK    3  A    between atoms: C_4  and  O_5
REMARK    4  A    between atoms: O_5  and  C_6
REMARK    5  A    between atoms: C_6  and  C_7
REMARK    6  A    between atoms: C_7  and  N_8
REMARK    7  A    between atoms: N_11  and  C_14
REMARK    8  A    between atoms: C_14  and  C_15
REMARK    9  A    between atoms: C_14  and  C_21
REMARK                            x       y       z     vdW  Elec       q    Type
REMARK                         _______ _______ _______ _____ _____    ______ ____
ROOT
ATOM      1  N   UNL     1      -8.023   2.027 128.683  0.00  0.00    +0.000 NA
ATOM      2  C   UNL     1      -8.435   1.447 127.408  0.00  0.00    +0.000 C 
ATOM      3  C   UNL     1      -7.284   0.862 126.569  0.00  0.00    +0.000 C 
ATOM      4  N   UNL     1      -6.469  -0.131 127.318  0.00  0.00    +0.000 NA
ATOM      5  C   UNL     1      -5.900   0.642 128.449  0.00  0.00    +0.000 C 
ATOM      6  C   UNL     1      -6.984   1.268 129.382  0.00  0.00    +0.000 C 
ENDROOT
BRANCH   1   7
ATOM      7  C   UNL     1      -8.094   3.477 128.693  0.00  0.00    +0.000 C 
BRANCH   7   8
ATOM      8  C   UNL     1      -8.980   4.172 129.731  0.00  0.00    +0.000 C 
BRANCH   8   9
ATOM      9  O   UNL     1      -9.559   5.322 129.108  0.00  0.00    +0.000 OA
BRANCH   9  10
ATOM     10  C   UNL     1     -10.143   6.233 130.031  0.00  0.00    +0.000 C 
BRANCH  10  11
ATOM     11  C   UNL     1     -11.645   5.984 130.185  0.00  0.00    +0.000 C 
ATOM     12  O   UNL     1     -12.433   5.823 129.254  0.00  0.00    +0.000 OA
BRANCH  11  13
ATOM     13  O   UNL     1     -12.072   5.949 131.470  0.00  0.00    +0.000 OA
ATOM     14  H   UNL     1     -12.446   6.779 131.820  0.00  0.00    +0.000 HD
ENDBRANCH  11  13
ENDBRANCH  10  11
ENDBRANCH   9  10
ENDBRANCH   8   9
ENDBRANCH   7   8
ENDBRANCH   1   7
BRANCH   4  15
ATOM     15  C   UNL     1      -7.338  -1.293 127.724  0.00  0.00    +0.000 C 
BRANCH  15  16
ATOM     16  C   UNL     1      -6.805  -2.166 128.886  0.00  0.00    +0.000 A 
ATOM     17  C   UNL     1      -5.534  -2.768 128.858  0.00  0.00    +0.000 A 
ATOM     18  C   UNL     1      -5.139  -3.682 129.835  0.00  0.00    +0.000 A 
ATOM     19  C   UNL     1      -5.960  -3.924 130.928  0.00  0.00    +0.000 A 
ATOM     20 CL   UNL     1      -5.440  -4.965 132.185  0.00  0.00    +0.000 Cl
ATOM     21  C   UNL     1      -7.211  -3.342 130.997  0.00  0.00    +0.000 A 
ATOM     22  C   UNL     1      -7.643  -2.540 129.950  0.00  0.00    +0.000 A 
ENDBRANCH  15  16
BRANCH  15  23
ATOM     23  C   UNL     1      -7.675  -2.140 126.485  0.00  0.00    +0.000 A 
ATOM     24  C   UNL     1      -6.689  -2.521 125.560  0.00  0.00    +0.000 A 
ATOM     25  C   UNL     1      -7.061  -3.132 124.365  0.00  0.00    +0.000 A 
ATOM     26  C   UNL     1      -8.404  -3.426 124.117  0.00  0.00    +0.000 A 
ATOM     27  C   UNL     1      -9.381  -3.108 125.058  0.00  0.00    +0.000 A 
ATOM     28  C   UNL     1      -9.016  -2.491 126.246  0.00  0.00    +0.000 A 
ENDBRANCH  15  23
ENDBRANCH   4  15
TORSDOF 9
ENDMDL
MODEL 8
REMARK VINA RESULT:      -6.4      4.392      6.130
REMARK  Name = Cetirizine
REMARK  9 active torsions:
REMARK  status: ('A' for Active; 'I' for Inactive)
REMARK    1  A    between atoms: O_1  and  C_2
REMARK    2  A    between atoms: C_2  and  C_4
REMARK    3  A    between atoms: C_4  and  O_5
REMARK    4  A    between atoms: O_5  and  C_6
REMARK    5  A    between atoms: C_6  and  C_7
REMARK    6  A    between atoms: C_7  and  N_8
REMARK    7  A    between atoms: N_11  and  C_14
REMARK    8  A    between atoms: C_14  and  C_15
REMARK    9  A    between atoms: C_14  and  C_21
REMARK                            x       y       z     vdW  Elec       q    Type
REMARK                         _______ _______ _______ _____ _____    ______ ____
ROOT
ATOM      1  N   UNL     1      -5.732   1.935 128.187  0.00  0.00    +0.000 NA
ATOM      2  C   UNL     1      -5.251   0.920 129.120  0.00  0.00    +0.000 C 
ATOM      3  C   UNL     1      -6.362   0.101 129.802  0.00  0.00    +0.000 C 
ATOM      4  N   UNL     1      -7.295  -0.529 128.832  0.00  0.00    +0.000 NA
ATOM      5  C   UNL     1      -7.909   0.617 128.119  0.00  0.00    +0.000 C 
ATOM      6  C   UNL     1      -6.870   1.511 127.370  0.00  0.00    +0.000 C 
ENDROOT
BRANCH   1   7
ATOM      7  C   UNL     1      -5.574   3.288 128.693  0.00  0.00    +0.000 C 
BRANCH   7   8
ATOM      8  C   UNL     1      -4.865   3.503 130.033  0.00  0.00    +0.000 C 
BRANCH   8   9
ATOM      9  O   UNL     1      -4.141   4.734 129.949  0.00  0.00    +0.000 OA
BRANCH   9  10
ATOM     10  C   UNL     1      -3.145   4.737 128.934  0.00  0.00    +0.000 C 
BRANCH  10  11
ATOM     11  C   UNL     1      -3.155   6.049 128.147  0.00  0.00    +0.000 C 
ATOM     12  O   UNL     1      -4.154   6.569 127.654  0.00  0.00    +0.000 OA
BRANCH  11  13
ATOM     13  O   UNL     1      -1.937   6.629 128.023  0.00  0.00    +0.000 OA
ATOM     14  H   UNL     1      -1.666   6.869 127.118  0.00  0.00    +0.000 HD
ENDBRANCH  11  13
ENDBRANCH  10  11
ENDBRANCH   9  10
ENDBRANCH   8   9
ENDBRANCH   7   8
ENDBRANCH   1   7
BRANCH   4  15
ATOM     15  C   UNL     1      -6.537  -1.487 127.950  0.00  0.00    +0.000 C 
BRANCH  15  16
ATOM     16  C   UNL     1      -7.314  -2.055 126.738  0.00  0.00    +0.000 A 
ATOM     17  C   UNL     1      -6.849  -1.933 125.416  0.00  0.00    +0.000 A 
ATOM     18  C   UNL     1      -7.640  -2.302 124.329  0.00  0.00    +0.000 A 
ATOM     19  C   UNL     1      -8.867  -2.915 124.542  0.00  0.00    +0.000 A 
ATOM     20 CL   UNL     1      -9.801  -3.467 123.216  0.00  0.00    +0.000 Cl
ATOM     21  C   UNL     1      -9.353  -3.065 125.827  0.00  0.00    +0.000 A 
ATOM     22  C   UNL     1      -8.612  -2.569 126.892  0.00  0.00    +0.000 A 
ENDBRANCH  15  16
BRANCH  15  23
ATOM     23  C   UNL     1      -5.928  -2.607 128.811  0.00  0.00    +0.000 A 
ATOM     24  C   UNL     1      -6.710  -3.363 129.699  0.00  0.00    +0.000 A 
ATOM     25  C   UNL     1      -6.094  -4.242 130.587  0.00  0.00    +0.000 A 
ATOM     26  C   UNL     1      -4.709  -4.420 130.547  0.00  0.00    +0.000 A 
ATOM     27  C   UNL     1      -3.934  -3.720 129.625  0.00  0.00    +0.000 A 
ATOM     28  C   UNL     1      -4.542  -2.837 128.745  0.00  0.00    +0.000 A 
ENDBRANCH  15  23
ENDBRANCH   4  15
TORSDOF 9
ENDMDL
MODEL 9
REMARK VINA RESULT:      -6.4      5.712      7.880
REMARK  Name = Cetirizine
REMARK  9 active torsions:
REMARK  status: ('A' for Active; 'I' for Inactive)
REMARK    1  A    between atoms: O_1  and  C_2
REMARK    2  A    between atoms: C_2  and  C_4
REMARK    3  A    between atoms: C_4  and  O_5
REMARK    4  A    between atoms: O_5  and  C_6
REMARK    5  A    between atoms: C_6  and  C_7
REMARK    6  A    between atoms: C_7  and  N_8
REMARK    7  A    between atoms: N_11  and  C_14
REMARK    8  A    between atoms: C_14  and  C_15
REMARK    9  A    between atoms: C_14  and  C_21
REMARK                            x       y       z     vdW  Elec       q    Type
REMARK                         _______ _______ _______ _____ _____    ______ ____
ROOT
ATOM      1  N   UNL     1      -8.152   1.916 128.598  0.00  0.00    +0.000 NA
ATOM      2  C   UNL     1      -8.449   1.345 127.287  0.00  0.00    +0.000 C 
ATOM      3  C   UNL     1      -7.232   0.738 126.564  0.00  0.00    +0.000 C 
ATOM      4  N   UNL     1      -6.515  -0.271 127.387  0.00  0.00    +0.000 NA
ATOM      5  C   UNL     1      -6.044   0.489 128.570  0.00  0.00    +0.000 C 
ATOM      6  C   UNL     1      -7.202   1.136 129.393  0.00  0.00    +0.000 C 
ENDROOT
BRANCH   1   7
ATOM      7  C   UNL     1      -8.195   3.368 128.605  0.00  0.00    +0.000 C 
BRANCH   7   8
ATOM      8  C   UNL     1      -8.168   4.107 129.945  0.00  0.00    +0.000 C 
BRANCH   8   9
ATOM      9  O   UNL     1      -9.293   3.662 130.710  0.00  0.00    +0.000 OA
BRANCH   9  10
ATOM     10  C   UNL     1     -10.214   4.700 131.018  0.00  0.00    +0.000 C 
BRANCH  10  11
ATOM     11  C   UNL     1      -9.855   5.390 132.336  0.00  0.00    +0.000 C 
ATOM     12  O   UNL     1      -9.392   6.525 132.435  0.00  0.00    +0.000 OA
BRANCH  11  13
ATOM     13  O   UNL     1     -10.091   4.637 133.437  0.00  0.00    +0.000 OA
ATOM     14  H   UNL     1     -10.421   3.734 133.276  0.00  0.00    +0.000 HD
ENDBRANCH  11  13
ENDBRANCH  10  11
ENDBRANCH   9  10
ENDBRANCH   8   9
ENDBRANCH   7   8
ENDBRANCH   1   7
BRANCH   4  15
ATOM     15  C   UNL     1      -7.442  -1.417 127.703  0.00  0.00    +0.000 C 
BRANCH  15  16
ATOM     16  C   UNL     1      -7.005  -2.345 128.863  0.00  0.00    +0.000 A 
ATOM     17  C   UNL     1      -7.789  -2.535 130.015  0.00  0.00    +0.000 A 
ATOM     18  C   UNL     1      -7.304  -3.240 131.116  0.00  0.00    +0.000 A 
ATOM     19  C   UNL     1      -6.071  -3.874 131.044  0.00  0.00    +0.000 A 
ATOM     20 CL   UNL     1      -5.512  -4.829 132.353  0.00  0.00    +0.000 Cl
ATOM     21  C   UNL     1      -5.277  -3.721 129.923  0.00  0.00    +0.000 A 
ATOM     22  C   UNL     1      -5.717  -2.905 128.890  0.00  0.00    +0.000 A 
ENDBRANCH  15  16
BRANCH  15  23
ATOM     23  C   UNL     1      -7.734  -2.211 126.418  0.00  0.00    +0.000 A 
ATOM     24  C   UNL     1      -6.715  -2.557 125.516  0.00  0.00    +0.000 A 
ATOM     25  C   UNL     1      -7.043  -3.117 124.283  0.00  0.00    +0.000 A 
ATOM     26  C   UNL     1      -8.376  -3.396 123.974  0.00  0.00    +0.000 A 
ATOM     27  C   UNL     1      -9.387  -3.114 124.891  0.00  0.00    +0.000 A 
ATOM     28  C   UNL     1      -9.066  -2.548 126.116  0.00  0.00    +0.000 A 
ENDBRANCH  15  23
ENDBRANCH   4  15
TORSDOF 9
ENDMDL
