MODEL 1
REMARK VINA RESULT:      -5.8      0.000      0.000
REMARK  Name = Cevimeline
REMARK  1 active torsions:
REMARK  status: ('A' for Active; 'I' for Inactive)
REMARK    1  A    between atoms: C_1  and  C_2
REMARK                            x       y       z     vdW  Elec       q    Type
REMARK                         _______ _______ _______ _____ _____    ______ ____
ROOT
ATOM      1  C   UNL     1      -9.751   3.490 131.523  0.00  0.00    +0.000 C 
ATOM      2  C   UNL     1      -9.907   4.760 130.681  0.00  0.00    +0.000 C 
ATOM      3  O   UNL     1     -11.087   4.826 129.777  0.00  0.00    +0.000 OA
ATOM      4  C   UNL     1     -11.434   6.245 129.549  0.00  0.00    +0.000 C 
ATOM      5  C   UNL     1     -11.338   6.791 131.015  0.00  0.00    +0.000 C 
ATOM      6  S   UNL     1     -10.071   6.007 131.941  0.00  0.00    +0.000 S 
ATOM      7  C   UNL     1     -10.581   6.735 128.309  0.00  0.00    +0.000 C 
ATOM      8  N   UNL     1     -11.217   7.905 127.637  0.00  0.00    +0.000 NA
ATOM      9  C   UNL     1     -12.486   7.433 126.910  0.00  0.00    +0.000 C 
ATOM     10  C   UNL     1     -13.547   6.783 127.833  0.00  0.00    +0.000 C 
ATOM     11  C   UNL     1     -12.947   6.834 129.204  0.00  0.00    +0.000 C 
ATOM     12  C   UNL     1     -12.907   8.525 129.253  0.00  0.00    +0.000 C 
ATOM     13  C   UNL     1     -11.460   8.839 128.776  0.00  0.00    +0.000 C 
ENDROOT
TORSDOF 0
ENDMDL
MODEL 2
REMARK VINA RESULT:      -5.6      1.606      2.127
REMARK  Name = Cevimeline
REMARK  1 active torsions:
REMARK  status: ('A' for Active; 'I' for Inactive)
REMARK    1  A    between atoms: C_1  and  C_2
REMARK                            x       y       z     vdW  Elec       q    Type
REMARK                         _______ _______ _______ _____ _____    ______ ____
ROOT
ATOM      1  C   UNL     1      -9.414   5.796 133.219  0.00  0.00    +0.000 C 
ATOM      2  C   UNL     1      -9.968   5.808 131.791  0.00  0.00    +0.000 C 
ATOM      3  O   UNL     1     -11.062   6.774 131.503  0.00  0.00    +0.000 OA
ATOM      4  C   UNL     1     -11.038   7.106 130.062  0.00  0.00    +0.000 C 
ATOM      5  C   UNL     1      -9.501   7.335 129.858  0.00  0.00    +0.000 C 
ATOM      6  S   UNL     1      -8.526   6.268 130.852  0.00  0.00    +0.000 S 
ATOM      7  C   UNL     1     -11.931   6.026 129.326  0.00  0.00    +0.000 C 
ATOM      8  N   UNL     1     -12.446   6.540 128.024  0.00  0.00    +0.000 NA
ATOM      9  C   UNL     1     -13.510   7.615 128.298  0.00  0.00    +0.000 C 
ATOM     10  C   UNL     1     -12.999   8.827 129.116  0.00  0.00    +0.000 C 
ATOM     11  C   UNL     1     -11.555   8.529 129.383  0.00  0.00    +0.000 C 
ATOM     12  C   UNL     1     -11.126   8.548 127.746  0.00  0.00    +0.000 C 
ATOM     13  C   UNL     1     -11.207   7.043 127.362  0.00  0.00    +0.000 C 
ENDROOT
TORSDOF 0
ENDMDL
MODEL 3
REMARK VINA RESULT:      -5.3      2.231      4.556
REMARK  Name = Cevimeline
REMARK  1 active torsions:
REMARK  status: ('A' for Active; 'I' for Inactive)
REMARK    1  A    between atoms: C_1  and  C_2
REMARK                            x       y       z     vdW  Elec       q    Type
REMARK                         _______ _______ _______ _____ _____    ______ ____
ROOT
ATOM      1  C   UNL     1     -13.850   7.200 127.729  0.00  0.00    +0.000 C 
ATOM      2  C   UNL     1     -12.729   7.268 128.771  0.00  0.00    +0.000 C 
ATOM      3  O   UNL     1     -12.263   5.975 129.342  0.00  0.00    +0.000 OA
ATOM      4  C   UNL     1     -10.863   6.129 129.791  0.00  0.00    +0.000 C 
ATOM      5  C   UNL     1     -10.260   6.887 128.558  0.00  0.00    +0.000 C 
ATOM      6  S   UNL     1     -11.406   7.995 127.826  0.00  0.00    +0.000 S 
ATOM      7  C   UNL     1     -10.912   6.657 131.283  0.00  0.00    +0.000 C 
ATOM      8  N   UNL     1      -9.661   6.324 132.021  0.00  0.00    +0.000 NA
ATOM      9  C   UNL     1      -9.623   4.809 132.281  0.00  0.00    +0.000 C 
ATOM     10  C   UNL     1      -9.661   3.939 131.000  0.00  0.00    +0.000 C 
ATOM     11  C   UNL     1      -9.728   4.920 129.871  0.00  0.00    +0.000 C 
ATOM     12  C   UNL     1      -8.218   5.603 130.218  0.00  0.00    +0.000 C 
ATOM     13  C   UNL     1      -8.599   6.826 131.100  0.00  0.00    +0.000 C 
ENDROOT
TORSDOF 0
ENDMDL
MODEL 4
REMARK VINA RESULT:      -5.2      9.130     10.612
REMARK  Name = Cevimeline
REMARK  1 active torsions:
REMARK  status: ('A' for Active; 'I' for Inactive)
REMARK    1  A    between atoms: C_1  and  C_2
REMARK                            x       y       z     vdW  Elec       q    Type
REMARK                         _______ _______ _______ _____ _____    ______ ____
ROOT
ATOM      1  C   UNL     1      -8.937   2.725 122.400  0.00  0.00    +0.000 C 
ATOM      2  C   UNL     1      -8.634   1.636 123.434  0.00  0.00    +0.000 C 
ATOM      3  O   UNL     1      -9.292   0.317 123.233  0.00  0.00    +0.000 OA
ATOM      4  C   UNL     1      -8.463  -0.731 123.867  0.00  0.00    +0.000 C 
ATOM      5  C   UNL     1      -7.043  -0.300 123.364  0.00  0.00    +0.000 C 
ATOM      6  S   UNL     1      -6.874   1.442 123.242  0.00  0.00    +0.000 S 
ATOM      7  C   UNL     1      -8.931  -0.839 125.375  0.00  0.00    +0.000 C 
ATOM      8  N   UNL     1      -8.609  -2.175 125.952  0.00  0.00    +0.000 NA
ATOM      9  C   UNL     1      -9.531  -3.228 125.317  0.00  0.00    +0.000 C 
ATOM     10  C   UNL     1      -9.411  -3.337 123.777  0.00  0.00    +0.000 C 
ATOM     11  C   UNL     1      -8.379  -2.321 123.398  0.00  0.00    +0.000 C 
ATOM     12  C   UNL     1      -7.139  -3.086 124.260  0.00  0.00    +0.000 C 
ATOM     13  C   UNL     1      -7.162  -2.330 125.620  0.00  0.00    +0.000 C 
ENDROOT
TORSDOF 0
ENDMDL
MODEL 5
REMARK VINA RESULT:      -5.1      2.683      4.943
REMARK  Name = Cevimeline
REMARK  1 active torsions:
REMARK  status: ('A' for Active; 'I' for Inactive)
REMARK    1  A    between atoms: C_1  and  C_2
REMARK                            x       y       z     vdW  Elec       q    Type
REMARK                         _______ _______ _______ _____ _____    ______ ____
ROOT
ATOM      1  C   UNL     1     -11.834   8.323 127.722  0.00  0.00    +0.000 C 
ATOM      2  C   UNL     1     -11.153   7.163 128.455  0.00  0.00    +0.000 C 
ATOM      3  O   UNL     1      -9.746   7.375 128.888  0.00  0.00    +0.000 OA
ATOM      4  C   UNL     1      -9.469   6.509 130.055  0.00  0.00    +0.000 C 
ATOM      5  C   UNL     1     -10.764   6.765 130.900  0.00  0.00    +0.000 C 
ATOM      6  S   UNL     1     -12.185   6.998 129.898  0.00  0.00    +0.000 S 
ATOM      7  C   UNL     1      -8.980   5.114 129.487  0.00  0.00    +0.000 C 
ATOM      8  N   UNL     1      -8.157   4.377 130.488  0.00  0.00    +0.000 NA
ATOM      9  C   UNL     1      -6.802   5.086 130.639  0.00  0.00    +0.000 C 
ATOM     10  C   UNL     1      -6.900   6.561 131.103  0.00  0.00    +0.000 C 
ATOM     11  C   UNL     1      -8.367   6.819 131.257  0.00  0.00    +0.000 C 
ATOM     12  C   UNL     1      -8.560   5.675 132.490  0.00  0.00    +0.000 C 
ATOM     13  C   UNL     1      -9.020   4.413 131.706  0.00  0.00    +0.000 C 
ENDROOT
TORSDOF 0
ENDMDL
MODEL 6
REMARK VINA RESULT:      -5.0      9.676     10.733
REMARK  Name = Cevimeline
REMARK  1 active torsions:
REMARK  status: ('A' for Active; 'I' for Inactive)
REMARK    1  A    between atoms: C_1  and  C_2
REMARK                            x       y       z     vdW  Elec       q    Type
REMARK                         _______ _______ _______ _____ _____    ______ ____
ROOT
ATOM      1  C   UNL     1      -6.783  -3.285 129.388  0.00  0.00    +0.000 C 
ATOM      2  C   UNL     1      -7.377  -2.606 128.150  0.00  0.00    +0.000 C 
ATOM      3  O   UNL     1      -6.507  -2.526 126.945  0.00  0.00    +0.000 OA
ATOM      4  C   UNL     1      -7.364  -2.453 125.743  0.00  0.00    +0.000 C 
ATOM      5  C   UNL     1      -8.408  -3.572 126.080  0.00  0.00    +0.000 C 
ATOM      6  S   UNL     1      -8.766  -3.663 127.795  0.00  0.00    +0.000 S 
ATOM      7  C   UNL     1      -7.679  -0.921 125.494  0.00  0.00    +0.000 C 
ATOM      8  N   UNL     1      -8.028  -0.660 124.068  0.00  0.00    +0.000 NA
ATOM      9  C   UNL     1      -6.762  -0.809 123.210  0.00  0.00    +0.000 C 
ATOM     10  C   UNL     1      -6.098  -2.206 123.286  0.00  0.00    +0.000 C 
ATOM     11  C   UNL     1      -6.960  -2.991 124.225  0.00  0.00    +0.000 C 
ATOM     12  C   UNL     1      -8.326  -2.910 123.229  0.00  0.00    +0.000 C 
ATOM     13  C   UNL     1      -9.086  -1.680 123.803  0.00  0.00    +0.000 C 
ENDROOT
TORSDOF 0
ENDMDL
MODEL 7
REMARK VINA RESULT:      -4.9      8.119      9.247
REMARK  Name = Cevimeline
REMARK  1 active torsions:
REMARK  status: ('A' for Active; 'I' for Inactive)
REMARK    1  A    between atoms: C_1  and  C_2
REMARK                            x       y       z     vdW  Elec       q    Type
REMARK                         _______ _______ _______ _____ _____    ______ ____
ROOT
ATOM      1  C   UNL     1      -4.765   4.487 121.656  0.00  0.00    +0.000 C 
ATOM      2  C   UNL     1      -6.048   3.962 122.306  0.00  0.00    +0.000 C 
ATOM      3  O   UNL     1      -6.347   2.514 122.130  0.00  0.00    +0.000 OA
ATOM      4  C   UNL     1      -7.182   2.059 123.262  0.00  0.00    +0.000 C 
ATOM      5  C   UNL     1      -6.414   2.723 124.455  0.00  0.00    +0.000 C 
ATOM      6  S   UNL     1      -5.732   4.282 124.030  0.00  0.00    +0.000 S 
ATOM      7  C   UNL     1      -8.690   2.318 122.856  0.00  0.00    +0.000 C 
ATOM      8  N   UNL     1      -9.619   1.426 123.608  0.00  0.00    +0.000 NA
ATOM      9  C   UNL     1      -9.454  -0.012 123.094  0.00  0.00    +0.000 C 
ATOM     10  C   UNL     1      -8.023  -0.586 123.244  0.00  0.00    +0.000 C 
ATOM     11  C   UNL     1      -7.231   0.517 123.876  0.00  0.00    +0.000 C 
ATOM     12  C   UNL     1      -8.146   0.519 125.300  0.00  0.00    +0.000 C 
ATOM     13  C   UNL     1      -9.193   1.636 125.023  0.00  0.00    +0.000 C 
ENDROOT
TORSDOF 0
ENDMDL
MODEL 8
REMARK VINA RESULT:      -4.8      8.686      9.389
REMARK  Name = Cevimeline
REMARK  1 active torsions:
REMARK  status: ('A' for Active; 'I' for Inactive)
REMARK    1  A    between atoms: C_1  and  C_2
REMARK                            x       y       z     vdW  Elec       q    Type
REMARK                         _______ _______ _______ _____ _____    ______ ____
ROOT
ATOM      1  C   UNL     1      -5.209  -3.164 123.610  0.00  0.00    +0.000 C 
ATOM      2  C   UNL     1      -5.775  -1.779 123.932  0.00  0.00    +0.000 C 
ATOM      3  O   UNL     1      -6.933  -1.319 123.118  0.00  0.00    +0.000 OA
ATOM      4  C   UNL     1      -7.717  -0.347 123.909  0.00  0.00    +0.000 C 
ATOM      5  C   UNL     1      -7.771  -1.093 125.286  0.00  0.00    +0.000 C 
ATOM      6  S   UNL     1      -6.303  -1.993 125.620  0.00  0.00    +0.000 S 
ATOM      7  C   UNL     1      -7.087   1.081 123.639  0.00  0.00    +0.000 C 
ATOM      8  N   UNL     1      -8.075   2.169 123.893  0.00  0.00    +0.000 NA
ATOM      9  C   UNL     1      -9.142   2.141 122.788  0.00  0.00    +0.000 C 
ATOM     10  C   UNL     1      -9.924   0.808 122.686  0.00  0.00    +0.000 C 
ATOM     11  C   UNL     1      -9.345  -0.060 123.760  0.00  0.00    +0.000 C 
ATOM     12  C   UNL     1      -9.843   0.959 125.017  0.00  0.00    +0.000 C 
ATOM     13  C   UNL     1      -8.580   1.835 125.257  0.00  0.00    +0.000 C 
ENDROOT
TORSDOF 0
ENDMDL
MODEL 9
REMARK VINA RESULT:      -4.8      3.189      6.025
REMARK  Name = Cevimeline
REMARK  1 active torsions:
REMARK  status: ('A' for Active; 'I' for Inactive)
REMARK    1  A    between atoms: C_1  and  C_2
REMARK                            x       y       z     vdW  Elec       q    Type
REMARK                         _______ _______ _______ _____ _____    ______ ____
ROOT
ATOM      1  C   UNL     1     -12.460   7.145 131.144  0.00  0.00    +0.000 C 
ATOM      2  C   UNL     1     -11.023   6.624 131.234  0.00  0.00    +0.000 C 
ATOM      3  O   UNL     1     -10.489   6.357 132.597  0.00  0.00    +0.000 OA
ATOM      4  C   UNL     1      -9.433   5.327 132.503  0.00  0.00    +0.000 C 
ATOM      5  C   UNL     1     -10.133   4.301 131.548  0.00  0.00    +0.000 C 
ATOM      6  S   UNL     1     -11.145   5.083 130.348  0.00  0.00    +0.000 S 
ATOM      7  C   UNL     1      -8.071   6.088 132.227  0.00  0.00    +0.000 C 
ATOM      8  N   UNL     1      -6.897   5.279 132.662  0.00  0.00    +0.000 NA
ATOM      9  C   UNL     1      -6.863   5.234 134.197  0.00  0.00    +0.000 C 
ATOM     10  C   UNL     1      -8.127   4.618 134.847  0.00  0.00    +0.000 C 
ATOM     11  C   UNL     1      -9.012   4.252 133.696  0.00  0.00    +0.000 C 
ATOM     12  C   UNL     1      -7.921   3.124 133.062  0.00  0.00    +0.000 C 
ATOM     13  C   UNL     1      -7.149   3.963 132.004  0.00  0.00    +0.000 C 
ENDROOT
TORSDOF 0
ENDMDL
