MODEL 1
REMARK VINA RESULT:      -9.4      0.000      0.000
REMARK  Name = Chenodeoxycholic acid
REMARK  10 active torsions:
REMARK  status: ('A' for Active; 'I' for Inactive)
REMARK    1  A    between atoms: C_2  and  C_27
REMARK    2  A    between atoms: C_9  and  O_10
REMARK    3  A    between atoms: C_15  and  O_16
REMARK    4  A    between atoms: C_19  and  C_20
REMARK    5  A    between atoms: C_25  and  C_26
REMARK    6  A    between atoms: C_27  and  C_28
REMARK    7  A    between atoms: C_27  and  C_29
REMARK    8  A    between atoms: C_29  and  C_30
REMARK    9  A    between atoms: C_30  and  C_31
REMARK   10  A    between atoms: C_31  and  O_32
REMARK                            x       y       z     vdW  Elec       q    Type
REMARK                         _______ _______ _______ _____ _____    ______ ____
ROOT
ATOM      1  C   UNL     1     -10.926   5.363 131.078  0.00  0.00    +0.000 C 
ATOM      2  C   UNL     1     -10.393   6.088 132.226  0.00  0.00    +0.000 C 
ATOM      3  C   UNL     1      -8.995   6.047 131.650  0.00  0.00    +0.000 C 
ATOM      4  C   UNL     1      -8.477   4.989 132.484  0.00  0.00    +0.000 C 
ATOM      5  C   UNL     1      -6.961   4.788 132.358  0.00  0.00    +0.000 C 
ATOM      6  C   UNL     1      -6.422   6.210 132.514  0.00  0.00    +0.000 C 
ATOM      7  C   UNL     1      -4.991   6.157 132.463  0.00  0.00    +0.000 C 
ATOM      8  C   UNL     1      -4.481   5.384 133.650  0.00  0.00    +0.000 C 
ATOM      9  C   UNL     1      -3.097   5.483 133.423  0.00  0.00    +0.000 C 
ATOM     10  C   UNL     1      -1.977   6.185 132.915  0.00  0.00    +0.000 C 
ATOM     11  C   UNL     1      -1.599   4.580 132.472  0.00  0.00    +0.000 C 
ATOM     12  C   UNL     1      -3.184   3.421 132.386  0.00  0.00    +0.000 C 
ATOM     13  C   UNL     1      -4.624   3.826 133.506  0.00  0.00    +0.000 C 
ATOM     14  C   UNL     1      -4.252   3.016 134.786  0.00  0.00    +0.000 C 
ATOM     15  C   UNL     1      -6.308   3.866 133.433  0.00  0.00    +0.000 C 
ATOM     16  C   UNL     1      -7.229   2.663 133.466  0.00  0.00    +0.000 C 
ATOM     17  C   UNL     1      -8.907   3.172 133.515  0.00  0.00    +0.000 C 
ATOM     18  C   UNL     1      -9.605   4.002 131.971  0.00  0.00    +0.000 C 
ATOM     19  C   UNL     1      -9.883   2.480 131.630  0.00  0.00    +0.000 C 
ENDROOT
BRANCH   6  20
ATOM     20  O   UNL     1      -6.666   7.069 131.414  0.00  0.00    +0.000 OA
ATOM     21  H   UNL     1      -5.926   6.949 130.796  0.00  0.00    +0.000 HD
ENDBRANCH   6  20
BRANCH  10  22
ATOM     22  O   UNL     1      -2.289   7.074 131.854  0.00  0.00    +0.000 OA
ATOM     23  H   UNL     1      -2.650   7.903 132.213  0.00  0.00    +0.000 HD
ENDBRANCH  10  22
BRANCH   1  24
ATOM     24  C   UNL     1     -11.520   7.147 130.538  0.00  0.00    +0.000 C 
ATOM     25  C   UNL     1     -12.884   7.681 131.212  0.00  0.00    +0.000 C 
BRANCH  24  26
ATOM     26  C   UNL     1     -11.840   7.897 128.966  0.00  0.00    +0.000 C 
BRANCH  26  27
ATOM     27  C   UNL     1     -10.658   7.839 128.002  0.00  0.00    +0.000 C 
BRANCH  27  28
ATOM     28  C   UNL     1     -10.634   6.930 126.779  0.00  0.00    +0.000 C 
ATOM     29  O   UNL     1      -9.607   6.333 126.467  0.00  0.00    +0.000 OA
BRANCH  28  30
ATOM     30  O   UNL     1     -11.761   6.757 126.071  0.00  0.00    +0.000 OA
ATOM     31  H   UNL     1     -12.467   6.212 126.457  0.00  0.00    +0.000 HD
ENDBRANCH  28  30
ENDBRANCH  27  28
ENDBRANCH  26  27
ENDBRANCH  24  26
ENDBRANCH   1  24
TORSDOF 7
ENDMDL
MODEL 2
REMARK VINA RESULT:      -9.4      6.729      8.908
REMARK  Name = Chenodeoxycholic acid
REMARK  10 active torsions:
REMARK  status: ('A' for Active; 'I' for Inactive)
REMARK    1  A    between atoms: C_2  and  C_27
REMARK    2  A    between atoms: C_9  and  O_10
REMARK    3  A    between atoms: C_15  and  O_16
REMARK    4  A    between atoms: C_19  and  C_20
REMARK    5  A    between atoms: C_25  and  C_26
REMARK    6  A    between atoms: C_27  and  C_28
REMARK    7  A    between atoms: C_27  and  C_29
REMARK    8  A    between atoms: C_29  and  C_30
REMARK    9  A    between atoms: C_30  and  C_31
REMARK   10  A    between atoms: C_31  and  O_32
REMARK                            x       y       z     vdW  Elec       q    Type
REMARK                         _______ _______ _______ _____ _____    ______ ____
ROOT
ATOM      1  C   UNL     1      -6.753   1.126 122.818  0.00  0.00    +0.000 C 
ATOM      2  C   UNL     1      -7.931   1.336 123.652  0.00  0.00    +0.000 C 
ATOM      3  C   UNL     1      -7.160   0.964 124.900  0.00  0.00    +0.000 C 
ATOM      4  C   UNL     1      -7.685  -0.371 125.056  0.00  0.00    +0.000 C 
ATOM      5  C   UNL     1      -7.301  -1.036 126.385  0.00  0.00    +0.000 C 
ATOM      6  C   UNL     1      -7.654   0.043 127.409  0.00  0.00    +0.000 C 
ATOM      7  C   UNL     1      -7.385  -0.476 128.718  0.00  0.00    +0.000 C 
ATOM      8  C   UNL     1      -8.308  -1.632 128.993  0.00  0.00    +0.000 C 
ATOM      9  C   UNL     1      -7.905  -1.954 130.301  0.00  0.00    +0.000 C 
ATOM     10  C   UNL     1      -7.389  -1.571 131.563  0.00  0.00    +0.000 C 
ATOM     11  C   UNL     1      -6.587  -3.057 131.305  0.00  0.00    +0.000 C 
ATOM     12  C   UNL     1      -6.506  -3.559 129.406  0.00  0.00    +0.000 C 
ATOM     13  C   UNL     1      -7.882  -2.970 128.288  0.00  0.00    +0.000 C 
ATOM     14  C   UNL     1      -8.910  -4.136 128.428  0.00  0.00    +0.000 C 
ATOM     15  C   UNL     1      -8.066  -2.350 126.731  0.00  0.00    +0.000 C 
ATOM     16  C   UNL     1      -7.995  -3.144 125.443  0.00  0.00    +0.000 C 
ATOM     17  C   UNL     1      -8.388  -2.126 124.069  0.00  0.00    +0.000 C 
ATOM     18  C   UNL     1      -7.157  -0.770 123.616  0.00  0.00    +0.000 C 
ATOM     19  C   UNL     1      -6.567  -1.984 122.785  0.00  0.00    +0.000 C 
ENDROOT
BRANCH   6  20
ATOM     20  O   UNL     1      -6.793   1.167 127.419  0.00  0.00    +0.000 OA
ATOM     21  H   UNL     1      -5.911   0.847 127.166  0.00  0.00    +0.000 HD
ENDBRANCH   6  20
BRANCH  10  22
ATOM     22  O   UNL     1      -6.580  -0.405 131.522  0.00  0.00    +0.000 OA
ATOM     23  H   UNL     1      -6.849   0.207 132.229  0.00  0.00    +0.000 HD
ENDBRANCH  10  22
BRANCH   1  24
ATOM     24  C   UNL     1      -6.668   3.079 122.873  0.00  0.00    +0.000 C 
ATOM     25  C   UNL     1      -6.319   3.819 121.484  0.00  0.00    +0.000 C 
BRANCH  24  26
ATOM     26  C   UNL     1      -5.765   4.229 123.873  0.00  0.00    +0.000 C 
BRANCH  26  27
ATOM     27  C   UNL     1      -6.184   4.232 125.341  0.00  0.00    +0.000 C 
BRANCH  27  28
ATOM     28  C   UNL     1      -7.605   4.551 125.792  0.00  0.00    +0.000 C 
ATOM     29  O   UNL     1      -8.194   3.803 126.567  0.00  0.00    +0.000 OA
BRANCH  28  30
ATOM     30  O   UNL     1      -8.188   5.682 125.365  0.00  0.00    +0.000 OA
ATOM     31  H   UNL     1      -8.877   5.613 124.683  0.00  0.00    +0.000 HD
ENDBRANCH  28  30
ENDBRANCH  27  28
ENDBRANCH  26  27
ENDBRANCH  24  26
ENDBRANCH   1  24
TORSDOF 7
ENDMDL
MODEL 3
REMARK VINA RESULT:      -9.4      4.163      6.184
REMARK  Name = Chenodeoxycholic acid
REMARK  10 active torsions:
REMARK  status: ('A' for Active; 'I' for Inactive)
REMARK    1  A    between atoms: C_2  and  C_27
REMARK    2  A    between atoms: C_9  and  O_10
REMARK    3  A    between atoms: C_15  and  O_16
REMARK    4  A    between atoms: C_19  and  C_20
REMARK    5  A    between atoms: C_25  and  C_26
REMARK    6  A    between atoms: C_27  and  C_28
REMARK    7  A    between atoms: C_27  and  C_29
REMARK    8  A    between atoms: C_29  and  C_30
REMARK    9  A    between atoms: C_30  and  C_31
REMARK   10  A    between atoms: C_31  and  O_32
REMARK                            x       y       z     vdW  Elec       q    Type
REMARK                         _______ _______ _______ _____ _____    ______ ____
ROOT
ATOM      1  C   UNL     1     -10.326   5.405 130.594  0.00  0.00    +0.000 C 
ATOM      2  C   UNL     1      -9.221   6.144 129.994  0.00  0.00    +0.000 C 
ATOM      3  C   UNL     1      -9.411   5.429 128.674  0.00  0.00    +0.000 C 
ATOM      4  C   UNL     1      -8.306   4.509 128.796  0.00  0.00    +0.000 C 
ATOM      5  C   UNL     1      -8.010   3.723 127.511  0.00  0.00    +0.000 C 
ATOM      6  C   UNL     1      -7.967   4.824 126.451  0.00  0.00    +0.000 C 
ATOM      7  C   UNL     1      -7.646   4.221 125.191  0.00  0.00    +0.000 C 
ATOM      8  C   UNL     1      -6.256   3.648 125.255  0.00  0.00    +0.000 C 
ATOM      9  C   UNL     1      -6.140   3.153 123.944  0.00  0.00    +0.000 C 
ATOM     10  C   UNL     1      -6.460   3.223 122.566  0.00  0.00    +0.000 C 
ATOM     11  C   UNL     1      -6.515   1.538 122.843  0.00  0.00    +0.000 C 
ATOM     12  C   UNL     1      -6.800   1.086 124.734  0.00  0.00    +0.000 C 
ATOM     13  C   UNL     1      -6.165   2.281 126.023  0.00  0.00    +0.000 C 
ATOM     14  C   UNL     1      -4.714   1.750 126.241  0.00  0.00    +0.000 C 
ATOM     15  C   UNL     1      -6.665   2.934 127.494  0.00  0.00    +0.000 C 
ATOM     16  C   UNL     1      -6.661   2.222 128.832  0.00  0.00    +0.000 C 
ATOM     17  C   UNL     1      -7.124   3.323 130.117  0.00  0.00    +0.000 C 
ATOM     18  C   UNL     1      -8.912   3.926 130.139  0.00  0.00    +0.000 C 
ATOM     19  C   UNL     1      -9.048   2.590 130.981  0.00  0.00    +0.000 C 
ENDROOT
BRANCH   6  20
ATOM     20  O   UNL     1      -9.222   5.395 126.127  0.00  0.00    +0.000 OA
ATOM     21  H   UNL     1      -9.442   6.014 126.843  0.00  0.00    +0.000 HD
ENDBRANCH   6  20
BRANCH  10  22
ATOM     22  O   UNL     1      -7.701   3.857 122.296  0.00  0.00    +0.000 OA
ATOM     23  H   UNL     1      -8.203   3.964 123.122  0.00  0.00    +0.000 HD
ENDBRANCH  10  22
BRANCH   1  24
ATOM     24  C   UNL     1     -11.293   7.076 130.277  0.00  0.00    +0.000 C 
ATOM     25  C   UNL     1     -12.338   7.525 131.419  0.00  0.00    +0.000 C 
BRANCH  24  26
ATOM     26  C   UNL     1     -12.288   7.669 128.938  0.00  0.00    +0.000 C 
BRANCH  26  27
ATOM     27  C   UNL     1     -11.483   8.275 127.792  0.00  0.00    +0.000 C 
BRANCH  27  28
ATOM     28  C   UNL     1     -11.381   7.621 126.419  0.00  0.00    +0.000 C 
ATOM     29  O   UNL     1     -10.645   8.093 125.558  0.00  0.00    +0.000 OA
BRANCH  28  30
ATOM     30  O   UNL     1     -12.075   6.497 126.177  0.00  0.00    +0.000 OA
ATOM     31  H   UNL     1     -11.592   5.655 126.157  0.00  0.00    +0.000 HD
ENDBRANCH  28  30
ENDBRANCH  27  28
ENDBRANCH  26  27
ENDBRANCH  24  26
ENDBRANCH   1  24
TORSDOF 7
ENDMDL
MODEL 4
REMARK VINA RESULT:      -8.9      5.985      8.230
REMARK  Name = Chenodeoxycholic acid
REMARK  10 active torsions:
REMARK  status: ('A' for Active; 'I' for Inactive)
REMARK    1  A    between atoms: C_2  and  C_27
REMARK    2  A    between atoms: C_9  and  O_10
REMARK    3  A    between atoms: C_15  and  O_16
REMARK    4  A    between atoms: C_19  and  C_20
REMARK    5  A    between atoms: C_25  and  C_26
REMARK    6  A    between atoms: C_27  and  C_28
REMARK    7  A    between atoms: C_27  and  C_29
REMARK    8  A    between atoms: C_29  and  C_30
REMARK    9  A    between atoms: C_30  and  C_31
REMARK   10  A    between atoms: C_31  and  O_32
REMARK                            x       y       z     vdW  Elec       q    Type
REMARK                         _______ _______ _______ _____ _____    ______ ____
ROOT
ATOM      1  C   UNL     1      -6.140  -2.614 126.119  0.00  0.00    +0.000 C 
ATOM      2  C   UNL     1      -7.560  -2.290 126.202  0.00  0.00    +0.000 C 
ATOM      3  C   UNL     1      -7.248  -0.853 126.557  0.00  0.00    +0.000 C 
ATOM      4  C   UNL     1      -7.517  -0.944 127.972  0.00  0.00    +0.000 C 
ATOM      5  C   UNL     1      -7.530   0.412 128.689  0.00  0.00    +0.000 C 
ATOM      6  C   UNL     1      -8.444   1.251 127.796  0.00  0.00    +0.000 C 
ATOM      7  C   UNL     1      -8.582   2.550 128.388  0.00  0.00    +0.000 C 
ATOM      8  C   UNL     1      -9.291   2.419 129.709  0.00  0.00    +0.000 C 
ATOM      9  C   UNL     1      -9.347   3.773 130.085  0.00  0.00    +0.000 C 
ATOM     10  C   UNL     1      -9.422   5.146 129.746  0.00  0.00    +0.000 C 
ATOM     11  C   UNL     1      -8.304   5.177 131.036  0.00  0.00    +0.000 C 
ATOM     12  C   UNL     1      -7.427   3.441 131.324  0.00  0.00    +0.000 C 
ATOM     13  C   UNL     1      -8.377   1.897 130.875  0.00  0.00    +0.000 C 
ATOM     14  C   UNL     1      -9.129   1.602 132.210  0.00  0.00    +0.000 C 
ATOM     15  C   UNL     1      -8.090   0.405 130.144  0.00  0.00    +0.000 C 
ATOM     16  C   UNL     1      -7.390  -0.778 130.781  0.00  0.00    +0.000 C 
ATOM     17  C   UNL     1      -7.440  -2.171 129.715  0.00  0.00    +0.000 C 
ATOM     18  C   UNL     1      -6.425  -2.082 128.127  0.00  0.00    +0.000 C 
ATOM     19  C   UNL     1      -5.340  -2.655 129.130  0.00  0.00    +0.000 C 
ENDROOT
BRANCH   6  20
ATOM     20  O   UNL     1      -7.890   1.620 126.545  0.00  0.00    +0.000 OA
ATOM     21  H   UNL     1      -8.485   1.271 125.861  0.00  0.00    +0.000 HD
ENDBRANCH   6  20
BRANCH  10  22
ATOM     22  O   UNL     1      -8.906   5.449 128.459  0.00  0.00    +0.000 OA
ATOM     23  H   UNL     1      -9.428   4.990 127.778  0.00  0.00    +0.000 HD
ENDBRANCH  10  22
BRANCH   1  24
ATOM     24  C   UNL     1      -6.472  -2.480 124.197  0.00  0.00    +0.000 C 
ATOM     25  C   UNL     1      -5.254  -2.904 123.229  0.00  0.00    +0.000 C 
BRANCH  24  26
ATOM     26  C   UNL     1      -7.030  -1.166 123.149  0.00  0.00    +0.000 C 
BRANCH  26  27
ATOM     27  C   UNL     1      -8.529  -1.199 122.863  0.00  0.00    +0.000 C 
BRANCH  27  28
ATOM     28  C   UNL     1      -9.447  -0.013 123.138  0.00  0.00    +0.000 C 
ATOM     29  O   UNL     1      -9.130   0.842 123.960  0.00  0.00    +0.000 OA
BRANCH  28  30
ATOM     30  O   UNL     1     -10.586   0.108 122.438  0.00  0.00    +0.000 OA
ATOM     31  H   UNL     1     -11.068  -0.702 122.203  0.00  0.00    +0.000 HD
ENDBRANCH  28  30
ENDBRANCH  27  28
ENDBRANCH  26  27
ENDBRANCH  24  26
ENDBRANCH   1  24
TORSDOF 7
ENDMDL
MODEL 5
REMARK VINA RESULT:      -8.8      6.218      9.164
REMARK  Name = Chenodeoxycholic acid
REMARK  10 active torsions:
REMARK  status: ('A' for Active; 'I' for Inactive)
REMARK    1  A    between atoms: C_2  and  C_27
REMARK    2  A    between atoms: C_9  and  O_10
REMARK    3  A    between atoms: C_15  and  O_16
REMARK    4  A    between atoms: C_19  and  C_20
REMARK    5  A    between atoms: C_25  and  C_26
REMARK    6  A    between atoms: C_27  and  C_28
REMARK    7  A    between atoms: C_27  and  C_29
REMARK    8  A    between atoms: C_29  and  C_30
REMARK    9  A    between atoms: C_30  and  C_31
REMARK   10  A    between atoms: C_31  and  O_32
REMARK                            x       y       z     vdW  Elec       q    Type
REMARK                         _______ _______ _______ _____ _____    ______ ____
ROOT
ATOM      1  C   UNL     1      -5.282   2.663 130.709  0.00  0.00    +0.000 C 
ATOM      2  C   UNL     1      -4.454   1.538 130.288  0.00  0.00    +0.000 C 
ATOM      3  C   UNL     1      -5.248   1.387 129.008  0.00  0.00    +0.000 C 
ATOM      4  C   UNL     1      -6.033   0.244 129.406  0.00  0.00    +0.000 C 
ATOM      5  C   UNL     1      -6.841  -0.381 128.261  0.00  0.00    +0.000 C 
ATOM      6  C   UNL     1      -5.794  -0.527 127.156  0.00  0.00    +0.000 C 
ATOM      7  C   UNL     1      -6.416  -1.154 126.027  0.00  0.00    +0.000 C 
ATOM      8  C   UNL     1      -6.829  -2.552 126.401  0.00  0.00    +0.000 C 
ATOM      9  C   UNL     1      -7.369  -2.978 125.174  0.00  0.00    +0.000 C 
ATOM     10  C   UNL     1      -7.401  -2.936 123.759  0.00  0.00    +0.000 C 
ATOM     11  C   UNL     1      -9.066  -2.994 124.134  0.00  0.00    +0.000 C 
ATOM     12  C   UNL     1      -9.457  -2.380 125.960  0.00  0.00    +0.000 C 
ATOM     13  C   UNL     1      -8.140  -2.622 127.263  0.00  0.00    +0.000 C 
ATOM     14  C   UNL     1      -8.495  -4.045 127.795  0.00  0.00    +0.000 C 
ATOM     15  C   UNL     1      -7.477  -1.773 128.560  0.00  0.00    +0.000 C 
ATOM     16  C   UNL     1      -8.120  -1.578 129.919  0.00  0.00    +0.000 C 
ATOM     17  C   UNL     1      -7.017  -0.759 131.010  0.00  0.00    +0.000 C 
ATOM     18  C   UNL     1      -6.615   1.047 130.642  0.00  0.00    +0.000 C 
ATOM     19  C   UNL     1      -7.916   1.217 131.530  0.00  0.00    +0.000 C 
ENDROOT
BRANCH   6  20
ATOM     20  O   UNL     1      -5.381   0.687 126.555  0.00  0.00    +0.000 OA
ATOM     21  H   UNL     1      -6.189   1.166 126.307  0.00  0.00    +0.000 HD
ENDBRANCH   6  20
BRANCH  10  22
ATOM     22  O   UNL     1      -6.922  -1.719 123.209  0.00  0.00    +0.000 OA
ATOM     23  H   UNL     1      -6.758  -1.077 123.922  0.00  0.00    +0.000 HD
ENDBRANCH  10  22
BRANCH   1  24
ATOM     24  C   UNL     1      -3.745   3.707 130.097  0.00  0.00    +0.000 C 
ATOM     25  C   UNL     1      -3.152   4.785 131.138  0.00  0.00    +0.000 C 
BRANCH  24  26
ATOM     26  C   UNL     1      -3.452   4.716 128.671  0.00  0.00    +0.000 C 
BRANCH  26  27
ATOM     27  C   UNL     1      -2.297   4.232 127.799  0.00  0.00    +0.000 C 
BRANCH  27  28
ATOM     28  C   UNL     1      -2.447   3.108 126.780  0.00  0.00    +0.000 C 
ATOM     29  O   UNL     1      -3.549   2.830 126.318  0.00  0.00    +0.000 OA
BRANCH  28  30
ATOM     30  O   UNL     1      -1.351   2.454 126.362  0.00  0.00    +0.000 OA
ATOM     31  H   UNL     1      -1.149   1.593 126.765  0.00  0.00    +0.000 HD
ENDBRANCH  28  30
ENDBRANCH  27  28
ENDBRANCH  26  27
ENDBRANCH  24  26
ENDBRANCH   1  24
TORSDOF 7
ENDMDL
MODEL 6
REMARK VINA RESULT:      -8.8      3.449      6.962
REMARK  Name = Chenodeoxycholic acid
REMARK  10 active torsions:
REMARK  status: ('A' for Active; 'I' for Inactive)
REMARK    1  A    between atoms: C_2  and  C_27
REMARK    2  A    between atoms: C_9  and  O_10
REMARK    3  A    between atoms: C_15  and  O_16
REMARK    4  A    between atoms: C_19  and  C_20
REMARK    5  A    between atoms: C_25  and  C_26
REMARK    6  A    between atoms: C_27  and  C_28
REMARK    7  A    between atoms: C_27  and  C_29
REMARK    8  A    between atoms: C_29  and  C_30
REMARK    9  A    between atoms: C_30  and  C_31
REMARK   10  A    between atoms: C_31  and  O_32
REMARK                            x       y       z     vdW  Elec       q    Type
REMARK                         _______ _______ _______ _____ _____    ______ ____
ROOT
ATOM      1  C   UNL     1      -3.068   3.321 128.832  0.00  0.00    +0.000 C 
ATOM      2  C   UNL     1      -4.177   2.381 128.715  0.00  0.00    +0.000 C 
ATOM      3  C   UNL     1      -5.186   3.507 128.785  0.00  0.00    +0.000 C 
ATOM      4  C   UNL     1      -5.590   3.314 130.157  0.00  0.00    +0.000 C 
ATOM      5  C   UNL     1      -6.809   4.152 130.566  0.00  0.00    +0.000 C 
ATOM      6  C   UNL     1      -7.800   3.871 129.437  0.00  0.00    +0.000 C 
ATOM      7  C   UNL     1      -9.019   4.567 129.726  0.00  0.00    +0.000 C 
ATOM      8  C   UNL     1      -9.634   3.993 130.974  0.00  0.00    +0.000 C 
ATOM      9  C   UNL     1     -10.799   4.776 131.049  0.00  0.00    +0.000 C 
ATOM     10  C   UNL     1     -11.831   5.516 130.422  0.00  0.00    +0.000 C 
ATOM     11  C   UNL     1     -11.482   6.500 131.774  0.00  0.00    +0.000 C 
ATOM     12  C   UNL     1      -9.683   6.183 132.501  0.00  0.00    +0.000 C 
ATOM     13  C   UNL     1      -8.949   4.477 132.303  0.00  0.00    +0.000 C 
ATOM     14  C   UNL     1      -9.464   3.771 133.596  0.00  0.00    +0.000 C 
ATOM     15  C   UNL     1      -7.460   3.778 131.933  0.00  0.00    +0.000 C 
ATOM     16  C   UNL     1      -6.272   3.667 132.867  0.00  0.00    +0.000 C 
ATOM     17  C   UNL     1      -4.985   2.739 132.119  0.00  0.00    +0.000 C 
ATOM     18  C   UNL     1      -4.098   3.518 130.648  0.00  0.00    +0.000 C 
ATOM     19  C   UNL     1      -3.236   4.100 131.844  0.00  0.00    +0.000 C 
ENDROOT
BRANCH   6  20
ATOM     20  O   UNL     1      -7.478   4.467 128.193  0.00  0.00    +0.000 OA
ATOM     21  H   UNL     1      -6.977   3.806 127.687  0.00  0.00    +0.000 HD
ENDBRANCH   6  20
BRANCH  10  22
ATOM     22  O   UNL     1     -11.472   6.040 129.153  0.00  0.00    +0.000 OA
ATOM     23  H   UNL     1     -10.575   5.749 128.918  0.00  0.00    +0.000 HD
ENDBRANCH  10  22
BRANCH   1  24
ATOM     24  C   UNL     1      -2.938   3.030 126.903  0.00  0.00    +0.000 C 
ATOM     25  C   UNL     1      -1.451   3.013 126.280  0.00  0.00    +0.000 C 
BRANCH  24  26
ATOM     26  C   UNL     1      -3.666   3.833 125.501  0.00  0.00    +0.000 C 
BRANCH  26  27
ATOM     27  C   UNL     1      -5.136   3.486 125.286  0.00  0.00    +0.000 C 
BRANCH  27  28
ATOM     28  C   UNL     1      -6.175   4.521 124.871  0.00  0.00    +0.000 C 
ATOM     29  O   UNL     1      -6.368   5.520 125.558  0.00  0.00    +0.000 OA
BRANCH  28  30
ATOM     30  O   UNL     1      -6.847   4.349 123.721  0.00  0.00    +0.000 OA
ATOM     31  H   UNL     1      -6.989   5.124 123.152  0.00  0.00    +0.000 HD
ENDBRANCH  28  30
ENDBRANCH  27  28
ENDBRANCH  26  27
ENDBRANCH  24  26
ENDBRANCH   1  24
TORSDOF 7
ENDMDL
MODEL 7
REMARK VINA RESULT:      -8.8      6.153      8.850
REMARK  Name = Chenodeoxycholic acid
REMARK  10 active torsions:
REMARK  status: ('A' for Active; 'I' for Inactive)
REMARK    1  A    between atoms: C_2  and  C_27
REMARK    2  A    between atoms: C_9  and  O_10
REMARK    3  A    between atoms: C_15  and  O_16
REMARK    4  A    between atoms: C_19  and  C_20
REMARK    5  A    between atoms: C_25  and  C_26
REMARK    6  A    between atoms: C_27  and  C_28
REMARK    7  A    between atoms: C_27  and  C_29
REMARK    8  A    between atoms: C_29  and  C_30
REMARK    9  A    between atoms: C_30  and  C_31
REMARK   10  A    between atoms: C_31  and  O_32
REMARK                            x       y       z     vdW  Elec       q    Type
REMARK                         _______ _______ _______ _____ _____    ______ ____
ROOT
ATOM      1  C   UNL     1      -6.628   0.239 131.999  0.00  0.00    +0.000 C 
ATOM      2  C   UNL     1      -6.083   1.058 130.922  0.00  0.00    +0.000 C 
ATOM      3  C   UNL     1      -7.131   0.550 129.956  0.00  0.00    +0.000 C 
ATOM      4  C   UNL     1      -6.293  -0.380 129.238  0.00  0.00    +0.000 C 
ATOM      5  C   UNL     1      -6.951  -0.964 127.981  0.00  0.00    +0.000 C 
ATOM      6  C   UNL     1      -7.480   0.284 127.273  0.00  0.00    +0.000 C 
ATOM      7  C   UNL     1      -8.086  -0.123 126.039  0.00  0.00    +0.000 C 
ATOM      8  C   UNL     1      -7.030  -0.702 125.135  0.00  0.00    +0.000 C 
ATOM      9  C   UNL     1      -7.816  -0.994 124.006  0.00  0.00    +0.000 C 
ATOM     10  C   UNL     1      -8.924  -0.718 123.169  0.00  0.00    +0.000 C 
ATOM     11  C   UNL     1      -8.956  -2.424 123.221  0.00  0.00    +0.000 C 
ATOM     12  C   UNL     1      -8.027  -3.156 124.792  0.00  0.00    +0.000 C 
ATOM     13  C   UNL     1      -6.609  -2.170 125.505  0.00  0.00    +0.000 C 
ATOM     14  C   UNL     1      -5.405  -2.729 124.684  0.00  0.00    +0.000 C 
ATOM     15  C   UNL     1      -6.003  -1.744 127.019  0.00  0.00    +0.000 C 
ATOM     16  C   UNL     1      -5.226  -2.649 127.954  0.00  0.00    +0.000 C 
ATOM     17  C   UNL     1      -4.665  -1.753 129.355  0.00  0.00    +0.000 C 
ATOM     18  C   UNL     1      -5.969  -1.157 130.581  0.00  0.00    +0.000 C 
ATOM     19  C   UNL     1      -5.673  -2.604 131.155  0.00  0.00    +0.000 C 
ENDROOT
BRANCH   6  20
ATOM     20  O   UNL     1      -8.595   0.899 127.892  0.00  0.00    +0.000 OA
ATOM     21  H   UNL     1      -8.810   1.686 127.364  0.00  0.00    +0.000 HD
ENDBRANCH   6  20
BRANCH  10  22
ATOM     22  O   UNL     1      -9.988  -0.049 123.828  0.00  0.00    +0.000 OA
ATOM     23  H   UNL     1     -10.415  -0.651 124.461  0.00  0.00    +0.000 HD
ENDBRANCH  10  22
BRANCH   1  24
ATOM     24  C   UNL     1      -7.410   1.939 132.567  0.00  0.00    +0.000 C 
ATOM     25  C   UNL     1      -6.865   2.549 133.955  0.00  0.00    +0.000 C 
BRANCH  24  26
ATOM     26  C   UNL     1      -9.075   2.487 132.819  0.00  0.00    +0.000 C 
BRANCH  26  27
ATOM     27  C   UNL     1     -10.015   2.157 131.663  0.00  0.00    +0.000 C 
BRANCH  27  28
ATOM     28  C   UNL     1     -10.295   3.130 130.523  0.00  0.00    +0.000 C 
ATOM     29  O   UNL     1      -9.583   3.138 129.523  0.00  0.00    +0.000 OA
BRANCH  28  30
ATOM     30  O   UNL     1     -11.354   3.950 130.608  0.00  0.00    +0.000 OA
ATOM     31  H   UNL     1     -11.809   4.199 129.786  0.00  0.00    +0.000 HD
ENDBRANCH  28  30
ENDBRANCH  27  28
ENDBRANCH  26  27
ENDBRANCH  24  26
ENDBRANCH   1  24
TORSDOF 7
ENDMDL
MODEL 8
REMARK VINA RESULT:      -8.7      1.852      7.083
REMARK  Name = Chenodeoxycholic acid
REMARK  10 active torsions:
REMARK  status: ('A' for Active; 'I' for Inactive)
REMARK    1  A    between atoms: C_2  and  C_27
REMARK    2  A    between atoms: C_9  and  O_10
REMARK    3  A    between atoms: C_15  and  O_16
REMARK    4  A    between atoms: C_19  and  C_20
REMARK    5  A    between atoms: C_25  and  C_26
REMARK    6  A    between atoms: C_27  and  C_28
REMARK    7  A    between atoms: C_27  and  C_29
REMARK    8  A    between atoms: C_29  and  C_30
REMARK    9  A    between atoms: C_30  and  C_31
REMARK   10  A    between atoms: C_31  and  O_32
REMARK                            x       y       z     vdW  Elec       q    Type
REMARK                         _______ _______ _______ _____ _____    ______ ____
ROOT
ATOM      1  C   UNL     1      -4.676   5.914 134.143  0.00  0.00    +0.000 C 
ATOM      2  C   UNL     1      -4.714   5.376 132.788  0.00  0.00    +0.000 C 
ATOM      3  C   UNL     1      -5.822   6.331 132.400  0.00  0.00    +0.000 C 
ATOM      4  C   UNL     1      -6.913   5.389 132.459  0.00  0.00    +0.000 C 
ATOM      5  C   UNL     1      -8.233   5.934 131.897  0.00  0.00    +0.000 C 
ATOM      6  C   UNL     1      -7.805   6.517 130.550  0.00  0.00    +0.000 C 
ATOM      7  C   UNL     1      -8.971   7.025 129.889  0.00  0.00    +0.000 C 
ATOM      8  C   UNL     1      -9.900   5.883 129.576  0.00  0.00    +0.000 C 
ATOM      9  C   UNL     1     -10.929   6.585 128.921  0.00  0.00    +0.000 C 
ATOM     10  C   UNL     1     -11.368   7.665 128.118  0.00  0.00    +0.000 C 
ATOM     11  C   UNL     1     -12.620   7.572 129.275  0.00  0.00    +0.000 C 
ATOM     12  C   UNL     1     -12.061   6.674 130.932  0.00  0.00    +0.000 C 
ATOM     13  C   UNL     1     -10.725   5.374 130.812  0.00  0.00    +0.000 C 
ATOM     14  C   UNL     1     -11.572   4.090 130.546  0.00  0.00    +0.000 C 
ATOM     15  C   UNL     1      -9.361   4.882 131.672  0.00  0.00    +0.000 C 
ATOM     16  C   UNL     1      -9.361   4.089 132.964  0.00  0.00    +0.000 C 
ATOM     17  C   UNL     1      -7.722   3.671 133.431  0.00  0.00    +0.000 C 
ATOM     18  C   UNL     1      -6.592   5.079 133.979  0.00  0.00    +0.000 C 
ATOM     19  C   UNL     1      -7.279   4.707 135.358  0.00  0.00    +0.000 C 
ENDROOT
BRANCH   6  20
ATOM     20  O   UNL     1      -7.039   7.706 130.625  0.00  0.00    +0.000 OA
ATOM     21  H   UNL     1      -6.443   7.608 131.385  0.00  0.00    +0.000 HD
ENDBRANCH   6  20
BRANCH  10  22
ATOM     22  O   UNL     1     -10.531   8.809 128.187  0.00  0.00    +0.000 OA
ATOM     23  H   UNL     1      -9.993   8.776 128.997  0.00  0.00    +0.000 HD
ENDBRANCH  10  22
BRANCH   1  24
ATOM     24  C   UNL     1      -3.098   6.849 133.466  0.00  0.00    +0.000 C 
ATOM     25  C   UNL     1      -2.148   7.540 134.569  0.00  0.00    +0.000 C 
BRANCH  24  26
ATOM     26  C   UNL     1      -2.866   8.128 132.263  0.00  0.00    +0.000 C 
BRANCH  26  27
ATOM     27  C   UNL     1      -2.860   7.627 130.822  0.00  0.00    +0.000 C 
BRANCH  27  28
ATOM     28  C   UNL     1      -3.865   8.103 129.778  0.00  0.00    +0.000 C 
ATOM     29  O   UNL     1      -4.551   7.294 129.161  0.00  0.00    +0.000 OA
BRANCH  28  30
ATOM     30  O   UNL     1      -4.019   9.421 129.574  0.00  0.00    +0.000 OA
ATOM     31  H   UNL     1      -4.029  10.008 130.348  0.00  0.00    +0.000 HD
ENDBRANCH  28  30
ENDBRANCH  27  28
ENDBRANCH  26  27
ENDBRANCH  24  26
ENDBRANCH   1  24
TORSDOF 7
ENDMDL
MODEL 9
REMARK VINA RESULT:      -8.7      5.899      8.571
REMARK  Name = Chenodeoxycholic acid
REMARK  10 active torsions:
REMARK  status: ('A' for Active; 'I' for Inactive)
REMARK    1  A    between atoms: C_2  and  C_27
REMARK    2  A    between atoms: C_9  and  O_10
REMARK    3  A    between atoms: C_15  and  O_16
REMARK    4  A    between atoms: C_19  and  C_20
REMARK    5  A    between atoms: C_25  and  C_26
REMARK    6  A    between atoms: C_27  and  C_28
REMARK    7  A    between atoms: C_27  and  C_29
REMARK    8  A    between atoms: C_29  and  C_30
REMARK    9  A    between atoms: C_30  and  C_31
REMARK   10  A    between atoms: C_31  and  O_32
REMARK                            x       y       z     vdW  Elec       q    Type
REMARK                         _______ _______ _______ _____ _____    ______ ____
ROOT
ATOM      1  C   UNL     1      -8.017   1.111 131.591  0.00  0.00    +0.000 C 
ATOM      2  C   UNL     1      -7.233   1.712 130.517  0.00  0.00    +0.000 C 
ATOM      3  C   UNL     1      -8.174   1.158 129.470  0.00  0.00    +0.000 C 
ATOM      4  C   UNL     1      -7.344   0.064 129.028  0.00  0.00    +0.000 C 
ATOM      5  C   UNL     1      -7.867  -0.641 127.769  0.00  0.00    +0.000 C 
ATOM      6  C   UNL     1      -8.147   0.529 126.825  0.00  0.00    +0.000 C 
ATOM      7  C   UNL     1      -8.604  -0.003 125.575  0.00  0.00    +0.000 C 
ATOM      8  C   UNL     1      -7.494  -0.797 124.939  0.00  0.00    +0.000 C 
ATOM      9  C   UNL     1      -8.130  -1.185 123.747  0.00  0.00    +0.000 C 
ATOM     10  C   UNL     1      -9.066  -0.941 122.712  0.00  0.00    +0.000 C 
ATOM     11  C   UNL     1      -9.288  -2.612 122.984  0.00  0.00    +0.000 C 
ATOM     12  C   UNL     1      -8.687  -3.180 124.768  0.00  0.00    +0.000 C 
ATOM     13  C   UNL     1      -7.293  -2.224 125.564  0.00  0.00    +0.000 C 
ATOM     14  C   UNL     1      -6.048  -2.999 125.030  0.00  0.00    +0.000 C 
ATOM     15  C   UNL     1      -6.876  -1.632 127.086  0.00  0.00    +0.000 C 
ATOM     16  C   UNL     1      -6.348  -2.452 128.246  0.00  0.00    +0.000 C 
ATOM     17  C   UNL     1      -5.909  -1.410 129.588  0.00  0.00    +0.000 C 
ATOM     18  C   UNL     1      -7.309  -0.531 130.496  0.00  0.00    +0.000 C 
ATOM     19  C   UNL     1      -7.259  -1.896 131.298  0.00  0.00    +0.000 C 
ENDROOT
BRANCH   6  20
ATOM     20  O   UNL     1      -9.270   1.322 127.168  0.00  0.00    +0.000 OA
ATOM     21  H   UNL     1      -9.891   0.741 127.636  0.00  0.00    +0.000 HD
ENDBRANCH   6  20
BRANCH  10  22
ATOM     22  O   UNL     1     -10.138  -0.093 123.094  0.00  0.00    +0.000 OA
ATOM     23  H   UNL     1     -10.884  -0.209 122.482  0.00  0.00    +0.000 HD
ENDBRANCH  10  22
BRANCH   1  24
ATOM     24  C   UNL     1      -8.686   2.938 131.793  0.00  0.00    +0.000 C 
ATOM     25  C   UNL     1      -9.149   3.370 133.275  0.00  0.00    +0.000 C 
BRANCH  24  26
ATOM     26  C   UNL     1      -9.956   3.864 130.976  0.00  0.00    +0.000 C 
BRANCH  26  27
ATOM     27  C   UNL     1      -9.435   5.058 130.182  0.00  0.00    +0.000 C 
BRANCH  27  28
ATOM     28  C   UNL     1      -9.267   6.445 130.793  0.00  0.00    +0.000 C 
ATOM     29  O   UNL     1      -8.836   7.374 130.118  0.00  0.00    +0.000 OA
BRANCH  28  30
ATOM     30  O   UNL     1      -9.636   6.647 132.068  0.00  0.00    +0.000 OA
ATOM     31  H   UNL     1      -9.762   5.870 132.638  0.00  0.00    +0.000 HD
ENDBRANCH  28  30
ENDBRANCH  27  28
ENDBRANCH  26  27
ENDBRANCH  24  26
ENDBRANCH   1  24
TORSDOF 7
ENDMDL
