MODEL 1
REMARK VINA RESULT:      -3.2      0.000      0.000
REMARK  Name = Chloric acid
REMARK  1 active torsions:
REMARK  status: ('A' for Active; 'I' for Inactive)
REMARK    1  A    between atoms: O_2  and  CL_3
REMARK                            x       y       z     vdW  Elec       q    Type
REMARK                         _______ _______ _______ _____ _____    ______ ____
ROOT
ATOM      1 CL   UNL     1      -5.392   5.456 119.648  0.00  0.00    +0.000 Cl
ATOM      2  O   UNL     1      -5.964   4.215 120.119  0.00  0.00    +0.000 OA
ATOM      3  O   UNL     1      -4.559   6.223 120.546  0.00  0.00    +0.000 OA
ENDROOT
BRANCH   1   5
ATOM      4  H   UNL     1      -5.062   5.501 117.566  0.00  0.00    +0.000 HD
ATOM      5  O   UNL     1      -5.707   5.930 118.143  0.00  0.00    +0.000 OA
ENDBRANCH   1   5
TORSDOF 1
ENDMDL
MODEL 2
REMARK VINA RESULT:      -3.1      0.491      1.946
REMARK  Name = Chloric acid
REMARK  1 active torsions:
REMARK  status: ('A' for Active; 'I' for Inactive)
REMARK    1  A    between atoms: O_2  and  CL_3
REMARK                            x       y       z     vdW  Elec       q    Type
REMARK                         _______ _______ _______ _____ _____    ______ ____
ROOT
ATOM      1 CL   UNL     1      -5.197   5.383 119.954  0.00  0.00    +0.000 Cl
ATOM      2  O   UNL     1      -5.529   4.042 120.378  0.00  0.00    +0.000 OA
ATOM      3  O   UNL     1      -5.730   5.870 118.703  0.00  0.00    +0.000 OA
ENDROOT
BRANCH   1   5
ATOM      4  H   UNL     1      -3.632   6.750 120.318  0.00  0.00    +0.000 HD
ATOM      5  O   UNL     1      -4.247   6.279 120.896  0.00  0.00    +0.000 OA
ENDBRANCH   1   5
TORSDOF 1
ENDMDL
MODEL 3
REMARK VINA RESULT:      -3.0      2.108      2.786
REMARK  Name = Chloric acid
REMARK  1 active torsions:
REMARK  status: ('A' for Active; 'I' for Inactive)
REMARK    1  A    between atoms: O_2  and  CL_3
REMARK                            x       y       z     vdW  Elec       q    Type
REMARK                         _______ _______ _______ _____ _____    ______ ____
ROOT
ATOM      1 CL   UNL     1      -4.792   4.810 121.586  0.00  0.00    +0.000 Cl
ATOM      2  O   UNL     1      -5.307   4.784 122.936  0.00  0.00    +0.000 OA
ATOM      3  O   UNL     1      -4.877   3.610 120.785  0.00  0.00    +0.000 OA
ENDROOT
BRANCH   1   5
ATOM      4  H   UNL     1      -3.444   6.431 121.645  0.00  0.00    +0.000 HD
ATOM      5  O   UNL     1      -4.145   6.175 121.031  0.00  0.00    +0.000 OA
ENDBRANCH   1   5
TORSDOF 1
ENDMDL
MODEL 4
REMARK VINA RESULT:      -3.0      8.645      9.001
REMARK  Name = Chloric acid
REMARK  1 active torsions:
REMARK  status: ('A' for Active; 'I' for Inactive)
REMARK    1  A    between atoms: O_2  and  CL_3
REMARK                            x       y       z     vdW  Elec       q    Type
REMARK                         _______ _______ _______ _____ _____    ______ ____
ROOT
ATOM      1 CL   UNL     1     -10.549   6.996 126.722  0.00  0.00    +0.000 Cl
ATOM      2  O   UNL     1      -9.461   6.149 126.288  0.00  0.00    +0.000 OA
ATOM      3  O   UNL     1     -10.274   8.049 127.672  0.00  0.00    +0.000 OA
ENDROOT
BRANCH   1   5
ATOM      4  H   UNL     1     -12.233   7.467 125.544  0.00  0.00    +0.000 HD
ATOM      5  O   UNL     1     -12.021   6.729 126.129  0.00  0.00    +0.000 OA
ENDBRANCH   1   5
TORSDOF 1
ENDMDL
MODEL 5
REMARK VINA RESULT:      -3.0      8.604      9.050
REMARK  Name = Chloric acid
REMARK  1 active torsions:
REMARK  status: ('A' for Active; 'I' for Inactive)
REMARK    1  A    between atoms: O_2  and  CL_3
REMARK                            x       y       z     vdW  Elec       q    Type
REMARK                         _______ _______ _______ _____ _____    ______ ____
ROOT
ATOM      1 CL   UNL     1     -10.514   6.945 126.681  0.00  0.00    +0.000 Cl
ATOM      2  O   UNL     1     -10.268   8.007 127.630  0.00  0.00    +0.000 OA
ATOM      3  O   UNL     1      -9.411   6.107 126.272  0.00  0.00    +0.000 OA
ENDROOT
BRANCH   1   5
ATOM      4  H   UNL     1     -12.412   7.616 126.052  0.00  0.00    +0.000 HD
ATOM      5  O   UNL     1     -12.009   6.740 126.121  0.00  0.00    +0.000 OA
ENDBRANCH   1   5
TORSDOF 1
ENDMDL
MODEL 6
REMARK VINA RESULT:      -2.9      0.870      1.980
REMARK  Name = Chloric acid
REMARK  1 active torsions:
REMARK  status: ('A' for Active; 'I' for Inactive)
REMARK    1  A    between atoms: O_2  and  CL_3
REMARK                            x       y       z     vdW  Elec       q    Type
REMARK                         _______ _______ _______ _____ _____    ______ ____
ROOT
ATOM      1 CL   UNL     1      -5.176   5.098 120.159  0.00  0.00    +0.000 Cl
ATOM      2  O   UNL     1      -5.963   5.355 118.975  0.00  0.00    +0.000 OA
ATOM      3  O   UNL     1      -4.442   6.189 120.757  0.00  0.00    +0.000 OA
ENDROOT
BRANCH   1   5
ATOM      4  H   UNL     1      -5.189   2.994 120.015  0.00  0.00    +0.000 HD
ATOM      5  O   UNL     1      -5.150   3.605 120.762  0.00  0.00    +0.000 OA
ENDBRANCH   1   5
TORSDOF 1
ENDMDL
MODEL 7
REMARK VINA RESULT:      -2.8      8.978      9.390
REMARK  Name = Chloric acid
REMARK  1 active torsions:
REMARK  status: ('A' for Active; 'I' for Inactive)
REMARK    1  A    between atoms: O_2  and  CL_3
REMARK                            x       y       z     vdW  Elec       q    Type
REMARK                         _______ _______ _______ _____ _____    ______ ____
ROOT
ATOM      1 CL   UNL     1     -10.929   7.239 126.763  0.00  0.00    +0.000 Cl
ATOM      2  O   UNL     1     -12.262   6.730 126.531  0.00  0.00    +0.000 OA
ATOM      3  O   UNL     1      -9.798   6.425 126.384  0.00  0.00    +0.000 OA
ENDROOT
BRANCH   1   5
ATOM      4  H   UNL     1      -9.818   8.891 127.458  0.00  0.00    +0.000 HD
ATOM      5  O   UNL     1     -10.763   8.692 127.434  0.00  0.00    +0.000 OA
ENDBRANCH   1   5
TORSDOF 1
ENDMDL
MODEL 8
REMARK VINA RESULT:      -2.6      9.431      9.992
REMARK  Name = Chloric acid
REMARK  1 active torsions:
REMARK  status: ('A' for Active; 'I' for Inactive)
REMARK    1  A    between atoms: O_2  and  CL_3
REMARK                            x       y       z     vdW  Elec       q    Type
REMARK                         _______ _______ _______ _____ _____    ______ ____
ROOT
ATOM      1 CL   UNL     1     -10.728   7.158 127.527  0.00  0.00    +0.000 Cl
ATOM      2  O   UNL     1     -10.191   8.407 128.017  0.00  0.00    +0.000 OA
ATOM      3  O   UNL     1     -10.195   6.604 126.303  0.00  0.00    +0.000 OA
ENDROOT
BRANCH   1   5
ATOM      4  H   UNL     1     -11.729   6.612 129.301  0.00  0.00    +0.000 HD
ATOM      5  O   UNL     1     -11.896   6.436 128.366  0.00  0.00    +0.000 OA
ENDBRANCH   1   5
TORSDOF 1
ENDMDL
MODEL 9
REMARK VINA RESULT:      -2.6      3.394      4.023
REMARK  Name = Chloric acid
REMARK  1 active torsions:
REMARK  status: ('A' for Active; 'I' for Inactive)
REMARK    1  A    between atoms: O_2  and  CL_3
REMARK                            x       y       z     vdW  Elec       q    Type
REMARK                         _______ _______ _______ _____ _____    ______ ____
ROOT
ATOM      1 CL   UNL     1      -8.813   4.151 119.562  0.00  0.00    +0.000 Cl
ATOM      2  O   UNL     1      -7.522   4.475 118.998  0.00  0.00    +0.000 OA
ATOM      3  O   UNL     1      -8.878   3.684 120.927  0.00  0.00    +0.000 OA
ENDROOT
BRANCH   1   5
ATOM      4  H   UNL     1     -10.139   5.242 118.337  0.00  0.00    +0.000 HD
ATOM      5  O   UNL     1     -10.123   4.326 118.643  0.00  0.00    +0.000 OA
ENDBRANCH   1   5
TORSDOF 1
ENDMDL
