MODEL 1
REMARK VINA RESULT:      -7.8      0.000      0.000
REMARK  Name = Chlordiazepoxide
REMARK  2 active torsions:
REMARK  status: ('A' for Active; 'I' for Inactive)
REMARK    1  A    between atoms: C_1  and  N_2
REMARK    2  A    between atoms: C_12  and  C_13
REMARK                            x       y       z     vdW  Elec       q    Type
REMARK                         _______ _______ _______ _____ _____    ______ ____
ROOT
ATOM      1  C   UNL     1      -7.895   3.748 124.846  0.00  0.00    +0.000 C 
ATOM      2  N   UNL     1      -8.330   2.367 124.950  0.00  0.00    +0.000 N 
ATOM      3  C   UNL     1      -7.450   1.293 124.900  0.00  0.00    +0.000 C 
ATOM      4  N   UNL     1      -7.701   0.284 124.126  0.00  0.00    +0.000 NA
ATOM      5  C   UNL     1      -6.822  -0.833 124.041  0.00  0.00    +0.000 A 
ATOM      6  C   UNL     1      -6.216  -1.474 125.138  0.00  0.00    +0.000 A 
ATOM      7  C   UNL     1      -5.391  -2.593 124.914  0.00  0.00    +0.000 A 
ATOM      8  C   UNL     1      -5.183  -3.115 123.649  0.00  0.00    +0.000 A 
ATOM      9 CL   UNL     1      -4.180  -4.502 123.471  0.00  0.00    +0.000 Cl
ATOM     10  C   UNL     1      -5.787  -2.516 122.563  0.00  0.00    +0.000 A 
ATOM     11  C   UNL     1      -6.597  -1.384 122.763  0.00  0.00    +0.000 A 
ATOM     12  C   UNL     1      -6.423  -1.010 126.540  0.00  0.00    +0.000 C 
ATOM     13  N   UNL     1      -6.444   0.288 126.815  0.00  0.00    +0.000 N 
ATOM     14  O   UNL     1      -6.592   0.696 128.020  0.00  0.00    +0.000 OA
ATOM     15  C   UNL     1      -6.239   1.339 125.800  0.00  0.00    +0.000 C 
ATOM     16  H   UNL     1      -9.216   2.184 124.487  0.00  0.00    +0.000 HD
ENDROOT
BRANCH  12  17
ATOM     17  C   UNL     1      -6.627  -1.991 127.643  0.00  0.00    +0.000 A 
ATOM     18  C   UNL     1      -7.897  -2.529 127.859  0.00  0.00    +0.000 A 
ATOM     19  C   UNL     1      -8.118  -3.336 128.979  0.00  0.00    +0.000 A 
ATOM     20  C   UNL     1      -7.051  -3.733 129.784  0.00  0.00    +0.000 A 
ATOM     21  C   UNL     1      -5.766  -3.298 129.498  0.00  0.00    +0.000 A 
ATOM     22  C   UNL     1      -5.581  -2.348 128.500  0.00  0.00    +0.000 A 
ENDBRANCH  12  17
TORSDOF 1
ENDMDL
MODEL 2
REMARK VINA RESULT:      -7.5      2.946      6.028
REMARK  Name = Chlordiazepoxide
REMARK  2 active torsions:
REMARK  status: ('A' for Active; 'I' for Inactive)
REMARK    1  A    between atoms: C_1  and  N_2
REMARK    2  A    between atoms: C_12  and  C_13
REMARK                            x       y       z     vdW  Elec       q    Type
REMARK                         _______ _______ _______ _____ _____    ______ ____
ROOT
ATOM      1  C   UNL     1      -6.804   4.024 129.372  0.00  0.00    +0.000 C 
ATOM      2  N   UNL     1      -6.058   3.784 128.149  0.00  0.00    +0.000 N 
ATOM      3  C   UNL     1      -6.442   2.838 127.205  0.00  0.00    +0.000 C 
ATOM      4  N   UNL     1      -5.573   1.999 126.738  0.00  0.00    +0.000 NA
ATOM      5  C   UNL     1      -5.926   1.011 125.774  0.00  0.00    +0.000 A 
ATOM      6  C   UNL     1      -6.729   1.234 124.640  0.00  0.00    +0.000 A 
ATOM      7  C   UNL     1      -6.975   0.173 123.749  0.00  0.00    +0.000 A 
ATOM      8  C   UNL     1      -6.420  -1.083 123.926  0.00  0.00    +0.000 A 
ATOM      9 CL   UNL     1      -6.753  -2.315 122.771  0.00  0.00    +0.000 Cl
ATOM     10  C   UNL     1      -5.611  -1.317 125.019  0.00  0.00    +0.000 A 
ATOM     11  C   UNL     1      -5.371  -0.275 125.933  0.00  0.00    +0.000 A 
ATOM     12  C   UNL     1      -7.328   2.567 124.344  0.00  0.00    +0.000 C 
ATOM     13  N   UNL     1      -7.835   3.302 125.325  0.00  0.00    +0.000 N 
ATOM     14  O   UNL     1      -8.378   4.436 125.077  0.00  0.00    +0.000 OA
ATOM     15  C   UNL     1      -7.876   2.864 126.734  0.00  0.00    +0.000 C 
ATOM     16  H   UNL     1      -5.052   3.850 128.266  0.00  0.00    +0.000 HD
ENDROOT
BRANCH  12  17
ATOM     17  C   UNL     1      -7.350   3.099 122.951  0.00  0.00    +0.000 A 
ATOM     18  C   UNL     1      -8.558   3.152 122.255  0.00  0.00    +0.000 A 
ATOM     19  C   UNL     1      -8.555   3.515 120.905  0.00  0.00    +0.000 A 
ATOM     20  C   UNL     1      -7.385   3.974 120.300  0.00  0.00    +0.000 A 
ATOM     21  C   UNL     1      -6.206   4.038 121.028  0.00  0.00    +0.000 A 
ATOM     22  C   UNL     1      -6.174   3.500 122.309  0.00  0.00    +0.000 A 
ENDBRANCH  12  17
TORSDOF 1
ENDMDL
MODEL 3
REMARK VINA RESULT:      -7.0      6.788      8.470
REMARK  Name = Chlordiazepoxide
REMARK  2 active torsions:
REMARK  status: ('A' for Active; 'I' for Inactive)
REMARK    1  A    between atoms: C_1  and  N_2
REMARK    2  A    between atoms: C_12  and  C_13
REMARK                            x       y       z     vdW  Elec       q    Type
REMARK                         _______ _______ _______ _____ _____    ______ ____
ROOT
ATOM      1  C   UNL     1     -12.017   7.713 128.638  0.00  0.00    +0.000 C 
ATOM      2  N   UNL     1     -10.831   6.886 128.493  0.00  0.00    +0.000 N 
ATOM      3  C   UNL     1     -10.122   6.388 129.580  0.00  0.00    +0.000 C 
ATOM      4  N   UNL     1      -8.833   6.510 129.623  0.00  0.00    +0.000 NA
ATOM      5  C   UNL     1      -8.070   6.018 130.721  0.00  0.00    +0.000 A 
ATOM      6  C   UNL     1      -8.248   4.765 131.338  0.00  0.00    +0.000 A 
ATOM      7  C   UNL     1      -7.400   4.391 132.397  0.00  0.00    +0.000 A 
ATOM      8  C   UNL     1      -6.363   5.198 132.833  0.00  0.00    +0.000 A 
ATOM      9 CL   UNL     1      -5.358   4.647 134.117  0.00  0.00    +0.000 Cl
ATOM     10  C   UNL     1      -6.156   6.419 132.226  0.00  0.00    +0.000 A 
ATOM     11  C   UNL     1      -7.007   6.822 131.181  0.00  0.00    +0.000 A 
ATOM     12  C   UNL     1      -9.308   3.812 130.901  0.00  0.00    +0.000 C 
ATOM     13  N   UNL     1     -10.515   4.259 130.581  0.00  0.00    +0.000 N 
ATOM     14  O   UNL     1     -11.441   3.445 130.233  0.00  0.00    +0.000 OA
ATOM     15  C   UNL     1     -10.905   5.680 130.660  0.00  0.00    +0.000 C 
ATOM     16  H   UNL     1     -10.238   7.159 127.716  0.00  0.00    +0.000 HD
ENDROOT
BRANCH  12  17
ATOM     17  C   UNL     1      -9.023   2.352 130.800  0.00  0.00    +0.000 A 
ATOM     18  C   UNL     1      -9.458   1.495 131.812  0.00  0.00    +0.000 A 
ATOM     19  C   UNL     1      -9.068   0.153 131.789  0.00  0.00    +0.000 A 
ATOM     20  C   UNL     1      -8.387  -0.365 130.687  0.00  0.00    +0.000 A 
ATOM     21  C   UNL     1      -8.061   0.461 129.622  0.00  0.00    +0.000 A 
ATOM     22  C   UNL     1      -8.284   1.828 129.735  0.00  0.00    +0.000 A 
ENDBRANCH  12  17
TORSDOF 1
ENDMDL
MODEL 4
REMARK VINA RESULT:      -6.8      2.392      5.088
REMARK  Name = Chlordiazepoxide
REMARK  2 active torsions:
REMARK  status: ('A' for Active; 'I' for Inactive)
REMARK    1  A    between atoms: C_1  and  N_2
REMARK    2  A    between atoms: C_12  and  C_13
REMARK                            x       y       z     vdW  Elec       q    Type
REMARK                         _______ _______ _______ _____ _____    ______ ____
ROOT
ATOM      1  C   UNL     1      -4.111   2.733 129.613  0.00  0.00    +0.000 C 
ATOM      2  N   UNL     1      -3.989   1.401 129.046  0.00  0.00    +0.000 N 
ATOM      3  C   UNL     1      -5.090   0.620 128.715  0.00  0.00    +0.000 C 
ATOM      4  N   UNL     1      -5.145  -0.617 129.099  0.00  0.00    +0.000 NA
ATOM      5  C   UNL     1      -6.257  -1.450 128.786  0.00  0.00    +0.000 A 
ATOM      6  C   UNL     1      -6.888  -1.525 127.530  0.00  0.00    +0.000 A 
ATOM      7  C   UNL     1      -7.961  -2.418 127.349  0.00  0.00    +0.000 A 
ATOM      8  C   UNL     1      -8.397  -3.261 128.356  0.00  0.00    +0.000 A 
ATOM      9 CL   UNL     1      -9.699  -4.341 128.037  0.00  0.00    +0.000 Cl
ATOM     10  C   UNL     1      -7.777  -3.221 129.587  0.00  0.00    +0.000 A 
ATOM     11  C   UNL     1      -6.718  -2.320 129.796  0.00  0.00    +0.000 A 
ATOM     12  C   UNL     1      -6.453  -0.688 126.375  0.00  0.00    +0.000 C 
ATOM     13  N   UNL     1      -6.114   0.581 126.561  0.00  0.00    +0.000 N 
ATOM     14  O   UNL     1      -5.767   1.316 125.571  0.00  0.00    +0.000 OA
ATOM     15  C   UNL     1      -6.170   1.254 127.873  0.00  0.00    +0.000 C 
ATOM     16  H   UNL     1      -3.215   0.866 129.426  0.00  0.00    +0.000 HD
ENDROOT
BRANCH  12  17
ATOM     17  C   UNL     1      -6.374  -1.268 125.004  0.00  0.00    +0.000 A 
ATOM     18  C   UNL     1      -7.393  -1.006 124.087  0.00  0.00    +0.000 A 
ATOM     19  C   UNL     1      -7.391  -1.663 122.853  0.00  0.00    +0.000 A 
ATOM     20  C   UNL     1      -6.302  -2.449 122.474  0.00  0.00    +0.000 A 
ATOM     21  C   UNL     1      -5.229  -2.611 123.338  0.00  0.00    +0.000 A 
ATOM     22  C   UNL     1      -5.322  -2.111 124.631  0.00  0.00    +0.000 A 
ENDBRANCH  12  17
TORSDOF 1
ENDMDL
MODEL 5
REMARK VINA RESULT:      -6.7      3.312      5.091
REMARK  Name = Chlordiazepoxide
REMARK  2 active torsions:
REMARK  status: ('A' for Active; 'I' for Inactive)
REMARK    1  A    between atoms: C_1  and  N_2
REMARK    2  A    between atoms: C_12  and  C_13
REMARK                            x       y       z     vdW  Elec       q    Type
REMARK                         _______ _______ _______ _____ _____    ______ ____
ROOT
ATOM      1  C   UNL     1      -8.343   4.107 119.954  0.00  0.00    +0.000 C 
ATOM      2  N   UNL     1      -8.644   3.828 121.347  0.00  0.00    +0.000 N 
ATOM      3  C   UNL     1      -7.893   2.949 122.119  0.00  0.00    +0.000 C 
ATOM      4  N   UNL     1      -8.486   2.043 122.831  0.00  0.00    +0.000 NA
ATOM      5  C   UNL     1      -7.754   1.121 123.631  0.00  0.00    +0.000 A 
ATOM      6  C   UNL     1      -6.665   1.450 124.460  0.00  0.00    +0.000 A 
ATOM      7  C   UNL     1      -6.050   0.442 125.225  0.00  0.00    +0.000 A 
ATOM      8  C   UNL     1      -6.503  -0.866 125.224  0.00  0.00    +0.000 A 
ATOM      9 CL   UNL     1      -5.707  -2.029 126.212  0.00  0.00    +0.000 Cl
ATOM     10  C   UNL     1      -7.584  -1.206 124.437  0.00  0.00    +0.000 A 
ATOM     11  C   UNL     1      -8.199  -0.218 123.647  0.00  0.00    +0.000 A 
ATOM     12  C   UNL     1      -6.140   2.842 124.561  0.00  0.00    +0.000 C 
ATOM     13  N   UNL     1      -6.039   3.597 123.474  0.00  0.00    +0.000 N 
ATOM     14  O   UNL     1      -5.562   4.783 123.546  0.00  0.00    +0.000 OA
ATOM     15  C   UNL     1      -6.394   3.127 122.121  0.00  0.00    +0.000 C 
ATOM     16  H   UNL     1      -9.639   3.793 121.550  0.00  0.00    +0.000 HD
ENDROOT
BRANCH  12  17
ATOM     17  C   UNL     1      -5.741   3.411 125.880  0.00  0.00    +0.000 A 
ATOM     18  C   UNL     1      -4.386   3.534 126.193  0.00  0.00    +0.000 A 
ATOM     19  C   UNL     1      -4.014   3.932 127.480  0.00  0.00    +0.000 A 
ATOM     20  C   UNL     1      -4.978   4.356 128.395  0.00  0.00    +0.000 A 
ATOM     21  C   UNL     1      -6.319   4.350 128.041  0.00  0.00    +0.000 A 
ATOM     22  C   UNL     1      -6.696   3.778 126.832  0.00  0.00    +0.000 A 
ENDBRANCH  12  17
TORSDOF 1
ENDMDL
MODEL 6
REMARK VINA RESULT:      -6.5      7.204      9.554
REMARK  Name = Chlordiazepoxide
REMARK  2 active torsions:
REMARK  status: ('A' for Active; 'I' for Inactive)
REMARK    1  A    between atoms: C_1  and  N_2
REMARK    2  A    between atoms: C_12  and  C_13
REMARK                            x       y       z     vdW  Elec       q    Type
REMARK                         _______ _______ _______ _____ _____    ______ ____
ROOT
ATOM      1  C   UNL     1      -7.755   5.732 135.423  0.00  0.00    +0.000 C 
ATOM      2  N   UNL     1      -8.607   5.055 134.461  0.00  0.00    +0.000 N 
ATOM      3  C   UNL     1      -8.860   5.560 133.191  0.00  0.00    +0.000 C 
ATOM      4  N   UNL     1     -10.077   5.618 132.748  0.00  0.00    +0.000 NA
ATOM      5  C   UNL     1     -10.379   6.133 131.455  0.00  0.00    +0.000 A 
ATOM      6  C   UNL     1      -9.672   5.834 130.275  0.00  0.00    +0.000 A 
ATOM      7  C   UNL     1     -10.100   6.388 129.055  0.00  0.00    +0.000 A 
ATOM      8  C   UNL     1     -11.222   7.194 128.963  0.00  0.00    +0.000 A 
ATOM      9 CL   UNL     1     -11.688   7.807 127.423  0.00  0.00    +0.000 Cl
ATOM     10  C   UNL     1     -11.943   7.481 130.103  0.00  0.00    +0.000 A 
ATOM     11  C   UNL     1     -11.520   6.954 131.337  0.00  0.00    +0.000 A 
ATOM     12  C   UNL     1      -8.480   4.937 130.274  0.00  0.00    +0.000 C 
ATOM     13  N   UNL     1      -7.585   5.017 131.249  0.00  0.00    +0.000 N 
ATOM     14  O   UNL     1      -6.543   4.272 131.241  0.00  0.00    +0.000 OA
ATOM     15  C   UNL     1      -7.675   5.985 132.359  0.00  0.00    +0.000 C 
ATOM     16  H   UNL     1      -9.411   4.598 134.881  0.00  0.00    +0.000 HD
ENDROOT
BRANCH  12  17
ATOM     17  C   UNL     1      -8.288   3.931 129.190  0.00  0.00    +0.000 A 
ATOM     18  C   UNL     1      -8.874   2.670 129.311  0.00  0.00    +0.000 A 
ATOM     19  C   UNL     1      -8.576   1.683 128.368  0.00  0.00    +0.000 A 
ATOM     20  C   UNL     1      -7.832   1.995 127.230  0.00  0.00    +0.000 A 
ATOM     21  C   UNL     1      -7.351   3.284 127.047  0.00  0.00    +0.000 A 
ATOM     22  C   UNL     1      -7.490   4.208 128.076  0.00  0.00    +0.000 A 
ENDBRANCH  12  17
TORSDOF 1
ENDMDL
MODEL 7
REMARK VINA RESULT:      -6.5      4.472      7.241
REMARK  Name = Chlordiazepoxide
REMARK  2 active torsions:
REMARK  status: ('A' for Active; 'I' for Inactive)
REMARK    1  A    between atoms: C_1  and  N_2
REMARK    2  A    between atoms: C_12  and  C_13
REMARK                            x       y       z     vdW  Elec       q    Type
REMARK                         _______ _______ _______ _____ _____    ______ ____
ROOT
ATOM      1  C   UNL     1      -5.645  -3.849 134.606  0.00  0.00    +0.000 C 
ATOM      2  N   UNL     1      -6.792  -3.640 133.740  0.00  0.00    +0.000 N 
ATOM      3  C   UNL     1      -6.850  -2.618 132.799  0.00  0.00    +0.000 C 
ATOM      4  N   UNL     1      -7.900  -1.861 132.729  0.00  0.00    +0.000 NA
ATOM      5  C   UNL     1      -7.997  -0.800 131.784  0.00  0.00    +0.000 A 
ATOM      6  C   UNL     1      -7.629  -0.884 130.428  0.00  0.00    +0.000 A 
ATOM      7  C   UNL     1      -7.809   0.235 129.594  0.00  0.00    +0.000 A 
ATOM      8  C   UNL     1      -8.374   1.413 130.051  0.00  0.00    +0.000 A 
ATOM      9 CL   UNL     1      -8.581   2.723 128.953  0.00  0.00    +0.000 Cl
ATOM     10  C   UNL     1      -8.764   1.509 131.371  0.00  0.00    +0.000 A 
ATOM     11  C   UNL     1      -8.573   0.409 132.226  0.00  0.00    +0.000 A 
ATOM     12  C   UNL     1      -7.057  -2.129 129.839  0.00  0.00    +0.000 C 
ATOM     13  N   UNL     1      -6.174  -2.845 130.523  0.00  0.00    +0.000 N 
ATOM     14  O   UNL     1      -5.655  -3.899 130.014  0.00  0.00    +0.000 OA
ATOM     15  C   UNL     1      -5.679  -2.465 131.860  0.00  0.00    +0.000 C 
ATOM     16  H   UNL     1      -7.682  -3.822 134.192  0.00  0.00    +0.000 HD
ENDROOT
BRANCH  12  17
ATOM     17  C   UNL     1      -7.481  -2.595 128.488  0.00  0.00    +0.000 A 
ATOM     18  C   UNL     1      -6.751  -2.201 127.365  0.00  0.00    +0.000 A 
ATOM     19  C   UNL     1      -7.229  -2.519 126.091  0.00  0.00    +0.000 A 
ATOM     20  C   UNL     1      -8.335  -3.356 125.940  0.00  0.00    +0.000 A 
ATOM     21  C   UNL     1      -8.989  -3.848 127.060  0.00  0.00    +0.000 A 
ATOM     22  C   UNL     1      -8.625  -3.379 128.316  0.00  0.00    +0.000 A 
ENDBRANCH  12  17
TORSDOF 1
ENDMDL
MODEL 8
REMARK VINA RESULT:      -6.3      9.343     11.199
REMARK  Name = Chlordiazepoxide
REMARK  2 active torsions:
REMARK  status: ('A' for Active; 'I' for Inactive)
REMARK    1  A    between atoms: C_1  and  N_2
REMARK    2  A    between atoms: C_12  and  C_13
REMARK                            x       y       z     vdW  Elec       q    Type
REMARK                         _______ _______ _______ _____ _____    ______ ____
ROOT
ATOM      1  C   UNL     1      -3.346   5.031 137.040  0.00  0.00    +0.000 C 
ATOM      2  N   UNL     1      -3.709   4.496 135.738  0.00  0.00    +0.000 N 
ATOM      3  C   UNL     1      -4.489   5.197 134.827  0.00  0.00    +0.000 C 
ATOM      4  N   UNL     1      -5.495   4.615 134.253  0.00  0.00    +0.000 NA
ATOM      5  C   UNL     1      -6.323   5.299 133.317  0.00  0.00    +0.000 A 
ATOM      6  C   UNL     1      -5.861   6.133 132.281  0.00  0.00    +0.000 A 
ATOM      7  C   UNL     1      -6.790   6.723 131.404  0.00  0.00    +0.000 A 
ATOM      8  C   UNL     1      -8.150   6.483 131.499  0.00  0.00    +0.000 A 
ATOM      9 CL   UNL     1      -9.212   7.226 130.366  0.00  0.00    +0.000 Cl
ATOM     10  C   UNL     1      -8.622   5.650 132.492  0.00  0.00    +0.000 A 
ATOM     11  C   UNL     1      -7.712   5.067 133.392  0.00  0.00    +0.000 A 
ATOM     12  C   UNL     1      -4.410   6.409 132.075  0.00  0.00    +0.000 C 
ATOM     13  N   UNL     1      -3.617   6.615 133.118  0.00  0.00    +0.000 N 
ATOM     14  O   UNL     1      -2.375   6.882 132.951  0.00  0.00    +0.000 OA
ATOM     15  C   UNL     1      -4.093   6.620 134.515  0.00  0.00    +0.000 C 
ATOM     16  H   UNL     1      -3.896   3.499 135.746  0.00  0.00    +0.000 HD
ENDROOT
BRANCH  12  17
ATOM     17  C   UNL     1      -3.829   6.439 130.703  0.00  0.00    +0.000 A 
ATOM     18  C   UNL     1      -3.302   5.270 130.153  0.00  0.00    +0.000 A 
ATOM     19  C   UNL     1      -2.631   5.329 128.929  0.00  0.00    +0.000 A 
ATOM     20  C   UNL     1      -2.626   6.509 128.184  0.00  0.00    +0.000 A 
ATOM     21  C   UNL     1      -3.257   7.642 128.674  0.00  0.00    +0.000 A 
ATOM     22  C   UNL     1      -3.757   7.629 129.971  0.00  0.00    +0.000 A 
ENDBRANCH  12  17
TORSDOF 1
ENDMDL
MODEL 9
REMARK VINA RESULT:      -6.3      2.863      5.639
REMARK  Name = Chlordiazepoxide
REMARK  2 active torsions:
REMARK  status: ('A' for Active; 'I' for Inactive)
REMARK    1  A    between atoms: C_1  and  N_2
REMARK    2  A    between atoms: C_12  and  C_13
REMARK                            x       y       z     vdW  Elec       q    Type
REMARK                         _______ _______ _______ _____ _____    ______ ____
ROOT
ATOM      1  C   UNL     1      -7.190   2.080 131.461  0.00  0.00    +0.000 C 
ATOM      2  N   UNL     1      -6.572   1.645 130.221  0.00  0.00    +0.000 N 
ATOM      3  C   UNL     1      -7.284   1.021 129.203  0.00  0.00    +0.000 C 
ATOM      4  N   UNL     1      -6.826  -0.065 128.665  0.00  0.00    +0.000 NA
ATOM      5  C   UNL     1      -7.527  -0.738 127.623  0.00  0.00    +0.000 A 
ATOM      6  C   UNL     1      -8.127  -0.115 126.513  0.00  0.00    +0.000 A 
ATOM      7  C   UNL     1      -8.762  -0.906 125.537  0.00  0.00    +0.000 A 
ATOM      8  C   UNL     1      -8.786  -2.288 125.608  0.00  0.00    +0.000 A 
ATOM      9 CL   UNL     1      -9.562  -3.177 124.355  0.00  0.00    +0.000 Cl
ATOM     10  C   UNL     1      -8.183  -2.921 126.676  0.00  0.00    +0.000 A 
ATOM     11  C   UNL     1      -7.562  -2.148 127.673  0.00  0.00    +0.000 A 
ATOM     12  C   UNL     1      -8.108   1.365 126.331  0.00  0.00    +0.000 C 
ATOM     13  N   UNL     1      -8.295   2.167 127.371  0.00  0.00    +0.000 N 
ATOM     14  O   UNL     1      -8.311   3.439 127.220  0.00  0.00    +0.000 OA
ATOM     15  C   UNL     1      -8.561   1.678 128.738  0.00  0.00    +0.000 C 
ATOM     16  H   UNL     1      -5.634   1.277 130.341  0.00  0.00    +0.000 HD
ENDROOT
BRANCH  12  17
ATOM     17  C   UNL     1      -7.862   1.962 124.988  0.00  0.00    +0.000 A 
ATOM     18  C   UNL     1      -6.551   2.204 124.573  0.00  0.00    +0.000 A 
ATOM     19  C   UNL     1      -6.326   2.893 123.378  0.00  0.00    +0.000 A 
ATOM     20  C   UNL     1      -7.390   3.196 122.527  0.00  0.00    +0.000 A 
ATOM     21  C   UNL     1      -8.684   2.845 122.882  0.00  0.00    +0.000 A 
ATOM     22  C   UNL     1      -8.920   2.332 124.152  0.00  0.00    +0.000 A 
ENDBRANCH  12  17
TORSDOF 1
ENDMDL
