MODEL 1
REMARK VINA RESULT:      -5.9      0.000      0.000
REMARK  Name = Chlorambucil
REMARK  10 active torsions:
REMARK  status: ('A' for Active; 'I' for Inactive)
REMARK    1  A    between atoms: O_1  and  C_2
REMARK    2  A    between atoms: C_2  and  C_4
REMARK    3  A    between atoms: C_4  and  C_5
REMARK    4  A    between atoms: C_5  and  C_6
REMARK    5  A    between atoms: C_6  and  C_7
REMARK    6  A    between atoms: C_10  and  N_13
REMARK    7  A    between atoms: N_13  and  C_14
REMARK    8  A    between atoms: N_13  and  C_17
REMARK    9  A    between atoms: C_14  and  C_15
REMARK   10  A    between atoms: C_17  and  C_18
REMARK                            x       y       z     vdW  Elec       q    Type
REMARK                         _______ _______ _______ _____ _____    ______ ____
ROOT
ATOM      1  C   UNL     1     -11.505   7.129 130.349  0.00  0.00    +0.000 A 
ATOM      2  C   UNL     1     -11.644   6.436 131.518  0.00  0.00    +0.000 A 
ATOM      3  C   UNL     1     -10.509   6.142 132.251  0.00  0.00    +0.000 A 
ATOM      4  C   UNL     1      -9.177   6.292 131.829  0.00  0.00    +0.000 A 
ATOM      5  C   UNL     1      -9.075   6.968 130.606  0.00  0.00    +0.000 A 
ATOM      6  C   UNL     1     -10.212   7.380 129.882  0.00  0.00    +0.000 A 
ENDROOT
BRANCH   1   7
ATOM      7  C   UNL     1     -12.746   7.677 129.717  0.00  0.00    +0.000 C 
BRANCH   7   8
ATOM      8  C   UNL     1     -12.399   8.922 128.920  0.00  0.00    +0.000 C 
BRANCH   8   9
ATOM      9  C   UNL     1     -13.592   9.848 128.766  0.00  0.00    +0.000 C 
BRANCH   9  10
ATOM     10  C   UNL     1     -13.460  10.993 129.740  0.00  0.00    +0.000 C 
ATOM     11  O   UNL     1     -13.358  10.868 130.957  0.00  0.00    +0.000 OA
BRANCH  10  12
ATOM     12  O   UNL     1     -13.455  12.204 129.150  0.00  0.00    +0.000 OA
ATOM     13  H   UNL     1     -13.372  12.958 129.764  0.00  0.00    +0.000 HD
ENDBRANCH  10  12
ENDBRANCH   9  10
ENDBRANCH   8   9
ENDBRANCH   7   8
ENDBRANCH   1   7
BRANCH   4  14
ATOM     14  N   UNL     1      -8.065   5.838 132.549  0.00  0.00    +0.000 N 
BRANCH  14  15
ATOM     15  C   UNL     1      -6.680   5.665 132.004  0.00  0.00    +0.000 C 
BRANCH  15  16
ATOM     16  C   UNL     1      -6.365   4.411 131.219  0.00  0.00    +0.000 C 
ATOM     17 CL   UNL     1      -6.430   4.565 129.460  0.00  0.00    +0.000 Cl
ENDBRANCH  15  16
ENDBRANCH  14  15
BRANCH  14  18
ATOM     18  C   UNL     1      -8.186   5.750 134.046  0.00  0.00    +0.000 C 
BRANCH  18  19
ATOM     19  C   UNL     1      -8.167   4.321 134.611  0.00  0.00    +0.000 C 
ATOM     20 CL   UNL     1      -9.005   3.165 133.549  0.00  0.00    +0.000 Cl
ENDBRANCH  18  19
ENDBRANCH  14  18
ENDBRANCH   4  14
TORSDOF 10
ENDMDL
MODEL 2
REMARK VINA RESULT:      -5.9     10.963     11.330
REMARK  Name = Chlorambucil
REMARK  10 active torsions:
REMARK  status: ('A' for Active; 'I' for Inactive)
REMARK    1  A    between atoms: O_1  and  C_2
REMARK    2  A    between atoms: C_2  and  C_4
REMARK    3  A    between atoms: C_4  and  C_5
REMARK    4  A    between atoms: C_5  and  C_6
REMARK    5  A    between atoms: C_6  and  C_7
REMARK    6  A    between atoms: C_10  and  N_13
REMARK    7  A    between atoms: N_13  and  C_14
REMARK    8  A    between atoms: N_13  and  C_17
REMARK    9  A    between atoms: C_14  and  C_15
REMARK   10  A    between atoms: C_17  and  C_18
REMARK                            x       y       z     vdW  Elec       q    Type
REMARK                         _______ _______ _______ _____ _____    ______ ____
ROOT
ATOM      1  C   UNL     1      -8.396  -3.095 126.859  0.00  0.00    +0.000 A 
ATOM      2  C   UNL     1      -8.715  -3.651 128.065  0.00  0.00    +0.000 A 
ATOM      3  C   UNL     1      -7.929  -3.347 129.162  0.00  0.00    +0.000 A 
ATOM      4  C   UNL     1      -6.691  -2.683 129.146  0.00  0.00    +0.000 A 
ATOM      5  C   UNL     1      -6.377  -2.162 127.884  0.00  0.00    +0.000 A 
ATOM      6  C   UNL     1      -7.210  -2.362 126.764  0.00  0.00    +0.000 A 
ENDROOT
BRANCH   1   7
ATOM      7  C   UNL     1      -9.403  -3.207 125.758  0.00  0.00    +0.000 C 
BRANCH   7   8
ATOM      8  C   UNL     1      -8.702  -3.608 124.471  0.00  0.00    +0.000 C 
BRANCH   8   9
ATOM      9  C   UNL     1      -9.419  -3.075 123.244  0.00  0.00    +0.000 C 
BRANCH   9  10
ATOM     10  C   UNL     1      -9.037  -1.631 123.035  0.00  0.00    +0.000 C 
ATOM     11  O   UNL     1      -7.908  -1.175 123.196  0.00  0.00    +0.000 OA
BRANCH  10  12
ATOM     12  O   UNL     1     -10.063  -0.854 122.637  0.00  0.00    +0.000 OA
ATOM     13  H   UNL     1     -10.250  -0.094 123.219  0.00  0.00    +0.000 HD
ENDBRANCH  10  12
ENDBRANCH   9  10
ENDBRANCH   8   9
ENDBRANCH   7   8
ENDBRANCH   1   7
BRANCH   4  14
ATOM     14  N   UNL     1      -5.862  -2.532 130.265  0.00  0.00    +0.000 N 
BRANCH  14  15
ATOM     15  C   UNL     1      -4.560  -1.790 130.297  0.00  0.00    +0.000 C 
BRANCH  15  16
ATOM     16  C   UNL     1      -3.275  -2.581 130.188  0.00  0.00    +0.000 C 
ATOM     17 CL   UNL     1      -3.224  -3.798 128.908  0.00  0.00    +0.000 Cl
ENDBRANCH  15  16
ENDBRANCH  14  15
BRANCH  14  18
ATOM     18  C   UNL     1      -6.416  -2.921 131.608  0.00  0.00    +0.000 C 
BRANCH  18  19
ATOM     19  C   UNL     1      -5.826  -4.211 132.200  0.00  0.00    +0.000 C 
ATOM     20 CL   UNL     1      -5.546  -5.455 130.960  0.00  0.00    +0.000 Cl
ENDBRANCH  18  19
ENDBRANCH  14  18
ENDBRANCH   4  14
TORSDOF 10
ENDMDL
MODEL 3
REMARK VINA RESULT:      -5.8      2.392      2.680
REMARK  Name = Chlorambucil
REMARK  10 active torsions:
REMARK  status: ('A' for Active; 'I' for Inactive)
REMARK    1  A    between atoms: O_1  and  C_2
REMARK    2  A    between atoms: C_2  and  C_4
REMARK    3  A    between atoms: C_4  and  C_5
REMARK    4  A    between atoms: C_5  and  C_6
REMARK    5  A    between atoms: C_6  and  C_7
REMARK    6  A    between atoms: C_10  and  N_13
REMARK    7  A    between atoms: N_13  and  C_14
REMARK    8  A    between atoms: N_13  and  C_17
REMARK    9  A    between atoms: C_14  and  C_15
REMARK   10  A    between atoms: C_17  and  C_18
REMARK                            x       y       z     vdW  Elec       q    Type
REMARK                         _______ _______ _______ _____ _____    ______ ____
ROOT
ATOM      1  C   UNL     1     -11.311   7.061 130.663  0.00  0.00    +0.000 A 
ATOM      2  C   UNL     1     -11.365   6.337 131.820  0.00  0.00    +0.000 A 
ATOM      3  C   UNL     1     -10.179   6.011 132.452  0.00  0.00    +0.000 A 
ATOM      4  C   UNL     1      -8.883   6.161 131.930  0.00  0.00    +0.000 A 
ATOM      5  C   UNL     1      -8.870   6.870 130.722  0.00  0.00    +0.000 A 
ATOM      6  C   UNL     1     -10.056   7.313 130.101  0.00  0.00    +0.000 A 
ENDROOT
BRANCH   1   7
ATOM      7  C   UNL     1     -12.591   7.638 130.146  0.00  0.00    +0.000 C 
BRANCH   7   8
ATOM      8  C   UNL     1     -13.072   6.820 128.960  0.00  0.00    +0.000 C 
BRANCH   8   9
ATOM      9  C   UNL     1     -13.180   7.658 127.700  0.00  0.00    +0.000 C 
BRANCH   9  10
ATOM     10  C   UNL     1     -11.887   7.564 126.929  0.00  0.00    +0.000 C 
ATOM     11  O   UNL     1     -10.992   8.404 126.959  0.00  0.00    +0.000 OA
BRANCH  10  12
ATOM     12  O   UNL     1     -11.783   6.446 126.185  0.00  0.00    +0.000 OA
ATOM     13  H   UNL     1     -12.252   5.670 126.544  0.00  0.00    +0.000 HD
ENDBRANCH  10  12
ENDBRANCH   9  10
ENDBRANCH   8   9
ENDBRANCH   7   8
ENDBRANCH   1   7
BRANCH   4  14
ATOM     14  N   UNL     1      -7.723   5.676 132.547  0.00  0.00    +0.000 N 
BRANCH  14  15
ATOM     15  C   UNL     1      -6.405   5.442 131.874  0.00  0.00    +0.000 C 
BRANCH  15  16
ATOM     16  C   UNL     1      -5.330   6.498 132.005  0.00  0.00    +0.000 C 
ATOM     17 CL   UNL     1      -4.194   6.282 133.341  0.00  0.00    +0.000 Cl
ENDBRANCH  15  16
ENDBRANCH  14  15
BRANCH  14  18
ATOM     18  C   UNL     1      -7.700   5.616 134.050  0.00  0.00    +0.000 C 
BRANCH  18  19
ATOM     19  C   UNL     1      -7.651   4.197 134.638  0.00  0.00    +0.000 C 
ATOM     20 CL   UNL     1      -8.689   3.062 133.744  0.00  0.00    +0.000 Cl
ENDBRANCH  18  19
ENDBRANCH  14  18
ENDBRANCH   4  14
TORSDOF 10
ENDMDL
MODEL 4
REMARK VINA RESULT:      -5.8      9.954     10.897
REMARK  Name = Chlorambucil
REMARK  10 active torsions:
REMARK  status: ('A' for Active; 'I' for Inactive)
REMARK    1  A    between atoms: O_1  and  C_2
REMARK    2  A    between atoms: C_2  and  C_4
REMARK    3  A    between atoms: C_4  and  C_5
REMARK    4  A    between atoms: C_5  and  C_6
REMARK    5  A    between atoms: C_6  and  C_7
REMARK    6  A    between atoms: C_10  and  N_13
REMARK    7  A    between atoms: N_13  and  C_14
REMARK    8  A    between atoms: N_13  and  C_17
REMARK    9  A    between atoms: C_14  and  C_15
REMARK   10  A    between atoms: C_17  and  C_18
REMARK                            x       y       z     vdW  Elec       q    Type
REMARK                         _______ _______ _______ _____ _____    ______ ____
ROOT
ATOM      1  C   UNL     1      -6.690   2.325 123.751  0.00  0.00    +0.000 A 
ATOM      2  C   UNL     1      -6.232   2.042 125.007  0.00  0.00    +0.000 A 
ATOM      3  C   UNL     1      -6.447   0.775 125.518  0.00  0.00    +0.000 A 
ATOM      4  C   UNL     1      -7.278  -0.219 124.974  0.00  0.00    +0.000 A 
ATOM      5  C   UNL     1      -7.763   0.124 123.705  0.00  0.00    +0.000 A 
ATOM      6  C   UNL     1      -7.476   1.366 123.104  0.00  0.00    +0.000 A 
ENDROOT
BRANCH   1   7
ATOM      7  C   UNL     1      -6.214   3.590 123.109  0.00  0.00    +0.000 C 
BRANCH   7   8
ATOM      8  C   UNL     1      -6.394   3.492 121.604  0.00  0.00    +0.000 C 
BRANCH   8   9
ATOM      9  C   UNL     1      -5.119   3.838 120.857  0.00  0.00    +0.000 C 
BRANCH   9  10
ATOM     10  C   UNL     1      -5.326   5.122 120.093  0.00  0.00    +0.000 C 
ATOM     11  O   UNL     1      -4.730   6.172 120.316  0.00  0.00    +0.000 OA
BRANCH  10  12
ATOM     12  O   UNL     1      -6.240   5.023 119.109  0.00  0.00    +0.000 OA
ATOM     13  H   UNL     1      -7.167   5.095 119.403  0.00  0.00    +0.000 HD
ENDBRANCH  10  12
ENDBRANCH   9  10
ENDBRANCH   8   9
ENDBRANCH   7   8
ENDBRANCH   1   7
BRANCH   4  14
ATOM     14  N   UNL     1      -7.580  -1.430 125.609  0.00  0.00    +0.000 N 
BRANCH  14  15
ATOM     15  C   UNL     1      -7.306  -2.798 125.062  0.00  0.00    +0.000 C 
BRANCH  15  16
ATOM     16  C   UNL     1      -8.482  -3.684 124.714  0.00  0.00    +0.000 C 
ATOM     17 CL   UNL     1      -9.431  -3.192 123.308  0.00  0.00    +0.000 Cl
ENDBRANCH  15  16
ENDBRANCH  14  15
BRANCH  14  18
ATOM     18  C   UNL     1      -7.981  -1.382 127.058  0.00  0.00    +0.000 C 
BRANCH  18  19
ATOM     19  C   UNL     1      -7.433  -2.534 127.916  0.00  0.00    +0.000 C 
ATOM     20 CL   UNL     1      -8.716  -3.645 128.450  0.00  0.00    +0.000 Cl
ENDBRANCH  18  19
ENDBRANCH  14  18
ENDBRANCH   4  14
TORSDOF 10
ENDMDL
MODEL 5
REMARK VINA RESULT:      -5.7      2.361      2.680
REMARK  Name = Chlorambucil
REMARK  10 active torsions:
REMARK  status: ('A' for Active; 'I' for Inactive)
REMARK    1  A    between atoms: O_1  and  C_2
REMARK    2  A    between atoms: C_2  and  C_4
REMARK    3  A    between atoms: C_4  and  C_5
REMARK    4  A    between atoms: C_5  and  C_6
REMARK    5  A    between atoms: C_6  and  C_7
REMARK    6  A    between atoms: C_10  and  N_13
REMARK    7  A    between atoms: N_13  and  C_14
REMARK    8  A    between atoms: N_13  and  C_17
REMARK    9  A    between atoms: C_14  and  C_15
REMARK   10  A    between atoms: C_17  and  C_18
REMARK                            x       y       z     vdW  Elec       q    Type
REMARK                         _______ _______ _______ _____ _____    ______ ____
ROOT
ATOM      1  C   UNL     1     -11.932   6.332 131.024  0.00  0.00    +0.000 A 
ATOM      2  C   UNL     1     -11.179   6.549 132.143  0.00  0.00    +0.000 A 
ATOM      3  C   UNL     1     -10.031   5.799 132.322  0.00  0.00    +0.000 A 
ATOM      4  C   UNL     1      -9.644   4.670 131.580  0.00  0.00    +0.000 A 
ATOM      5  C   UNL     1     -10.464   4.453 130.465  0.00  0.00    +0.000 A 
ATOM      6  C   UNL     1     -11.583   5.266 130.191  0.00  0.00    +0.000 A 
ENDROOT
BRANCH   1   7
ATOM      7  C   UNL     1     -13.002   7.328 130.707  0.00  0.00    +0.000 C 
BRANCH   7   8
ATOM      8  C   UNL     1     -12.435   8.408 129.802  0.00  0.00    +0.000 C 
BRANCH   8   9
ATOM      9  C   UNL     1     -12.934   8.273 128.375  0.00  0.00    +0.000 C 
BRANCH   9  10
ATOM     10  C   UNL     1     -11.789   7.854 127.487  0.00  0.00    +0.000 C 
ATOM     11  O   UNL     1     -11.774   6.838 126.798  0.00  0.00    +0.000 OA
BRANCH  10  12
ATOM     12  O   UNL     1     -10.752   8.713 127.502  0.00  0.00    +0.000 OA
ATOM     13  H   UNL     1     -10.432   8.985 126.622  0.00  0.00    +0.000 HD
ENDBRANCH  10  12
ENDBRANCH   9  10
ENDBRANCH   8   9
ENDBRANCH   7   8
ENDBRANCH   1   7
BRANCH   4  14
ATOM     14  N   UNL     1      -8.550   3.855 131.897  0.00  0.00    +0.000 N 
BRANCH  14  15
ATOM     15  C   UNL     1      -7.237   3.830 131.175  0.00  0.00    +0.000 C 
BRANCH  15  16
ATOM     16  C   UNL     1      -6.658   5.139 130.686  0.00  0.00    +0.000 C 
ATOM     17 CL   UNL     1      -6.476   6.406 131.904  0.00  0.00    +0.000 Cl
ENDBRANCH  15  16
ENDBRANCH  14  15
BRANCH  14  18
ATOM     18  C   UNL     1      -8.578   3.120 133.210  0.00  0.00    +0.000 C 
BRANCH  18  19
ATOM     19  C   UNL     1      -7.457   3.504 134.188  0.00  0.00    +0.000 C 
ATOM     20 CL   UNL     1      -7.870   4.936 135.159  0.00  0.00    +0.000 Cl
ENDBRANCH  18  19
ENDBRANCH  14  18
ENDBRANCH   4  14
TORSDOF 10
ENDMDL
MODEL 6
REMARK VINA RESULT:      -5.7      2.504      2.996
REMARK  Name = Chlorambucil
REMARK  10 active torsions:
REMARK  status: ('A' for Active; 'I' for Inactive)
REMARK    1  A    between atoms: O_1  and  C_2
REMARK    2  A    between atoms: C_2  and  C_4
REMARK    3  A    between atoms: C_4  and  C_5
REMARK    4  A    between atoms: C_5  and  C_6
REMARK    5  A    between atoms: C_6  and  C_7
REMARK    6  A    between atoms: C_10  and  N_13
REMARK    7  A    between atoms: N_13  and  C_14
REMARK    8  A    between atoms: N_13  and  C_17
REMARK    9  A    between atoms: C_14  and  C_15
REMARK   10  A    between atoms: C_17  and  C_18
REMARK                            x       y       z     vdW  Elec       q    Type
REMARK                         _______ _______ _______ _____ _____    ______ ____
ROOT
ATOM      1  C   UNL     1     -11.092   7.129 130.671  0.00  0.00    +0.000 A 
ATOM      2  C   UNL     1     -11.398   6.387 131.777  0.00  0.00    +0.000 A 
ATOM      3  C   UNL     1     -10.365   5.802 132.487  0.00  0.00    +0.000 A 
ATOM      4  C   UNL     1      -9.022   5.704 132.084  0.00  0.00    +0.000 A 
ATOM      5  C   UNL     1      -8.754   6.443 130.924  0.00  0.00    +0.000 A 
ATOM      6  C   UNL     1      -9.765   7.142 130.233  0.00  0.00    +0.000 A 
ENDROOT
BRANCH   1   7
ATOM      7  C   UNL     1     -12.177   7.975 130.084  0.00  0.00    +0.000 C 
BRANCH   7   8
ATOM      8  C   UNL     1     -12.988   7.146 129.102  0.00  0.00    +0.000 C 
BRANCH   8   9
ATOM      9  C   UNL     1     -13.106   7.824 127.749  0.00  0.00    +0.000 C 
BRANCH   9  10
ATOM     10  C   UNL     1     -11.830   7.608 126.973  0.00  0.00    +0.000 C 
ATOM     11  O   UNL     1     -10.865   8.366 126.989  0.00  0.00    +0.000 OA
BRANCH  10  12
ATOM     12  O   UNL     1     -11.829   6.476 126.243  0.00  0.00    +0.000 OA
ATOM     13  H   UNL     1     -12.649   6.312 125.741  0.00  0.00    +0.000 HD
ENDBRANCH  10  12
ENDBRANCH   9  10
ENDBRANCH   8   9
ENDBRANCH   7   8
ENDBRANCH   1   7
BRANCH   4  14
ATOM     14  N   UNL     1      -8.045   4.969 132.768  0.00  0.00    +0.000 N 
BRANCH  14  15
ATOM     15  C   UNL     1      -7.553   3.604 132.393  0.00  0.00    +0.000 C 
BRANCH  15  16
ATOM     16  C   UNL     1      -8.274   2.399 132.955  0.00  0.00    +0.000 C 
ATOM     17 CL   UNL     1      -9.857   2.047 132.252  0.00  0.00    +0.000 Cl
ENDBRANCH  15  16
ENDBRANCH  14  15
BRANCH  14  18
ATOM     18  C   UNL     1      -7.233   5.684 133.813  0.00  0.00    +0.000 C 
BRANCH  18  19
ATOM     19  C   UNL     1      -7.415   5.153 135.245  0.00  0.00    +0.000 C 
ATOM     20 CL   UNL     1      -7.852   6.443 136.390  0.00  0.00    +0.000 Cl
ENDBRANCH  18  19
ENDBRANCH  14  18
ENDBRANCH   4  14
TORSDOF 10
ENDMDL
MODEL 7
REMARK VINA RESULT:      -5.7      9.307     11.043
REMARK  Name = Chlorambucil
REMARK  10 active torsions:
REMARK  status: ('A' for Active; 'I' for Inactive)
REMARK    1  A    between atoms: O_1  and  C_2
REMARK    2  A    between atoms: C_2  and  C_4
REMARK    3  A    between atoms: C_4  and  C_5
REMARK    4  A    between atoms: C_5  and  C_6
REMARK    5  A    between atoms: C_6  and  C_7
REMARK    6  A    between atoms: C_10  and  N_13
REMARK    7  A    between atoms: N_13  and  C_14
REMARK    8  A    between atoms: N_13  and  C_17
REMARK    9  A    between atoms: C_14  and  C_15
REMARK   10  A    between atoms: C_17  and  C_18
REMARK                            x       y       z     vdW  Elec       q    Type
REMARK                         _______ _______ _______ _____ _____    ______ ____
ROOT
ATOM      1  C   UNL     1      -8.622  -2.939 126.980  0.00  0.00    +0.000 A 
ATOM      2  C   UNL     1      -8.855  -3.727 128.072  0.00  0.00    +0.000 A 
ATOM      3  C   UNL     1      -8.250  -3.391 129.270  0.00  0.00    +0.000 A 
ATOM      4  C   UNL     1      -7.238  -2.435 129.459  0.00  0.00    +0.000 A 
ATOM      5  C   UNL     1      -6.997  -1.675 128.307  0.00  0.00    +0.000 A 
ATOM      6  C   UNL     1      -7.674  -1.919 127.094  0.00  0.00    +0.000 A 
ENDROOT
BRANCH   1   7
ATOM      7  C   UNL     1      -9.490  -3.147 125.780  0.00  0.00    +0.000 C 
BRANCH   7   8
ATOM      8  C   UNL     1      -8.620  -3.470 124.577  0.00  0.00    +0.000 C 
BRANCH   8   9
ATOM      9  C   UNL     1      -9.286  -3.076 123.272  0.00  0.00    +0.000 C 
BRANCH   9  10
ATOM     10  C   UNL     1      -9.114  -1.594 123.054  0.00  0.00    +0.000 C 
ATOM     11  O   UNL     1     -10.010  -0.828 122.711  0.00  0.00    +0.000 OA
BRANCH  10  12
ATOM     12  O   UNL     1      -7.859  -1.158 123.280  0.00  0.00    +0.000 OA
ATOM     13  H   UNL     1      -7.593  -0.384 122.750  0.00  0.00    +0.000 HD
ENDBRANCH  10  12
ENDBRANCH   9  10
ENDBRANCH   8   9
ENDBRANCH   7   8
ENDBRANCH   1   7
BRANCH   4  14
ATOM     14  N   UNL     1      -6.552  -2.239 130.664  0.00  0.00    +0.000 N 
BRANCH  14  15
ATOM     15  C   UNL     1      -7.183  -1.991 132.001  0.00  0.00    +0.000 C 
BRANCH  15  16
ATOM     16  C   UNL     1      -7.551  -0.571 132.372  0.00  0.00    +0.000 C 
ATOM     17 CL   UNL     1      -9.099   0.013 131.752  0.00  0.00    +0.000 Cl
ENDBRANCH  15  16
ENDBRANCH  14  15
BRANCH  14  18
ATOM     18  C   UNL     1      -5.080  -2.545 130.692  0.00  0.00    +0.000 C 
BRANCH  18  19
ATOM     19  C   UNL     1      -4.698  -3.927 130.138  0.00  0.00    +0.000 C 
ATOM     20 CL   UNL     1      -5.558  -5.246 130.965  0.00  0.00    +0.000 Cl
ENDBRANCH  18  19
ENDBRANCH  14  18
ENDBRANCH   4  14
TORSDOF 10
ENDMDL
MODEL 8
REMARK VINA RESULT:      -5.7      2.321      3.380
REMARK  Name = Chlorambucil
REMARK  10 active torsions:
REMARK  status: ('A' for Active; 'I' for Inactive)
REMARK    1  A    between atoms: O_1  and  C_2
REMARK    2  A    between atoms: C_2  and  C_4
REMARK    3  A    between atoms: C_4  and  C_5
REMARK    4  A    between atoms: C_5  and  C_6
REMARK    5  A    between atoms: C_6  and  C_7
REMARK    6  A    between atoms: C_10  and  N_13
REMARK    7  A    between atoms: N_13  and  C_14
REMARK    8  A    between atoms: N_13  and  C_17
REMARK    9  A    between atoms: C_14  and  C_15
REMARK   10  A    between atoms: C_17  and  C_18
REMARK                            x       y       z     vdW  Elec       q    Type
REMARK                         _______ _______ _______ _____ _____    ______ ____
ROOT
ATOM      1  C   UNL     1     -11.210   6.972 130.759  0.00  0.00    +0.000 A 
ATOM      2  C   UNL     1     -11.108   6.332 131.961  0.00  0.00    +0.000 A 
ATOM      3  C   UNL     1      -9.847   6.086 132.474  0.00  0.00    +0.000 A 
ATOM      4  C   UNL     1      -8.624   6.234 131.798  0.00  0.00    +0.000 A 
ATOM      5  C   UNL     1      -8.772   6.855 130.551  0.00  0.00    +0.000 A 
ATOM      6  C   UNL     1     -10.036   7.218 130.042  0.00  0.00    +0.000 A 
ENDROOT
BRANCH   1   7
ATOM      7  C   UNL     1     -12.560   7.474 130.355  0.00  0.00    +0.000 C 
BRANCH   7   8
ATOM      8  C   UNL     1     -12.408   8.479 129.226  0.00  0.00    +0.000 C 
BRANCH   8   9
ATOM      9  C   UNL     1     -12.987   7.960 127.922  0.00  0.00    +0.000 C 
BRANCH   9  10
ATOM     10  C   UNL     1     -11.860   7.654 126.967  0.00  0.00    +0.000 C 
ATOM     11  O   UNL     1     -10.842   8.329 126.847  0.00  0.00    +0.000 OA
BRANCH  10  12
ATOM     12  O   UNL     1     -12.061   6.540 126.236  0.00  0.00    +0.000 OA
ATOM     13  H   UNL     1     -12.833   6.575 125.641  0.00  0.00    +0.000 HD
ENDBRANCH  10  12
ENDBRANCH   9  10
ENDBRANCH   8   9
ENDBRANCH   7   8
ENDBRANCH   1   7
BRANCH   4  14
ATOM     14  N   UNL     1      -7.385   5.828 132.310  0.00  0.00    +0.000 N 
BRANCH  14  15
ATOM     15  C   UNL     1      -7.135   4.595 133.125  0.00  0.00    +0.000 C 
BRANCH  15  16
ATOM     16  C   UNL     1      -7.609   3.264 132.582  0.00  0.00    +0.000 C 
ATOM     17 CL   UNL     1      -9.156   2.682 133.207  0.00  0.00    +0.000 Cl
ENDBRANCH  15  16
ENDBRANCH  14  15
BRANCH  14  18
ATOM     18  C   UNL     1      -6.154   6.532 131.809  0.00  0.00    +0.000 C 
BRANCH  18  19
ATOM     19  C   UNL     1      -5.282   5.702 130.853  0.00  0.00    +0.000 C 
ATOM     20 CL   UNL     1      -4.171   6.716 129.903  0.00  0.00    +0.000 Cl
ENDBRANCH  18  19
ENDBRANCH  14  18
ENDBRANCH   4  14
TORSDOF 10
ENDMDL
MODEL 9
REMARK VINA RESULT:      -5.6      2.560      3.249
REMARK  Name = Chlorambucil
REMARK  10 active torsions:
REMARK  status: ('A' for Active; 'I' for Inactive)
REMARK    1  A    between atoms: O_1  and  C_2
REMARK    2  A    between atoms: C_2  and  C_4
REMARK    3  A    between atoms: C_4  and  C_5
REMARK    4  A    between atoms: C_5  and  C_6
REMARK    5  A    between atoms: C_6  and  C_7
REMARK    6  A    between atoms: C_10  and  N_13
REMARK    7  A    between atoms: N_13  and  C_14
REMARK    8  A    between atoms: N_13  and  C_17
REMARK    9  A    between atoms: C_14  and  C_15
REMARK   10  A    between atoms: C_17  and  C_18
REMARK                            x       y       z     vdW  Elec       q    Type
REMARK                         _______ _______ _______ _____ _____    ______ ____
ROOT
ATOM      1  C   UNL     1     -11.389   6.728 130.413  0.00  0.00    +0.000 A 
ATOM      2  C   UNL     1     -11.596   5.380 130.501  0.00  0.00    +0.000 A 
ATOM      3  C   UNL     1     -10.519   4.564 130.799  0.00  0.00    +0.000 A 
ATOM      4  C   UNL     1      -9.165   4.939 130.821  0.00  0.00    +0.000 A 
ATOM      5  C   UNL     1      -8.989   6.323 130.686  0.00  0.00    +0.000 A 
ATOM      6  C   UNL     1     -10.075   7.199 130.488  0.00  0.00    +0.000 A 
ENDROOT
BRANCH   1   7
ATOM      7  C   UNL     1     -12.595   7.611 130.368  0.00  0.00    +0.000 C 
BRANCH   7   8
ATOM      8  C   UNL     1     -12.478   8.567 129.194  0.00  0.00    +0.000 C 
BRANCH   8   9
ATOM      9  C   UNL     1     -12.967   7.941 127.901  0.00  0.00    +0.000 C 
BRANCH   9  10
ATOM     10  C   UNL     1     -11.786   7.669 127.003  0.00  0.00    +0.000 C 
ATOM     11  O   UNL     1     -10.757   8.339 126.979  0.00  0.00    +0.000 OA
BRANCH  10  12
ATOM     12  O   UNL     1     -11.949   6.594 126.208  0.00  0.00    +0.000 OA
ATOM     13  H   UNL     1     -11.770   5.737 126.637  0.00  0.00    +0.000 HD
ENDBRANCH  10  12
ENDBRANCH   9  10
ENDBRANCH   8   9
ENDBRANCH   7   8
ENDBRANCH   1   7
BRANCH   4  14
ATOM     14  N   UNL     1      -8.101   4.043 130.980  0.00  0.00    +0.000 N 
BRANCH  14  15
ATOM     15  C   UNL     1      -6.991   4.168 131.980  0.00  0.00    +0.000 C 
BRANCH  15  16
ATOM     16  C   UNL     1      -7.344   4.523 133.407  0.00  0.00    +0.000 C 
ATOM     17 CL   UNL     1      -8.796   3.755 134.058  0.00  0.00    +0.000 Cl
ENDBRANCH  15  16
ENDBRANCH  14  15
BRANCH  14  18
ATOM     18  C   UNL     1      -8.189   2.716 130.277  0.00  0.00    +0.000 C 
BRANCH  18  19
ATOM     19  C   UNL     1      -8.152   1.491 131.205  0.00  0.00    +0.000 C 
ATOM     20 CL   UNL     1      -9.756   1.101 131.869  0.00  0.00    +0.000 Cl
ENDBRANCH  18  19
ENDBRANCH  14  18
ENDBRANCH   4  14
TORSDOF 10
ENDMDL
