MODEL 1
REMARK VINA RESULT:      -6.7      0.000      0.000
REMARK  Name = Chlorpropamide
REMARK  5 active torsions:
REMARK  status: ('A' for Active; 'I' for Inactive)
REMARK    1  A    between atoms: C_1  and  C_2
REMARK    2  A    between atoms: C_2  and  C_3
REMARK    3  A    between atoms: C_3  and  N_4
REMARK    4  A    between atoms: N_7  and  S_8
REMARK    5  A    between atoms: S_8  and  C_11
REMARK                            x       y       z     vdW  Elec       q    Type
REMARK                         _______ _______ _______ _____ _____    ______ ____
ROOT
ATOM      1  S   UNL     1      -8.779   2.169 123.339  0.00  0.00    +0.000 S 
ATOM      2  O   UNL     1      -9.978   1.717 122.669  0.00  0.00    +0.000 OA
ATOM      3  O   UNL     1      -8.813   3.043 124.492  0.00  0.00    +0.000 OA
ENDROOT
BRANCH   1   4
ATOM      4  C   UNL     1      -7.878   3.098 122.077  0.00  0.00    +0.000 A 
ATOM      5  C   UNL     1      -6.505   3.328 122.185  0.00  0.00    +0.000 A 
ATOM      6  C   UNL     1      -5.834   4.024 121.164  0.00  0.00    +0.000 A 
ATOM      7  C   UNL     1      -6.524   4.468 120.034  0.00  0.00    +0.000 A 
ATOM      8 CL   UNL     1      -5.688   5.340 118.805  0.00  0.00    +0.000 Cl
ATOM      9  C   UNL     1      -7.884   4.206 119.898  0.00  0.00    +0.000 A 
ATOM     10  C   UNL     1      -8.563   3.521 120.919  0.00  0.00    +0.000 A 
ENDBRANCH   1   4
BRANCH   1  14
ATOM     11  N   UNL     1      -7.617  -1.328 124.779  0.00  0.00    +0.000 N 
ATOM     12  C   UNL     1      -8.430  -0.251 124.476  0.00  0.00    +0.000 C 
ATOM     13  O   UNL     1      -9.606  -0.235 124.823  0.00  0.00    +0.000 OA
ATOM     14  N   UNL     1      -7.847   0.812 123.754  0.00  0.00    +0.000 N 
ATOM     15  H   UNL     1      -6.651  -1.345 124.492  0.00  0.00    +0.000 HD
ATOM     16  H   UNL     1      -6.873   0.809 123.494  0.00  0.00    +0.000 HD
BRANCH  11  17
ATOM     17  C   UNL     1      -8.155  -2.472 125.529  0.00  0.00    +0.000 C 
BRANCH  17  19
ATOM     18  C   UNL     1      -9.506  -3.510 123.645  0.00  0.00    +0.000 C 
ATOM     19  C   UNL     1      -8.404  -3.727 124.682  0.00  0.00    +0.000 C 
ENDBRANCH  17  19
ENDBRANCH  11  17
ENDBRANCH   1  14
TORSDOF 4
ENDMDL
MODEL 2
REMARK VINA RESULT:      -6.5      1.636      1.786
REMARK  Name = Chlorpropamide
REMARK  5 active torsions:
REMARK  status: ('A' for Active; 'I' for Inactive)
REMARK    1  A    between atoms: C_1  and  C_2
REMARK    2  A    between atoms: C_2  and  C_3
REMARK    3  A    between atoms: C_3  and  N_4
REMARK    4  A    between atoms: N_7  and  S_8
REMARK    5  A    between atoms: S_8  and  C_11
REMARK                            x       y       z     vdW  Elec       q    Type
REMARK                         _______ _______ _______ _____ _____    ______ ____
ROOT
ATOM      1  S   UNL     1      -8.895   2.104 124.101  0.00  0.00    +0.000 S 
ATOM      2  O   UNL     1     -10.028   1.466 123.468  0.00  0.00    +0.000 OA
ATOM      3  O   UNL     1      -9.044   3.118 125.124  0.00  0.00    +0.000 OA
ENDROOT
BRANCH   1   4
ATOM      4  C   UNL     1      -8.025   2.930 122.750  0.00  0.00    +0.000 A 
ATOM      5  C   UNL     1      -6.647   3.148 122.798  0.00  0.00    +0.000 A 
ATOM      6  C   UNL     1      -6.002   3.762 121.710  0.00  0.00    +0.000 A 
ATOM      7  C   UNL     1      -6.722   4.134 120.573  0.00  0.00    +0.000 A 
ATOM      8 CL   UNL     1      -5.917   4.907 119.260  0.00  0.00    +0.000 Cl
ATOM      9  C   UNL     1      -8.089   3.882 120.499  0.00  0.00    +0.000 A 
ATOM     10  C   UNL     1      -8.742   3.279 121.586  0.00  0.00    +0.000 A 
ENDBRANCH   1   4
BRANCH   1  14
ATOM     11  N   UNL     1      -6.878  -1.264 124.597  0.00  0.00    +0.000 N 
ATOM     12  C   UNL     1      -7.730  -0.327 124.040  0.00  0.00    +0.000 C 
ATOM     13  O   UNL     1      -8.327  -0.563 122.995  0.00  0.00    +0.000 OA
ATOM     14  N   UNL     1      -7.873   0.900 124.723  0.00  0.00    +0.000 N 
ATOM     15  H   UNL     1      -6.385  -1.070 125.454  0.00  0.00    +0.000 HD
ATOM     16  H   UNL     1      -7.403   1.082 125.595  0.00  0.00    +0.000 HD
BRANCH  11  17
ATOM     17  C   UNL     1      -6.680  -2.565 123.942  0.00  0.00    +0.000 C 
BRANCH  17  19
ATOM     18  C   UNL     1      -4.563  -3.936 123.634  0.00  0.00    +0.000 C 
ATOM     19  C   UNL     1      -5.349  -2.701 123.191  0.00  0.00    +0.000 C 
ENDBRANCH  17  19
ENDBRANCH  11  17
ENDBRANCH   1  14
TORSDOF 4
ENDMDL
MODEL 3
REMARK VINA RESULT:      -6.2     10.404     11.283
REMARK  Name = Chlorpropamide
REMARK  5 active torsions:
REMARK  status: ('A' for Active; 'I' for Inactive)
REMARK    1  A    between atoms: C_1  and  C_2
REMARK    2  A    between atoms: C_2  and  C_3
REMARK    3  A    between atoms: C_3  and  N_4
REMARK    4  A    between atoms: N_7  and  S_8
REMARK    5  A    between atoms: S_8  and  C_11
REMARK                            x       y       z     vdW  Elec       q    Type
REMARK                         _______ _______ _______ _____ _____    ______ ____
ROOT
ATOM      1  S   UNL     1     -10.478   4.812 130.418  0.00  0.00    +0.000 S 
ATOM      2  O   UNL     1      -9.238   4.904 129.678  0.00  0.00    +0.000 OA
ATOM      3  O   UNL     1     -11.507   3.846 130.096  0.00  0.00    +0.000 OA
ENDROOT
BRANCH   1   4
ATOM      4  C   UNL     1     -11.262   6.424 130.191  0.00  0.00    +0.000 A 
ATOM      5  C   UNL     1     -10.965   7.229 129.090  0.00  0.00    +0.000 A 
ATOM      6  C   UNL     1     -11.623   8.461 128.930  0.00  0.00    +0.000 A 
ATOM      7  C   UNL     1     -12.588   8.876 129.851  0.00  0.00    +0.000 A 
ATOM      8 CL   UNL     1     -13.367  10.400 129.651  0.00  0.00    +0.000 Cl
ATOM      9  C   UNL     1     -12.922   8.060 130.928  0.00  0.00    +0.000 A 
ATOM     10  C   UNL     1     -12.260   6.834 131.100  0.00  0.00    +0.000 A 
ENDBRANCH   1   4
BRANCH   1  14
ATOM     11  N   UNL     1      -8.886   5.268 134.012  0.00  0.00    +0.000 N 
ATOM     12  C   UNL     1      -9.134   5.459 132.665  0.00  0.00    +0.000 C 
ATOM     13  O   UNL     1      -8.524   6.313 132.029  0.00  0.00    +0.000 OA
ATOM     14  N   UNL     1     -10.112   4.636 132.067  0.00  0.00    +0.000 N 
ATOM     15  H   UNL     1      -9.388   4.570 134.537  0.00  0.00    +0.000 HD
ATOM     16  H   UNL     1     -10.592   3.918 132.584  0.00  0.00    +0.000 HD
BRANCH  11  17
ATOM     17  C   UNL     1      -7.880   6.088 134.703  0.00  0.00    +0.000 C 
BRANCH  17  19
ATOM     18  C   UNL     1      -7.736   6.468 137.211  0.00  0.00    +0.000 C 
ATOM     19  C   UNL     1      -7.418   5.523 136.052  0.00  0.00    +0.000 C 
ENDBRANCH  17  19
ENDBRANCH  11  17
ENDBRANCH   1  14
TORSDOF 4
ENDMDL
MODEL 4
REMARK VINA RESULT:      -6.0     10.093     11.036
REMARK  Name = Chlorpropamide
REMARK  5 active torsions:
REMARK  status: ('A' for Active; 'I' for Inactive)
REMARK    1  A    between atoms: C_1  and  C_2
REMARK    2  A    between atoms: C_2  and  C_3
REMARK    3  A    between atoms: C_3  and  N_4
REMARK    4  A    between atoms: N_7  and  S_8
REMARK    5  A    between atoms: S_8  and  C_11
REMARK                            x       y       z     vdW  Elec       q    Type
REMARK                         _______ _______ _______ _____ _____    ______ ____
ROOT
ATOM      1  S   UNL     1      -9.204   6.076 131.556  0.00  0.00    +0.000 S 
ATOM      2  O   UNL     1      -9.234   4.717 131.062  0.00  0.00    +0.000 OA
ATOM      3  O   UNL     1      -9.465   6.407 132.941  0.00  0.00    +0.000 OA
ENDROOT
BRANCH   1   4
ATOM      4  C   UNL     1     -10.497   6.926 130.622  0.00  0.00    +0.000 A 
ATOM      5  C   UNL     1     -11.818   6.957 131.071  0.00  0.00    +0.000 A 
ATOM      6  C   UNL     1     -12.788   7.659 130.333  0.00  0.00    +0.000 A 
ATOM      7  C   UNL     1     -12.436   8.344 129.168  0.00  0.00    +0.000 A 
ATOM      8 CL   UNL     1     -13.644   9.178 128.265  0.00  0.00    +0.000 Cl
ATOM      9  C   UNL     1     -11.114   8.353 128.736  0.00  0.00    +0.000 A 
ATOM     10  C   UNL     1     -10.142   7.645 129.461  0.00  0.00    +0.000 A 
ENDBRANCH   1   4
BRANCH   1  14
ATOM     11  N   UNL     1      -5.349   6.951 131.389  0.00  0.00    +0.000 N 
ATOM     12  C   UNL     1      -6.531   6.347 131.780  0.00  0.00    +0.000 C 
ATOM     13  O   UNL     1      -6.536   5.479 132.646  0.00  0.00    +0.000 OA
ATOM     14  N   UNL     1      -7.714   6.772 131.137  0.00  0.00    +0.000 N 
ATOM     15  H   UNL     1      -5.342   7.662 130.676  0.00  0.00    +0.000 HD
ATOM     16  H   UNL     1      -7.711   7.504 130.445  0.00  0.00    +0.000 HD
BRANCH  11  17
ATOM     17  C   UNL     1      -4.078   6.561 132.015  0.00  0.00    +0.000 C 
BRANCH  17  19
ATOM     18  C   UNL     1      -1.797   6.499 130.896  0.00  0.00    +0.000 C 
ATOM     19  C   UNL     1      -2.864   7.377 131.551  0.00  0.00    +0.000 C 
ENDBRANCH  17  19
ENDBRANCH  11  17
ENDBRANCH   1  14
TORSDOF 4
ENDMDL
MODEL 5
REMARK VINA RESULT:      -5.9      3.065      6.359
REMARK  Name = Chlorpropamide
REMARK  5 active torsions:
REMARK  status: ('A' for Active; 'I' for Inactive)
REMARK    1  A    between atoms: C_1  and  C_2
REMARK    2  A    between atoms: C_2  and  C_3
REMARK    3  A    between atoms: C_3  and  N_4
REMARK    4  A    between atoms: N_7  and  S_8
REMARK    5  A    between atoms: S_8  and  C_11
REMARK                            x       y       z     vdW  Elec       q    Type
REMARK                         _______ _______ _______ _____ _____    ______ ____
ROOT
ATOM      1  S   UNL     1      -9.321   1.225 124.927  0.00  0.00    +0.000 S 
ATOM      2  O   UNL     1      -9.285   1.509 126.345  0.00  0.00    +0.000 OA
ATOM      3  O   UNL     1     -10.548   0.910 124.227  0.00  0.00    +0.000 OA
ENDROOT
BRANCH   1   4
ATOM      4  C   UNL     1      -8.282  -0.241 124.732  0.00  0.00    +0.000 A 
ATOM      5  C   UNL     1      -8.683  -1.485 125.220  0.00  0.00    +0.000 A 
ATOM      6  C   UNL     1      -7.862  -2.609 125.016  0.00  0.00    +0.000 A 
ATOM      7  C   UNL     1      -6.662  -2.495 124.311  0.00  0.00    +0.000 A 
ATOM      8 CL   UNL     1      -5.660  -3.880 124.093  0.00  0.00    +0.000 Cl
ATOM      9  C   UNL     1      -6.276  -1.266 123.784  0.00  0.00    +0.000 A 
ATOM     10  C   UNL     1      -7.085  -0.138 123.993  0.00  0.00    +0.000 A 
ENDBRANCH   1   4
BRANCH   1  14
ATOM     11  N   UNL     1      -8.119   3.711 122.092  0.00  0.00    +0.000 N 
ATOM     12  C   UNL     1      -8.748   2.642 122.705  0.00  0.00    +0.000 C 
ATOM     13  O   UNL     1      -9.427   1.855 122.053  0.00  0.00    +0.000 OA
ATOM     14  N   UNL     1      -8.577   2.507 124.099  0.00  0.00    +0.000 N 
ATOM     15  H   UNL     1      -7.564   4.360 122.626  0.00  0.00    +0.000 HD
ATOM     16  H   UNL     1      -7.997   3.139 124.629  0.00  0.00    +0.000 HD
BRANCH  11  17
ATOM     17  C   UNL     1      -8.252   3.915 120.643  0.00  0.00    +0.000 C 
BRANCH  17  19
ATOM     18  C   UNL     1      -5.739   4.268 120.772  0.00  0.00    +0.000 C 
ATOM     19  C   UNL     1      -6.923   3.905 119.875  0.00  0.00    +0.000 C 
ENDBRANCH  17  19
ENDBRANCH  11  17
ENDBRANCH   1  14
TORSDOF 4
ENDMDL
MODEL 6
REMARK VINA RESULT:      -5.8      4.435      7.900
REMARK  Name = Chlorpropamide
REMARK  5 active torsions:
REMARK  status: ('A' for Active; 'I' for Inactive)
REMARK    1  A    between atoms: C_1  and  C_2
REMARK    2  A    between atoms: C_2  and  C_3
REMARK    3  A    between atoms: C_3  and  N_4
REMARK    4  A    between atoms: N_7  and  S_8
REMARK    5  A    between atoms: S_8  and  C_11
REMARK                            x       y       z     vdW  Elec       q    Type
REMARK                         _______ _______ _______ _____ _____    ______ ____
ROOT
ATOM      1  S   UNL     1      -8.456  -2.295 125.034  0.00  0.00    +0.000 S 
ATOM      2  O   UNL     1      -9.854  -2.666 125.045  0.00  0.00    +0.000 OA
ATOM      3  O   UNL     1      -7.497  -2.900 124.133  0.00  0.00    +0.000 OA
ENDROOT
BRANCH   1   4
ATOM      4  C   UNL     1      -7.865  -2.707 126.691  0.00  0.00    +0.000 A 
ATOM      5  C   UNL     1      -6.635  -2.241 127.161  0.00  0.00    +0.000 A 
ATOM      6  C   UNL     1      -6.227  -2.554 128.469  0.00  0.00    +0.000 A 
ATOM      7  C   UNL     1      -7.049  -3.308 129.310  0.00  0.00    +0.000 A 
ATOM      8 CL   UNL     1      -6.520  -3.701 130.902  0.00  0.00    +0.000 Cl
ATOM      9  C   UNL     1      -8.294  -3.740 128.864  0.00  0.00    +0.000 A 
ATOM     10  C   UNL     1      -8.704  -3.441 127.555  0.00  0.00    +0.000 A 
ENDBRANCH   1   4
BRANCH   1  14
ATOM     11  N   UNL     1      -8.813   1.387 123.629  0.00  0.00    +0.000 N 
ATOM     12  C   UNL     1      -8.938   0.012 123.724  0.00  0.00    +0.000 C 
ATOM     13  O   UNL     1      -9.543  -0.624 122.868  0.00  0.00    +0.000 OA
ATOM     14  N   UNL     1      -8.344  -0.612 124.842  0.00  0.00    +0.000 N 
ATOM     15  H   UNL     1      -8.319   1.911 124.333  0.00  0.00    +0.000 HD
ATOM     16  H   UNL     1      -7.824  -0.091 125.530  0.00  0.00    +0.000 HD
BRANCH  11  17
ATOM     17  C   UNL     1      -9.405   2.106 122.493  0.00  0.00    +0.000 C 
BRANCH  17  19
ATOM     18  C   UNL     1      -7.044   3.020 122.284  0.00  0.00    +0.000 C 
ATOM     19  C   UNL     1      -8.513   3.206 121.902  0.00  0.00    +0.000 C 
ENDBRANCH  17  19
ENDBRANCH  11  17
ENDBRANCH   1  14
TORSDOF 4
ENDMDL
MODEL 7
REMARK VINA RESULT:      -5.7      3.696      6.479
REMARK  Name = Chlorpropamide
REMARK  5 active torsions:
REMARK  status: ('A' for Active; 'I' for Inactive)
REMARK    1  A    between atoms: C_1  and  C_2
REMARK    2  A    between atoms: C_2  and  C_3
REMARK    3  A    between atoms: C_3  and  N_4
REMARK    4  A    between atoms: N_7  and  S_8
REMARK    5  A    between atoms: S_8  and  C_11
REMARK                            x       y       z     vdW  Elec       q    Type
REMARK                         _______ _______ _______ _____ _____    ______ ____
ROOT
ATOM      1  S   UNL     1      -9.052  -0.298 123.655  0.00  0.00    +0.000 S 
ATOM      2  O   UNL     1      -9.399  -0.157 125.052  0.00  0.00    +0.000 OA
ATOM      3  O   UNL     1      -9.993  -0.770 122.663  0.00  0.00    +0.000 OA
ENDROOT
BRANCH   1   4
ATOM      4  C   UNL     1      -7.712  -1.511 123.642  0.00  0.00    +0.000 A 
ATOM      5  C   UNL     1      -6.698  -1.463 122.684  0.00  0.00    +0.000 A 
ATOM      6  C   UNL     1      -5.653  -2.404 122.729  0.00  0.00    +0.000 A 
ATOM      7  C   UNL     1      -5.610  -3.371 123.735  0.00  0.00    +0.000 A 
ATOM      8 CL   UNL     1      -4.335  -4.529 123.759  0.00  0.00    +0.000 Cl
ATOM      9  C   UNL     1      -6.594  -3.399 124.719  0.00  0.00    +0.000 A 
ATOM     10  C   UNL     1      -7.646  -2.470 124.674  0.00  0.00    +0.000 A 
ENDBRANCH   1   4
BRANCH   1  14
ATOM     11  N   UNL     1      -6.895   2.999 123.287  0.00  0.00    +0.000 N 
ATOM     12  C   UNL     1      -7.362   1.799 123.793  0.00  0.00    +0.000 C 
ATOM     13  O   UNL     1      -6.863   1.304 124.798  0.00  0.00    +0.000 OA
ATOM     14  N   UNL     1      -8.425   1.179 123.102  0.00  0.00    +0.000 N 
ATOM     15  H   UNL     1      -7.302   3.405 122.460  0.00  0.00    +0.000 HD
ATOM     16  H   UNL     1      -8.852   1.600 122.292  0.00  0.00    +0.000 HD
BRANCH  11  17
ATOM     17  C   UNL     1      -5.791   3.703 123.955  0.00  0.00    +0.000 C 
BRANCH  17  19
ATOM     18  C   UNL     1      -5.413   4.813 126.209  0.00  0.00    +0.000 C 
ATOM     19  C   UNL     1      -6.235   4.810 124.919  0.00  0.00    +0.000 C 
ENDBRANCH  17  19
ENDBRANCH  11  17
ENDBRANCH   1  14
TORSDOF 4
ENDMDL
MODEL 8
REMARK VINA RESULT:      -5.6      4.100      6.216
REMARK  Name = Chlorpropamide
REMARK  5 active torsions:
REMARK  status: ('A' for Active; 'I' for Inactive)
REMARK    1  A    between atoms: C_1  and  C_2
REMARK    2  A    between atoms: C_2  and  C_3
REMARK    3  A    between atoms: C_3  and  N_4
REMARK    4  A    between atoms: N_7  and  S_8
REMARK    5  A    between atoms: S_8  and  C_11
REMARK                            x       y       z     vdW  Elec       q    Type
REMARK                         _______ _______ _______ _____ _____    ______ ____
ROOT
ATOM      1  S   UNL     1      -8.275   2.897 123.967  0.00  0.00    +0.000 S 
ATOM      2  O   UNL     1      -9.013   3.281 125.151  0.00  0.00    +0.000 OA
ATOM      3  O   UNL     1      -8.759   3.159 122.628  0.00  0.00    +0.000 OA
ENDROOT
BRANCH   1   4
ATOM      4  C   UNL     1      -8.150   1.098 124.075  0.00  0.00    +0.000 A 
ATOM      5  C   UNL     1      -7.183   0.392 123.357  0.00  0.00    +0.000 A 
ATOM      6  C   UNL     1      -7.095  -1.005 123.495  0.00  0.00    +0.000 A 
ATOM      7  C   UNL     1      -7.951  -1.689 124.361  0.00  0.00    +0.000 A 
ATOM      8 CL   UNL     1      -7.843  -3.403 124.499  0.00  0.00    +0.000 Cl
ATOM      9  C   UNL     1      -8.890  -0.988 125.113  0.00  0.00    +0.000 A 
ATOM     10  C   UNL     1      -8.990   0.405 124.972  0.00  0.00    +0.000 A 
ENDBRANCH   1   4
BRANCH   1  14
ATOM     11  N   UNL     1      -4.731   4.023 125.320  0.00  0.00    +0.000 N 
ATOM     12  C   UNL     1      -6.006   3.487 125.300  0.00  0.00    +0.000 C 
ATOM     13  O   UNL     1      -6.494   2.989 126.310  0.00  0.00    +0.000 OA
ATOM     14  N   UNL     1      -6.707   3.538 124.076  0.00  0.00    +0.000 N 
ATOM     15  H   UNL     1      -4.327   4.429 124.492  0.00  0.00    +0.000 HD
ATOM     16  H   UNL     1      -6.314   3.971 123.255  0.00  0.00    +0.000 HD
BRANCH  11  17
ATOM     17  C   UNL     1      -3.941   4.006 126.560  0.00  0.00    +0.000 C 
BRANCH  17  19
ATOM     18  C   UNL     1      -1.589   3.052 126.455  0.00  0.00    +0.000 C 
ATOM     19  C   UNL     1      -3.063   2.761 126.737  0.00  0.00    +0.000 C 
ENDBRANCH  17  19
ENDBRANCH  11  17
ENDBRANCH   1  14
TORSDOF 4
ENDMDL
MODEL 9
REMARK VINA RESULT:      -5.6      9.135     10.019
REMARK  Name = Chlorpropamide
REMARK  5 active torsions:
REMARK  status: ('A' for Active; 'I' for Inactive)
REMARK    1  A    between atoms: C_1  and  C_2
REMARK    2  A    between atoms: C_2  and  C_3
REMARK    3  A    between atoms: C_3  and  N_4
REMARK    4  A    between atoms: N_7  and  S_8
REMARK    5  A    between atoms: S_8  and  C_11
REMARK                            x       y       z     vdW  Elec       q    Type
REMARK                         _______ _______ _______ _____ _____    ______ ____
ROOT
ATOM      1  S   UNL     1      -9.615   5.255 130.590  0.00  0.00    +0.000 S 
ATOM      2  O   UNL     1      -9.862   4.199 129.634  0.00  0.00    +0.000 OA
ATOM      3  O   UNL     1      -9.822   5.082 132.013  0.00  0.00    +0.000 OA
ENDROOT
BRANCH   1   4
ATOM      4  C   UNL     1     -10.752   6.576 130.111  0.00  0.00    +0.000 A 
ATOM      5  C   UNL     1     -11.875   6.883 130.881  0.00  0.00    +0.000 A 
ATOM      6  C   UNL     1     -12.716   7.942 130.494  0.00  0.00    +0.000 A 
ATOM      7  C   UNL     1     -12.425   8.702 129.358  0.00  0.00    +0.000 A 
ATOM      8 CL   UNL     1     -13.481   9.979 128.887  0.00  0.00    +0.000 Cl
ATOM      9  C   UNL     1     -11.285   8.429 128.609  0.00  0.00    +0.000 A 
ATOM     10  C   UNL     1     -10.447   7.366 128.984  0.00  0.00    +0.000 A 
ENDBRANCH   1   4
BRANCH   1  14
ATOM     11  N   UNL     1      -5.668   5.514 130.469  0.00  0.00    +0.000 N 
ATOM     12  C   UNL     1      -6.933   4.991 130.674  0.00  0.00    +0.000 C 
ATOM     13  O   UNL     1      -7.079   3.850 131.099  0.00  0.00    +0.000 OA
ATOM     14  N   UNL     1      -8.031   5.824 130.371  0.00  0.00    +0.000 N 
ATOM     15  H   UNL     1      -5.546   6.450 130.116  0.00  0.00    +0.000 HD
ATOM     16  H   UNL     1      -7.909   6.770 130.047  0.00  0.00    +0.000 HD
BRANCH  11  17
ATOM     17  C   UNL     1      -4.477   4.705 130.763  0.00  0.00    +0.000 C 
BRANCH  17  19
ATOM     18  C   UNL     1      -2.645   5.910 129.481  0.00  0.00    +0.000 C 
ATOM     19  C   UNL     1      -3.463   4.626 129.614  0.00  0.00    +0.000 C 
ENDBRANCH  17  19
ENDBRANCH  11  17
ENDBRANCH   1  14
TORSDOF 4
ENDMDL
