MODEL 1
REMARK VINA RESULT:      -9.5      0.000      0.000
REMARK  Name = Chlorhexidine
REMARK  9 active torsions:
REMARK  status: ('A' for Active; 'I' for Inactive)
REMARK    1  A    between atoms: C_5  and  N_6
REMARK    2  A    between atoms: N_12  and  C_13
REMARK    3  A    between atoms: C_13  and  C_14
REMARK    4  A    between atoms: C_14  and  C_15
REMARK    5  A    between atoms: C_15  and  C_16
REMARK    6  A    between atoms: C_16  and  C_17
REMARK    7  A    between atoms: C_17  and  C_18
REMARK    8  A    between atoms: C_18  and  N_19
REMARK    9  A    between atoms: N_25  and  C_26
REMARK                            x       y       z     vdW  Elec       q    Type
REMARK                         _______ _______ _______ _____ _____    ______ ____
ROOT
ATOM      1  C   UNL     1      -7.461  -3.094 129.119  0.00  0.00    +0.000 C 
ENDROOT
BRANCH   1   2
ATOM      2  C   UNL     1      -8.665  -3.607 128.304  0.00  0.00    +0.000 C 
BRANCH   2   3
ATOM      3  C   UNL     1      -8.535  -3.255 126.826  0.00  0.00    +0.000 C 
BRANCH   3  10
ATOM      4  N   UNL     1      -8.262   2.014 123.598  0.00  0.00    +0.000 N 
ATOM      5  C   UNL     1      -8.024   0.671 123.912  0.00  0.00    +0.000 C 
ATOM      6  N   UNL     1      -7.331  -0.166 123.221  0.00  0.00    +0.000 NA
ATOM      7  N   UNL     1      -8.527   0.055 125.064  0.00  0.00    +0.000 N 
ATOM      8  C   UNL     1      -8.304  -1.290 125.401  0.00  0.00    +0.000 C 
ATOM      9  N   UNL     1      -7.615  -2.116 124.663  0.00  0.00    +0.000 NA
ATOM     10  N   UNL     1      -8.810  -1.830 126.548  0.00  0.00    +0.000 N 
ATOM     11  H   UNL     1      -8.801   2.573 124.248  0.00  0.00    +0.000 HD
ATOM     12  H   UNL     1      -6.895   0.172 122.400  0.00  0.00    +0.000 HD
ATOM     13  H   UNL     1      -9.065   0.595 125.718  0.00  0.00    +0.000 HD
ATOM     14  H   UNL     1      -7.311  -1.542 123.849  0.00  0.00    +0.000 HD
ATOM     15  H   UNL     1      -9.357  -1.307 127.208  0.00  0.00    +0.000 HD
BRANCH   4  20
ATOM     16 CL   UNL     1      -6.460   5.080 118.708  0.00  0.00    +0.000 Cl
ATOM     17  C   UNL     1      -6.927   4.219 120.117  0.00  0.00    +0.000 A 
ATOM     18  C   UNL     1      -6.015   3.784 121.075  0.00  0.00    +0.000 A 
ATOM     19  C   UNL     1      -6.446   3.057 122.226  0.00  0.00    +0.000 A 
ATOM     20  C   UNL     1      -7.809   2.760 122.448  0.00  0.00    +0.000 A 
ATOM     21  C   UNL     1      -8.660   3.268 121.452  0.00  0.00    +0.000 A 
ATOM     22  C   UNL     1      -8.255   3.958 120.311  0.00  0.00    +0.000 A 
ENDBRANCH   4  20
ENDBRANCH   3  10
ENDBRANCH   2   3
ENDBRANCH   1   2
BRANCH   1  23
ATOM     23  C   UNL     1      -7.853  -1.938 130.047  0.00  0.00    +0.000 C 
BRANCH  23  24
ATOM     24  C   UNL     1      -7.531  -0.556 129.434  0.00  0.00    +0.000 C 
BRANCH  24  25
ATOM     25  C   UNL     1      -7.251   0.481 130.525  0.00  0.00    +0.000 C 
BRANCH  25  26
ATOM     26  N   UNL     1      -8.433   1.226 130.999  0.00  0.00    +0.000 N 
ATOM     27  C   UNL     1      -8.829   2.413 130.431  0.00  0.00    +0.000 C 
ATOM     28  N   UNL     1      -8.163   2.930 129.441  0.00  0.00    +0.000 NA
ATOM     29  N   UNL     1      -9.949   3.096 130.899  0.00  0.00    +0.000 N 
ATOM     30  C   UNL     1     -10.445   4.312 130.415  0.00  0.00    +0.000 C 
ATOM     31  N   UNL     1      -9.828   4.923 129.441  0.00  0.00    +0.000 NA
ATOM     32  N   UNL     1     -11.578   4.892 130.965  0.00  0.00    +0.000 N 
ATOM     33  H   UNL     1      -8.943   0.815 131.769  0.00  0.00    +0.000 HD
ATOM     34  H   UNL     1      -7.367   2.358 129.182  0.00  0.00    +0.000 HD
ATOM     35  H   UNL     1     -10.449   2.674 131.663  0.00  0.00    +0.000 HD
ATOM     36  H   UNL     1      -9.027   4.312 129.189  0.00  0.00    +0.000 HD
ATOM     37  H   UNL     1     -11.989   4.552 131.819  0.00  0.00    +0.000 HD
BRANCH  32  38
ATOM     38  C   UNL     1     -12.153   6.103 130.462  0.00  0.00    +0.000 A 
ATOM     39  C   UNL     1     -12.458   6.247 129.093  0.00  0.00    +0.000 A 
ATOM     40  C   UNL     1     -12.882   7.461 128.539  0.00  0.00    +0.000 A 
ATOM     41  C   UNL     1     -13.013   8.575 129.354  0.00  0.00    +0.000 A 
ATOM     42 CL   UNL     1     -13.505  10.079 128.672  0.00  0.00    +0.000 Cl
ATOM     43  C   UNL     1     -12.739   8.472 130.717  0.00  0.00    +0.000 A 
ATOM     44  C   UNL     1     -12.311   7.244 131.269  0.00  0.00    +0.000 A 
ENDBRANCH  32  38
ENDBRANCH  25  26
ENDBRANCH  24  25
ENDBRANCH  23  24
ENDBRANCH   1  23
TORSDOF 9
ENDMDL
MODEL 2
REMARK VINA RESULT:      -9.2      1.528      2.453
REMARK  Name = Chlorhexidine
REMARK  9 active torsions:
REMARK  status: ('A' for Active; 'I' for Inactive)
REMARK    1  A    between atoms: C_5  and  N_6
REMARK    2  A    between atoms: N_12  and  C_13
REMARK    3  A    between atoms: C_13  and  C_14
REMARK    4  A    between atoms: C_14  and  C_15
REMARK    5  A    between atoms: C_15  and  C_16
REMARK    6  A    between atoms: C_16  and  C_17
REMARK    7  A    between atoms: C_17  and  C_18
REMARK    8  A    between atoms: C_18  and  N_19
REMARK    9  A    between atoms: N_25  and  C_26
REMARK                            x       y       z     vdW  Elec       q    Type
REMARK                         _______ _______ _______ _____ _____    ______ ____
ROOT
ATOM      1  C   UNL     1      -7.886  -2.874 129.324  0.00  0.00    +0.000 C 
ENDROOT
BRANCH   1   2
ATOM      2  C   UNL     1      -8.785  -3.741 128.421  0.00  0.00    +0.000 C 
BRANCH   2   3
ATOM      3  C   UNL     1      -8.703  -3.307 126.961  0.00  0.00    +0.000 C 
BRANCH   3  10
ATOM      4  N   UNL     1      -7.741   1.945 123.840  0.00  0.00    +0.000 N 
ATOM      5  C   UNL     1      -7.950   0.576 124.043  0.00  0.00    +0.000 C 
ATOM      6  N   UNL     1      -8.012  -0.332 123.132  0.00  0.00    +0.000 NA
ATOM      7  N   UNL     1      -8.120   0.009 125.312  0.00  0.00    +0.000 N 
ATOM      8  C   UNL     1      -8.332  -1.359 125.541  0.00  0.00    +0.000 C 
ATOM      9  N   UNL     1      -8.412  -2.249 124.591  0.00  0.00    +0.000 NA
ATOM     10  N   UNL     1      -8.476  -1.856 126.805  0.00  0.00    +0.000 N 
ATOM     11  H   UNL     1      -7.683   2.550 124.650  0.00  0.00    +0.000 HD
ATOM     12  H   UNL     1      -7.869  -0.049 122.195  0.00  0.00    +0.000 HD
ATOM     13  H   UNL     1      -8.066   0.595 126.125  0.00  0.00    +0.000 HD
ATOM     14  H   UNL     1      -8.279  -1.702 123.715  0.00  0.00    +0.000 HD
ATOM     15  H   UNL     1      -8.433  -1.283 127.629  0.00  0.00    +0.000 HD
BRANCH   4  20
ATOM     16 CL   UNL     1      -6.876   4.958 118.669  0.00  0.00    +0.000 Cl
ATOM     17  C   UNL     1      -7.169   4.096 120.123  0.00  0.00    +0.000 A 
ATOM     18  C   UNL     1      -8.450   3.827 120.599  0.00  0.00    +0.000 A 
ATOM     19  C   UNL     1      -8.648   3.118 121.823  0.00  0.00    +0.000 A 
ATOM     20  C   UNL     1      -7.560   2.650 122.593  0.00  0.00    +0.000 A 
ATOM     21  C   UNL     1      -6.309   2.933 122.020  0.00  0.00    +0.000 A 
ATOM     22  C   UNL     1      -6.096   3.644 120.841  0.00  0.00    +0.000 A 
ENDBRANCH   4  20
ENDBRANCH   3  10
ENDBRANCH   2   3
ENDBRANCH   1   2
BRANCH   1  23
ATOM     23  C   UNL     1      -6.902  -3.726 130.135  0.00  0.00    +0.000 C 
BRANCH  23  24
ATOM     24  C   UNL     1      -5.638  -2.935 130.546  0.00  0.00    +0.000 C 
BRANCH  24  25
ATOM     25  C   UNL     1      -5.931  -1.995 131.718  0.00  0.00    +0.000 C 
BRANCH  25  26
ATOM     26  N   UNL     1      -6.086  -0.573 131.358  0.00  0.00    +0.000 N 
ATOM     27  C   UNL     1      -7.256   0.116 131.576  0.00  0.00    +0.000 C 
ATOM     28  N   UNL     1      -8.283  -0.473 132.115  0.00  0.00    +0.000 NA
ATOM     29  N   UNL     1      -7.375   1.459 131.225  0.00  0.00    +0.000 N 
ATOM     30  C   UNL     1      -8.510   2.263 131.385  0.00  0.00    +0.000 C 
ATOM     31  N   UNL     1      -9.600   1.755 131.890  0.00  0.00    +0.000 NA
ATOM     32  N   UNL     1      -8.502   3.594 130.999  0.00  0.00    +0.000 N 
ATOM     33  H   UNL     1      -5.282  -0.125 130.940  0.00  0.00    +0.000 HD
ATOM     34  H   UNL     1      -8.092  -1.446 132.326  0.00  0.00    +0.000 HD
ATOM     35  H   UNL     1      -6.566   1.893 130.814  0.00  0.00    +0.000 HD
ATOM     36  H   UNL     1      -9.374   0.765 132.108  0.00  0.00    +0.000 HD
ATOM     37  H   UNL     1      -7.752   3.987 130.455  0.00  0.00    +0.000 HD
BRANCH  32  38
ATOM     38  C   UNL     1      -9.619   4.468 131.198  0.00  0.00    +0.000 A 
ATOM     39  C   UNL     1     -10.624   4.596 130.218  0.00  0.00    +0.000 A 
ATOM     40  C   UNL     1     -11.650   5.545 130.310  0.00  0.00    +0.000 A 
ATOM     41  C   UNL     1     -11.695   6.399 131.400  0.00  0.00    +0.000 A 
ATOM     42 CL   UNL     1     -12.937   7.588 131.502  0.00  0.00    +0.000 Cl
ATOM     43  C   UNL     1     -10.731   6.295 132.402  0.00  0.00    +0.000 A 
ATOM     44  C   UNL     1      -9.698   5.336 132.302  0.00  0.00    +0.000 A 
ENDBRANCH  32  38
ENDBRANCH  25  26
ENDBRANCH  24  25
ENDBRANCH  23  24
ENDBRANCH   1  23
TORSDOF 9
ENDMDL
MODEL 3
REMARK VINA RESULT:      -9.2      3.282      7.337
REMARK  Name = Chlorhexidine
REMARK  9 active torsions:
REMARK  status: ('A' for Active; 'I' for Inactive)
REMARK    1  A    between atoms: C_5  and  N_6
REMARK    2  A    between atoms: N_12  and  C_13
REMARK    3  A    between atoms: C_13  and  C_14
REMARK    4  A    between atoms: C_14  and  C_15
REMARK    5  A    between atoms: C_15  and  C_16
REMARK    6  A    between atoms: C_16  and  C_17
REMARK    7  A    between atoms: C_17  and  C_18
REMARK    8  A    between atoms: C_18  and  N_19
REMARK    9  A    between atoms: N_25  and  C_26
REMARK                            x       y       z     vdW  Elec       q    Type
REMARK                         _______ _______ _______ _____ _____    ______ ____
ROOT
ATOM      1  C   UNL     1      -8.820   4.490 134.098  0.00  0.00    +0.000 C 
ENDROOT
BRANCH   1   2
ATOM      2  C   UNL     1      -8.253   3.146 133.598  0.00  0.00    +0.000 C 
BRANCH   2   3
ATOM      3  C   UNL     1      -9.284   2.363 132.793  0.00  0.00    +0.000 C 
BRANCH   3  10
ATOM      4  N   UNL     1      -7.274  -1.193 128.149  0.00  0.00    +0.000 N 
ATOM      5  C   UNL     1      -7.807  -0.064 128.781  0.00  0.00    +0.000 C 
ATOM      6  N   UNL     1      -8.181   1.028 128.211  0.00  0.00    +0.000 NA
ATOM      7  N   UNL     1      -8.008   0.012 130.165  0.00  0.00    +0.000 N 
ATOM      8  C   UNL     1      -8.539   1.133 130.823  0.00  0.00    +0.000 C 
ATOM      9  N   UNL     1      -8.886   2.233 130.215  0.00  0.00    +0.000 NA
ATOM     10  N   UNL     1      -8.727   1.142 132.176  0.00  0.00    +0.000 N 
ATOM     11  H   UNL     1      -7.049  -2.002 128.715  0.00  0.00    +0.000 HD
ATOM     12  H   UNL     1      -8.117   1.073 127.225  0.00  0.00    +0.000 HD
ATOM     13  H   UNL     1      -7.789  -0.781 130.740  0.00  0.00    +0.000 HD
ATOM     14  H   UNL     1      -8.681   2.048 129.211  0.00  0.00    +0.000 HD
ATOM     15  H   UNL     1      -8.505   0.362 132.767  0.00  0.00    +0.000 HD
BRANCH   4  20
ATOM     16 CL   UNL     1      -6.214  -1.909 122.239  0.00  0.00    +0.000 Cl
ATOM     17  C   UNL     1      -6.519  -1.756 123.920  0.00  0.00    +0.000 A 
ATOM     18  C   UNL     1      -7.038  -2.791 124.693  0.00  0.00    +0.000 A 
ATOM     19  C   UNL     1      -7.290  -2.615 126.088  0.00  0.00    +0.000 A 
ATOM     20  C   UNL     1      -7.012  -1.394 126.743  0.00  0.00    +0.000 A 
ATOM     21  C   UNL     1      -6.458  -0.420 125.896  0.00  0.00    +0.000 A 
ATOM     22  C   UNL     1      -6.228  -0.566 124.529  0.00  0.00    +0.000 A 
ENDBRANCH   4  20
ENDBRANCH   3  10
ENDBRANCH   2   3
ENDBRANCH   1   2
BRANCH   1  23
ATOM     23  C   UNL     1      -8.681   5.594 133.043  0.00  0.00    +0.000 C 
BRANCH  23  24
ATOM     24  C   UNL     1     -10.051   6.115 132.553  0.00  0.00    +0.000 C 
BRANCH  24  25
ATOM     25  C   UNL     1     -10.071   6.270 131.030  0.00  0.00    +0.000 C 
BRANCH  25  26
ATOM     26  N   UNL     1      -9.203   5.331 130.293  0.00  0.00    +0.000 N 
ATOM     27  C   UNL     1      -9.054   5.387 128.927  0.00  0.00    +0.000 C 
ATOM     28  N   UNL     1      -9.686   6.283 128.227  0.00  0.00    +0.000 NA
ATOM     29  N   UNL     1      -8.229   4.487 128.257  0.00  0.00    +0.000 N 
ATOM     30  C   UNL     1      -8.004   4.434 126.877  0.00  0.00    +0.000 C 
ATOM     31  N   UNL     1      -8.615   5.274 126.086  0.00  0.00    +0.000 NA
ATOM     32  N   UNL     1      -7.151   3.490 126.327  0.00  0.00    +0.000 N 
ATOM     33  H   UNL     1      -8.717   4.639 130.847  0.00  0.00    +0.000 HD
ATOM     34  H   UNL     1     -10.260   6.881 128.809  0.00  0.00    +0.000 HD
ATOM     35  H   UNL     1      -7.749   3.807 128.821  0.00  0.00    +0.000 HD
ATOM     36  H   UNL     1      -9.185   5.880 126.708  0.00  0.00    +0.000 HD
ATOM     37  H   UNL     1      -6.790   2.720 126.866  0.00  0.00    +0.000 HD
BRANCH  32  38
ATOM     38  C   UNL     1      -6.846   3.437 124.929  0.00  0.00    +0.000 A 
ATOM     39  C   UNL     1      -5.738   4.129 124.402  0.00  0.00    +0.000 A 
ATOM     40  C   UNL     1      -5.491   4.224 123.027  0.00  0.00    +0.000 A 
ATOM     41  C   UNL     1      -6.362   3.619 122.134  0.00  0.00    +0.000 A 
ATOM     42 CL   UNL     1      -6.081   3.759 120.440  0.00  0.00    +0.000 Cl
ATOM     43  C   UNL     1      -7.463   2.910 122.613  0.00  0.00    +0.000 A 
ATOM     44  C   UNL     1      -7.705   2.819 124.002  0.00  0.00    +0.000 A 
ENDBRANCH  32  38
ENDBRANCH  25  26
ENDBRANCH  24  25
ENDBRANCH  23  24
ENDBRANCH   1  23
TORSDOF 9
ENDMDL
MODEL 4
REMARK VINA RESULT:      -9.0      4.319      8.123
REMARK  Name = Chlorhexidine
REMARK  9 active torsions:
REMARK  status: ('A' for Active; 'I' for Inactive)
REMARK    1  A    between atoms: C_5  and  N_6
REMARK    2  A    between atoms: N_12  and  C_13
REMARK    3  A    between atoms: C_13  and  C_14
REMARK    4  A    between atoms: C_14  and  C_15
REMARK    5  A    between atoms: C_15  and  C_16
REMARK    6  A    between atoms: C_16  and  C_17
REMARK    7  A    between atoms: C_17  and  C_18
REMARK    8  A    between atoms: C_18  and  N_19
REMARK    9  A    between atoms: N_25  and  C_26
REMARK                            x       y       z     vdW  Elec       q    Type
REMARK                         _______ _______ _______ _____ _____    ______ ____
ROOT
ATOM      1  C   UNL     1      -4.140   6.649 131.750  0.00  0.00    +0.000 C 
ENDROOT
BRANCH   1   2
ATOM      2  C   UNL     1      -5.183   6.081 132.733  0.00  0.00    +0.000 C 
BRANCH   2   3
ATOM      3  C   UNL     1      -6.519   5.818 132.048  0.00  0.00    +0.000 C 
BRANCH   3  10
ATOM      4  N   UNL     1      -7.712   1.209 128.100  0.00  0.00    +0.000 N 
ATOM      5  C   UNL     1      -7.550   2.525 128.546  0.00  0.00    +0.000 C 
ATOM      6  N   UNL     1      -7.706   3.595 127.847  0.00  0.00    +0.000 NA
ATOM      7  N   UNL     1      -7.191   2.847 129.861  0.00  0.00    +0.000 N 
ATOM      8  C   UNL     1      -7.022   4.158 130.333  0.00  0.00    +0.000 C 
ATOM      9  N   UNL     1      -7.165   5.220 129.589  0.00  0.00    +0.000 NA
ATOM     10  N   UNL     1      -6.685   4.410 131.632  0.00  0.00    +0.000 N 
ATOM     11  H   UNL     1      -7.589   0.455 128.765  0.00  0.00    +0.000 HD
ATOM     12  H   UNL     1      -7.997   3.488 126.908  0.00  0.00    +0.000 HD
ATOM     13  H   UNL     1      -7.064   2.111 130.532  0.00  0.00    +0.000 HD
ATOM     14  H   UNL     1      -7.420   4.845 128.651  0.00  0.00    +0.000 HD
ATOM     15  H   UNL     1      -6.546   3.687 132.314  0.00  0.00    +0.000 HD
BRANCH   4  20
ATOM     16 CL   UNL     1      -9.335  -0.758 122.617  0.00  0.00    +0.000 Cl
ATOM     17  C   UNL     1      -8.827  -0.206 124.160  0.00  0.00    +0.000 A 
ATOM     18  C   UNL     1      -7.533  -0.389 124.641  0.00  0.00    +0.000 A 
ATOM     19  C   UNL     1      -7.156   0.074 125.938  0.00  0.00    +0.000 A 
ATOM     20  C   UNL     1      -8.070   0.747 126.779  0.00  0.00    +0.000 A 
ATOM     21  C   UNL     1      -9.338   0.920 126.200  0.00  0.00    +0.000 A 
ATOM     22  C   UNL     1      -9.731   0.453 124.947  0.00  0.00    +0.000 A 
ENDBRANCH   4  20
ENDBRANCH   3  10
ENDBRANCH   2   3
ENDBRANCH   1   2
BRANCH   1  23
ATOM     23  C   UNL     1      -2.954   5.695 131.562  0.00  0.00    +0.000 C 
BRANCH  23  24
ATOM     24  C   UNL     1      -3.247   4.590 130.522  0.00  0.00    +0.000 C 
BRANCH  24  25
ATOM     25  C   UNL     1      -3.638   5.193 129.170  0.00  0.00    +0.000 C 
BRANCH  25  26
ATOM     26  N   UNL     1      -4.097   4.222 128.160  0.00  0.00    +0.000 N 
ATOM     27  C   UNL     1      -4.708   4.612 126.991  0.00  0.00    +0.000 C 
ATOM     28  N   UNL     1      -4.907   5.871 126.734  0.00  0.00    +0.000 NA
ATOM     29  N   UNL     1      -5.133   3.673 126.054  0.00  0.00    +0.000 N 
ATOM     30  C   UNL     1      -5.774   3.941 124.839  0.00  0.00    +0.000 C 
ATOM     31  N   UNL     1      -6.042   5.174 124.505  0.00  0.00    +0.000 NA
ATOM     32  N   UNL     1      -6.145   2.915 123.984  0.00  0.00    +0.000 N 
ATOM     33  H   UNL     1      -3.938   3.246 128.369  0.00  0.00    +0.000 HD
ATOM     34  H   UNL     1      -4.566   6.467 127.480  0.00  0.00    +0.000 HD
ATOM     35  H   UNL     1      -4.964   2.706 126.274  0.00  0.00    +0.000 HD
ATOM     36  H   UNL     1      -5.674   5.761 125.278  0.00  0.00    +0.000 HD
ATOM     37  H   UNL     1      -6.113   1.948 124.267  0.00  0.00    +0.000 HD
BRANCH  32  38
ATOM     38  C   UNL     1      -6.747   3.146 122.706  0.00  0.00    +0.000 A 
ATOM     39  C   UNL     1      -5.973   3.562 121.604  0.00  0.00    +0.000 A 
ATOM     40  C   UNL     1      -6.544   3.940 120.382  0.00  0.00    +0.000 A 
ATOM     41  C   UNL     1      -7.921   3.910 120.233  0.00  0.00    +0.000 A 
ATOM     42 CL   UNL     1      -8.629   4.403 118.742  0.00  0.00    +0.000 Cl
ATOM     43  C   UNL     1      -8.723   3.489 121.293  0.00  0.00    +0.000 A 
ATOM     44  C   UNL     1      -8.141   3.109 122.522  0.00  0.00    +0.000 A 
ENDBRANCH  32  38
ENDBRANCH  25  26
ENDBRANCH  24  25
ENDBRANCH  23  24
ENDBRANCH   1  23
TORSDOF 9
ENDMDL
MODEL 5
REMARK VINA RESULT:      -9.0      3.526      7.749
REMARK  Name = Chlorhexidine
REMARK  9 active torsions:
REMARK  status: ('A' for Active; 'I' for Inactive)
REMARK    1  A    between atoms: C_5  and  N_6
REMARK    2  A    between atoms: N_12  and  C_13
REMARK    3  A    between atoms: C_13  and  C_14
REMARK    4  A    between atoms: C_14  and  C_15
REMARK    5  A    between atoms: C_15  and  C_16
REMARK    6  A    between atoms: C_16  and  C_17
REMARK    7  A    between atoms: C_17  and  C_18
REMARK    8  A    between atoms: C_18  and  N_19
REMARK    9  A    between atoms: N_25  and  C_26
REMARK                            x       y       z     vdW  Elec       q    Type
REMARK                         _______ _______ _______ _____ _____    ______ ____
ROOT
ATOM      1  C   UNL     1      -5.887   6.421 131.786  0.00  0.00    +0.000 C 
ENDROOT
BRANCH   1   2
ATOM      2  C   UNL     1      -5.937   5.187 132.709  0.00  0.00    +0.000 C 
BRANCH   2   3
ATOM      3  C   UNL     1      -5.116   4.031 132.149  0.00  0.00    +0.000 C 
BRANCH   3  10
ATOM      4  N   UNL     1      -7.697  -0.429 128.727  0.00  0.00    +0.000 N 
ATOM      5  C   UNL     1      -6.950   0.720 129.011  0.00  0.00    +0.000 C 
ATOM      6  N   UNL     1      -6.333   1.463 128.159  0.00  0.00    +0.000 NA
ATOM      7  N   UNL     1      -6.782   1.221 130.308  0.00  0.00    +0.000 N 
ATOM      8  C   UNL     1      -6.038   2.370 130.620  0.00  0.00    +0.000 C 
ATOM      9  N   UNL     1      -5.406   3.086 129.731  0.00  0.00    +0.000 NA
ATOM     10  N   UNL     1      -5.923   2.818 131.904  0.00  0.00    +0.000 N 
ATOM     11  H   UNL     1      -8.159  -0.905 129.492  0.00  0.00    +0.000 HD
ATOM     12  H   UNL     1      -6.414   1.223 127.203  0.00  0.00    +0.000 HD
ATOM     13  H   UNL     1      -7.233   0.759 131.078  0.00  0.00    +0.000 HD
ATOM     14  H   UNL     1      -5.604   2.608 128.827  0.00  0.00    +0.000 HD
ATOM     15  H   UNL     1      -6.360   2.364 132.687  0.00  0.00    +0.000 HD
BRANCH   4  20
ATOM     16 CL   UNL     1      -8.832  -2.964 123.356  0.00  0.00    +0.000 Cl
ATOM     17  C   UNL     1      -8.474  -2.278 124.888  0.00  0.00    +0.000 A 
ATOM     18  C   UNL     1      -7.726  -2.941 125.857  0.00  0.00    +0.000 A 
ATOM     19  C   UNL     1      -7.465  -2.339 127.126  0.00  0.00    +0.000 A 
ATOM     20  C   UNL     1      -7.939  -1.047 127.445  0.00  0.00    +0.000 A 
ATOM     21  C   UNL     1      -8.650  -0.440 126.397  0.00  0.00    +0.000 A 
ATOM     22  C   UNL     1      -8.936  -1.021 125.163  0.00  0.00    +0.000 A 
ENDBRANCH   4  20
ENDBRANCH   3  10
ENDBRANCH   2   3
ENDBRANCH   1   2
BRANCH   1  23
ATOM     23  C   UNL     1      -7.286   6.843 131.322  0.00  0.00    +0.000 C 
BRANCH  23  24
ATOM     24  C   UNL     1      -8.408   6.130 132.113  0.00  0.00    +0.000 C 
BRANCH  24  25
ATOM     25  C   UNL     1      -9.290   5.291 131.185  0.00  0.00    +0.000 C 
BRANCH  25  26
ATOM     26  N   UNL     1      -8.562   4.493 130.180  0.00  0.00    +0.000 N 
ATOM     27  C   UNL     1      -8.586   4.802 128.840  0.00  0.00    +0.000 C 
ATOM     28  N   UNL     1      -9.266   5.822 128.406  0.00  0.00    +0.000 NA
ATOM     29  N   UNL     1      -7.889   4.031 127.912  0.00  0.00    +0.000 N 
ATOM     30  C   UNL     1      -7.845   4.234 126.528  0.00  0.00    +0.000 C 
ATOM     31  N   UNL     1      -8.518   5.217 125.993  0.00  0.00    +0.000 NA
ATOM     32  N   UNL     1      -7.107   3.397 125.706  0.00  0.00    +0.000 N 
ATOM     33  H   UNL     1      -8.037   3.703 130.528  0.00  0.00    +0.000 HD
ATOM     34  H   UNL     1      -9.737   6.310 129.160  0.00  0.00    +0.000 HD
ATOM     35  H   UNL     1      -7.368   3.250 128.273  0.00  0.00    +0.000 HD
ATOM     36  H   UNL     1      -8.979   5.704 126.786  0.00  0.00    +0.000 HD
ATOM     37  H   UNL     1      -6.711   2.534 126.042  0.00  0.00    +0.000 HD
BRANCH  32  38
ATOM     38  C   UNL     1      -6.985   3.603 124.294  0.00  0.00    +0.000 A 
ATOM     39  C   UNL     1      -8.003   3.189 123.411  0.00  0.00    +0.000 A 
ATOM     40  C   UNL     1      -7.858   3.238 122.019  0.00  0.00    +0.000 A 
ATOM     41  C   UNL     1      -6.675   3.709 121.470  0.00  0.00    +0.000 A 
ATOM     42 CL   UNL     1      -6.481   3.742 119.759  0.00  0.00    +0.000 Cl
ATOM     43  C   UNL     1      -5.649   4.144 122.308  0.00  0.00    +0.000 A 
ATOM     44  C   UNL     1      -5.802   4.091 123.712  0.00  0.00    +0.000 A 
ENDBRANCH  32  38
ENDBRANCH  25  26
ENDBRANCH  24  25
ENDBRANCH  23  24
ENDBRANCH   1  23
TORSDOF 9
ENDMDL
MODEL 6
REMARK VINA RESULT:      -9.0      3.748      7.331
REMARK  Name = Chlorhexidine
REMARK  9 active torsions:
REMARK  status: ('A' for Active; 'I' for Inactive)
REMARK    1  A    between atoms: C_5  and  N_6
REMARK    2  A    between atoms: N_12  and  C_13
REMARK    3  A    between atoms: C_13  and  C_14
REMARK    4  A    between atoms: C_14  and  C_15
REMARK    5  A    between atoms: C_15  and  C_16
REMARK    6  A    between atoms: C_16  and  C_17
REMARK    7  A    between atoms: C_17  and  C_18
REMARK    8  A    between atoms: C_18  and  N_19
REMARK    9  A    between atoms: N_25  and  C_26
REMARK                            x       y       z     vdW  Elec       q    Type
REMARK                         _______ _______ _______ _____ _____    ______ ____
ROOT
ATOM      1  C   UNL     1      -4.515   5.457 132.355  0.00  0.00    +0.000 C 
ENDROOT
BRANCH   1   2
ATOM      2  C   UNL     1      -3.836   4.360 131.511  0.00  0.00    +0.000 C 
BRANCH   2   3
ATOM      3  C   UNL     1      -3.340   4.903 130.175  0.00  0.00    +0.000 C 
BRANCH   3  10
ATOM      4  N   UNL     1      -5.642   2.957 124.774  0.00  0.00    +0.000 N 
ATOM      5  C   UNL     1      -5.426   3.815 125.859  0.00  0.00    +0.000 C 
ATOM      6  N   UNL     1      -5.946   4.981 126.028  0.00  0.00    +0.000 NA
ATOM      7  N   UNL     1      -4.590   3.491 126.934  0.00  0.00    +0.000 N 
ATOM      8  C   UNL     1      -4.356   4.334 128.032  0.00  0.00    +0.000 C 
ATOM      9  N   UNL     1      -4.882   5.520 128.159  0.00  0.00    +0.000 NA
ATOM     10  N   UNL     1      -3.540   3.956 129.059  0.00  0.00    +0.000 N 
ATOM     11  H   UNL     1      -5.193   2.050 124.780  0.00  0.00    +0.000 HD
ATOM     12  H   UNL     1      -6.585   5.299 125.344  0.00  0.00    +0.000 HD
ATOM     13  H   UNL     1      -4.137   2.595 126.954  0.00  0.00    +0.000 HD
ATOM     14  H   UNL     1      -5.465   5.637 127.304  0.00  0.00    +0.000 HD
ATOM     15  H   UNL     1      -3.072   3.067 129.092  0.00  0.00    +0.000 HD
BRANCH   4  20
ATOM     16 CL   UNL     1      -9.171   3.753 119.928  0.00  0.00    +0.000 Cl
ATOM     17  C   UNL     1      -8.135   3.556 121.282  0.00  0.00    +0.000 A 
ATOM     18  C   UNL     1      -6.779   3.871 121.250  0.00  0.00    +0.000 A 
ATOM     19  C   UNL     1      -5.950   3.678 122.396  0.00  0.00    +0.000 A 
ATOM     20  C   UNL     1      -6.469   3.174 123.610  0.00  0.00    +0.000 A 
ATOM     21  C   UNL     1      -7.849   2.919 123.563  0.00  0.00    +0.000 A 
ATOM     22  C   UNL     1      -8.669   3.078 122.447  0.00  0.00    +0.000 A 
ENDBRANCH   4  20
ENDBRANCH   3  10
ENDBRANCH   2   3
ENDBRANCH   1   2
BRANCH   1  23
ATOM     23  C   UNL     1      -5.360   6.400 131.491  0.00  0.00    +0.000 C 
BRANCH  23  24
ATOM     24  C   UNL     1      -6.872   6.276 131.790  0.00  0.00    +0.000 C 
BRANCH  24  25
ATOM     25  C   UNL     1      -7.615   5.628 130.618  0.00  0.00    +0.000 C 
BRANCH  25  26
ATOM     26  N   UNL     1      -7.119   4.298 130.220  0.00  0.00    +0.000 N 
ATOM     27  C   UNL     1      -7.720   3.557 129.229  0.00  0.00    +0.000 C 
ATOM     28  N   UNL     1      -8.765   4.011 128.602  0.00  0.00    +0.000 NA
ATOM     29  N   UNL     1      -7.230   2.303 128.873  0.00  0.00    +0.000 N 
ATOM     30  C   UNL     1      -7.757   1.451 127.895  0.00  0.00    +0.000 C 
ATOM     31  N   UNL     1      -8.823   1.805 127.231  0.00  0.00    +0.000 NA
ATOM     32  N   UNL     1      -7.173   0.222 127.628  0.00  0.00    +0.000 N 
ATOM     33  H   UNL     1      -6.306   3.955 130.713  0.00  0.00    +0.000 HD
ATOM     34  H   UNL     1      -9.040   4.926 128.940  0.00  0.00    +0.000 HD
ATOM     35  H   UNL     1      -6.419   1.976 129.370  0.00  0.00    +0.000 HD
ATOM     36  H   UNL     1      -9.075   2.747 127.588  0.00  0.00    +0.000 HD
ATOM     37  H   UNL     1      -6.459  -0.169 128.221  0.00  0.00    +0.000 HD
BRANCH  32  38
ATOM     38  C   UNL     1      -7.643  -0.654 126.597  0.00  0.00    +0.000 A 
ATOM     39  C   UNL     1      -7.454  -0.338 125.236  0.00  0.00    +0.000 A 
ATOM     40  C   UNL     1      -8.025  -1.090 124.202  0.00  0.00    +0.000 A 
ATOM     41  C   UNL     1      -8.809  -2.191 124.509  0.00  0.00    +0.000 A 
ATOM     42 CL   UNL     1      -9.538  -3.101 123.242  0.00  0.00    +0.000 Cl
ATOM     43  C   UNL     1      -9.007  -2.549 125.842  0.00  0.00    +0.000 A 
ATOM     44  C   UNL     1      -8.428  -1.785 126.880  0.00  0.00    +0.000 A 
ENDBRANCH  32  38
ENDBRANCH  25  26
ENDBRANCH  24  25
ENDBRANCH  23  24
ENDBRANCH   1  23
TORSDOF 9
ENDMDL
MODEL 7
REMARK VINA RESULT:      -8.9      5.386      8.155
REMARK  Name = Chlorhexidine
REMARK  9 active torsions:
REMARK  status: ('A' for Active; 'I' for Inactive)
REMARK    1  A    between atoms: C_5  and  N_6
REMARK    2  A    between atoms: N_12  and  C_13
REMARK    3  A    between atoms: C_13  and  C_14
REMARK    4  A    between atoms: C_14  and  C_15
REMARK    5  A    between atoms: C_15  and  C_16
REMARK    6  A    between atoms: C_16  and  C_17
REMARK    7  A    between atoms: C_17  and  C_18
REMARK    8  A    between atoms: C_18  and  N_19
REMARK    9  A    between atoms: N_25  and  C_26
REMARK                            x       y       z     vdW  Elec       q    Type
REMARK                         _______ _______ _______ _____ _____    ______ ____
ROOT
ATOM      1  C   UNL     1      -1.867   6.368 130.302  0.00  0.00    +0.000 C 
ENDROOT
BRANCH   1   2
ATOM      2  C   UNL     1      -2.231   6.523 128.812  0.00  0.00    +0.000 C 
BRANCH   2   3
ATOM      3  C   UNL     1      -2.375   5.170 128.123  0.00  0.00    +0.000 C 
BRANCH   3  10
ATOM      4  N   UNL     1      -7.009   1.647 126.035  0.00  0.00    +0.000 N 
ATOM      5  C   UNL     1      -5.705   1.983 126.416  0.00  0.00    +0.000 C 
ATOM      6  N   UNL     1      -4.674   1.212 126.382  0.00  0.00    +0.000 NA
ATOM      7  N   UNL     1      -5.352   3.251 126.893  0.00  0.00    +0.000 N 
ATOM      8  C   UNL     1      -4.052   3.613 127.282  0.00  0.00    +0.000 C 
ATOM      9  N   UNL     1      -3.035   2.797 127.256  0.00  0.00    +0.000 NA
ATOM     10  N   UNL     1      -3.766   4.872 127.726  0.00  0.00    +0.000 N 
ATOM     11  H   UNL     1      -7.725   2.361 126.082  0.00  0.00    +0.000 HD
ATOM     12  H   UNL     1      -4.800   0.298 126.025  0.00  0.00    +0.000 HD
ATOM     13  H   UNL     1      -6.050   3.970 126.947  0.00  0.00    +0.000 HD
ATOM     14  H   UNL     1      -3.431   1.904 126.895  0.00  0.00    +0.000 HD
ATOM     15  H   UNL     1      -4.453   5.601 127.795  0.00  0.00    +0.000 HD
BRANCH   4  20
ATOM     16 CL   UNL     1      -9.116  -3.670 124.071  0.00  0.00    +0.000 Cl
ATOM     17  C   UNL     1      -8.487  -2.161 124.590  0.00  0.00    +0.000 A 
ATOM     18  C   UNL     1      -7.292  -1.633 124.107  0.00  0.00    +0.000 A 
ATOM     19  C   UNL     1      -6.797  -0.378 124.577  0.00  0.00    +0.000 A 
ATOM     20  C   UNL     1      -7.501   0.383 125.537  0.00  0.00    +0.000 A 
ATOM     21  C   UNL     1      -8.710  -0.206 125.939  0.00  0.00    +0.000 A 
ATOM     22  C   UNL     1      -9.197  -1.440 125.510  0.00  0.00    +0.000 A 
ENDBRANCH   4  20
ENDBRANCH   3  10
ENDBRANCH   2   3
ENDBRANCH   1   2
BRANCH   1  23
ATOM     23  C   UNL     1      -2.933   6.984 131.217  0.00  0.00    +0.000 C 
BRANCH  23  24
ATOM     24  C   UNL     1      -4.162   7.491 130.428  0.00  0.00    +0.000 C 
BRANCH  24  25
ATOM     25  C   UNL     1      -5.400   6.641 130.729  0.00  0.00    +0.000 C 
BRANCH  25  26
ATOM     26  N   UNL     1      -5.129   5.220 131.018  0.00  0.00    +0.000 N 
ATOM     27  C   UNL     1      -5.826   4.202 130.412  0.00  0.00    +0.000 C 
ATOM     28  N   UNL     1      -6.766   4.461 129.551  0.00  0.00    +0.000 NA
ATOM     29  N   UNL     1      -5.550   2.868 130.704  0.00  0.00    +0.000 N 
ATOM     30  C   UNL     1      -6.194   1.748 130.166  0.00  0.00    +0.000 C 
ATOM     31  N   UNL     1      -7.170   1.906 129.314  0.00  0.00    +0.000 NA
ATOM     32  N   UNL     1      -5.823   0.464 130.535  0.00  0.00    +0.000 N 
ATOM     33  H   UNL     1      -4.396   5.030 131.688  0.00  0.00    +0.000 HD
ATOM     34  H   UNL     1      -6.889   5.459 129.415  0.00  0.00    +0.000 HD
ATOM     35  H   UNL     1      -4.817   2.693 131.370  0.00  0.00    +0.000 HD
ATOM     36  H   UNL     1      -7.266   2.932 129.185  0.00  0.00    +0.000 HD
ATOM     37  H   UNL     1      -5.198   0.291 131.305  0.00  0.00    +0.000 HD
BRANCH  32  38
ATOM     38  C   UNL     1      -6.413  -0.710 129.965  0.00  0.00    +0.000 A 
ATOM     39  C   UNL     1      -5.986  -1.203 128.716  0.00  0.00    +0.000 A 
ATOM     40  C   UNL     1      -6.635  -2.256 128.059  0.00  0.00    +0.000 A 
ATOM     41  C   UNL     1      -7.741  -2.849 128.647  0.00  0.00    +0.000 A 
ATOM     42 CL   UNL     1      -8.561  -4.124 127.829  0.00  0.00    +0.000 Cl
ATOM     43  C   UNL     1      -8.187  -2.403 129.890  0.00  0.00    +0.000 A 
ATOM     44  C   UNL     1      -7.528  -1.340 130.546  0.00  0.00    +0.000 A 
ENDBRANCH  32  38
ENDBRANCH  25  26
ENDBRANCH  24  25
ENDBRANCH  23  24
ENDBRANCH   1  23
TORSDOF 9
ENDMDL
MODEL 8
REMARK VINA RESULT:      -8.8      4.516      6.617
REMARK  Name = Chlorhexidine
REMARK  9 active torsions:
REMARK  status: ('A' for Active; 'I' for Inactive)
REMARK    1  A    between atoms: C_5  and  N_6
REMARK    2  A    between atoms: N_12  and  C_13
REMARK    3  A    between atoms: C_13  and  C_14
REMARK    4  A    between atoms: C_14  and  C_15
REMARK    5  A    between atoms: C_15  and  C_16
REMARK    6  A    between atoms: C_16  and  C_17
REMARK    7  A    between atoms: C_17  and  C_18
REMARK    8  A    between atoms: C_18  and  N_19
REMARK    9  A    between atoms: N_25  and  C_26
REMARK                            x       y       z     vdW  Elec       q    Type
REMARK                         _______ _______ _______ _____ _____    ______ ____
ROOT
ATOM      1  C   UNL     1      -7.910  -3.816 124.586  0.00  0.00    +0.000 C 
ENDROOT
BRANCH   1   2
ATOM      2  C   UNL     1      -6.590  -3.128 124.183  0.00  0.00    +0.000 C 
BRANCH   2   3
ATOM      3  C   UNL     1      -5.917  -2.459 125.376  0.00  0.00    +0.000 C 
BRANCH   3  10
ATOM      4  N   UNL     1      -4.276   3.298 126.929  0.00  0.00    +0.000 N 
ATOM      5  C   UNL     1      -4.599   1.949 127.108  0.00  0.00    +0.000 C 
ATOM      6  N   UNL     1      -4.640   1.313 128.227  0.00  0.00    +0.000 NA
ATOM      7  N   UNL     1      -4.934   1.096 126.049  0.00  0.00    +0.000 N 
ATOM      8  C   UNL     1      -5.260  -0.260 126.202  0.00  0.00    +0.000 C 
ATOM      9  N   UNL     1      -5.269  -0.878 127.351  0.00  0.00    +0.000 NA
ATOM     10  N   UNL     1      -5.593  -1.039 125.131  0.00  0.00    +0.000 N 
ATOM     11  H   UNL     1      -4.312   3.683 125.993  0.00  0.00    +0.000 HD
ATOM     12  H   UNL     1      -4.456   1.829 129.051  0.00  0.00    +0.000 HD
ATOM     13  H   UNL     1      -4.973   1.462 125.115  0.00  0.00    +0.000 HD
ATOM     14  H   UNL     1      -5.000  -0.144 128.040  0.00  0.00    +0.000 HD
ATOM     15  H   UNL     1      -5.629  -0.692 124.189  0.00  0.00    +0.000 HD
BRANCH   4  20
ATOM     16 CL   UNL     1      -2.751   7.289 131.209  0.00  0.00    +0.000 Cl
ATOM     17  C   UNL     1      -3.197   6.195 129.965  0.00  0.00    +0.000 A 
ATOM     18  C   UNL     1      -3.989   6.563 128.881  0.00  0.00    +0.000 A 
ATOM     19  C   UNL     1      -4.350   5.616 127.875  0.00  0.00    +0.000 A 
ATOM     20  C   UNL     1      -3.910   4.274 127.929  0.00  0.00    +0.000 A 
ATOM     21  C   UNL     1      -3.088   4.001 129.034  0.00  0.00    +0.000 A 
ATOM     22  C   UNL     1      -2.746   4.905 130.038  0.00  0.00    +0.000 A 
ENDBRANCH   4  20
ENDBRANCH   3  10
ENDBRANCH   2   3
ENDBRANCH   1   2
BRANCH   1  23
ATOM     23  C   UNL     1      -9.130  -3.102 123.991  0.00  0.00    +0.000 C 
BRANCH  23  24
ATOM     24  C   UNL     1      -8.751  -2.171 122.816  0.00  0.00    +0.000 C 
BRANCH  24  25
ATOM     25  C   UNL     1      -8.975  -0.701 123.181  0.00  0.00    +0.000 C 
BRANCH  25  26
ATOM     26  N   UNL     1      -9.169  -0.436 124.619  0.00  0.00    +0.000 N 
ATOM     27  C   UNL     1      -8.596   0.643 125.251  0.00  0.00    +0.000 C 
ATOM     28  N   UNL     1      -7.849   1.478 124.591  0.00  0.00    +0.000 NA
ATOM     29  N   UNL     1      -8.796   0.869 126.610  0.00  0.00    +0.000 N 
ATOM     30  C   UNL     1      -8.261   1.919 127.366  0.00  0.00    +0.000 C 
ATOM     31  N   UNL     1      -7.475   2.793 126.800  0.00  0.00    +0.000 NA
ATOM     32  N   UNL     1      -8.540   2.040 128.719  0.00  0.00    +0.000 N 
ATOM     33  H   UNL     1      -9.752  -1.091 125.122  0.00  0.00    +0.000 HD
ATOM     34  H   UNL     1      -7.765   1.220 123.614  0.00  0.00    +0.000 HD
ATOM     35  H   UNL     1      -9.381   0.212 127.097  0.00  0.00    +0.000 HD
ATOM     36  H   UNL     1      -7.417   2.512 125.802  0.00  0.00    +0.000 HD
ATOM     37  H   UNL     1      -8.998   1.307 129.236  0.00  0.00    +0.000 HD
BRANCH  32  38
ATOM     38  C   UNL     1      -8.063   3.130 129.516  0.00  0.00    +0.000 A 
ATOM     39  C   UNL     1      -8.715   4.379 129.501  0.00  0.00    +0.000 A 
ATOM     40  C   UNL     1      -8.198   5.508 130.149  0.00  0.00    +0.000 A 
ATOM     41  C   UNL     1      -6.999   5.411 130.837  0.00  0.00    +0.000 A 
ATOM     42 CL   UNL     1      -6.343   6.803 131.610  0.00  0.00    +0.000 Cl
ATOM     43  C   UNL     1      -6.329   4.189 130.892  0.00  0.00    +0.000 A 
ATOM     44  C   UNL     1      -6.858   3.055 130.236  0.00  0.00    +0.000 A 
ENDBRANCH  32  38
ENDBRANCH  25  26
ENDBRANCH  24  25
ENDBRANCH  23  24
ENDBRANCH   1  23
TORSDOF 9
ENDMDL
MODEL 9
REMARK VINA RESULT:      -8.8      4.241      6.024
REMARK  Name = Chlorhexidine
REMARK  9 active torsions:
REMARK  status: ('A' for Active; 'I' for Inactive)
REMARK    1  A    between atoms: C_5  and  N_6
REMARK    2  A    between atoms: N_12  and  C_13
REMARK    3  A    between atoms: C_13  and  C_14
REMARK    4  A    between atoms: C_14  and  C_15
REMARK    5  A    between atoms: C_15  and  C_16
REMARK    6  A    between atoms: C_16  and  C_17
REMARK    7  A    between atoms: C_17  and  C_18
REMARK    8  A    between atoms: C_18  and  N_19
REMARK    9  A    between atoms: N_25  and  C_26
REMARK                            x       y       z     vdW  Elec       q    Type
REMARK                         _______ _______ _______ _____ _____    ______ ____
ROOT
ATOM      1  C   UNL     1      -1.675   5.245 131.930  0.00  0.00    +0.000 C 
ENDROOT
BRANCH   1   2
ATOM      2  C   UNL     1      -1.803   6.763 131.690  0.00  0.00    +0.000 C 
BRANCH   2   3
ATOM      3  C   UNL     1      -2.870   7.081 130.649  0.00  0.00    +0.000 C 
BRANCH   3  10
ATOM      4  N   UNL     1      -4.911   3.696 125.892  0.00  0.00    +0.000 N 
ATOM      5  C   UNL     1      -4.976   4.470 127.056  0.00  0.00    +0.000 C 
ATOM      6  N   UNL     1      -6.043   4.792 127.702  0.00  0.00    +0.000 NA
ATOM      7  N   UNL     1      -3.844   5.002 127.684  0.00  0.00    +0.000 N 
ATOM      8  C   UNL     1      -3.883   5.783 128.851  0.00  0.00    +0.000 C 
ATOM      9  N   UNL     1      -4.986   6.109 129.466  0.00  0.00    +0.000 NA
ATOM     10  N   UNL     1      -2.742   6.262 129.426  0.00  0.00    +0.000 N 
ATOM     11  H   UNL     1      -4.000   3.489 125.501  0.00  0.00    +0.000 HD
ATOM     12  H   UNL     1      -6.903   4.438 127.366  0.00  0.00    +0.000 HD
ATOM     13  H   UNL     1      -2.934   4.808 127.308  0.00  0.00    +0.000 HD
ATOM     14  H   UNL     1      -5.738   5.663 128.901  0.00  0.00    +0.000 HD
ATOM     15  H   UNL     1      -1.824   6.085 129.059  0.00  0.00    +0.000 HD
BRANCH   4  20
ATOM     16 CL   UNL     1      -9.518   1.310 122.786  0.00  0.00    +0.000 Cl
ATOM     17  C   UNL     1      -8.196   1.941 123.680  0.00  0.00    +0.000 A 
ATOM     18  C   UNL     1      -7.474   1.184 124.599  0.00  0.00    +0.000 A 
ATOM     19  C   UNL     1      -6.389   1.754 125.332  0.00  0.00    +0.000 A 
ATOM     20  C   UNL     1      -5.995   3.098 125.149  0.00  0.00    +0.000 A 
ATOM     21  C   UNL     1      -6.753   3.774 124.179  0.00  0.00    +0.000 A 
ATOM     22  C   UNL     1      -7.830   3.242 123.472  0.00  0.00    +0.000 A 
ENDBRANCH   4  20
ENDBRANCH   3  10
ENDBRANCH   2   3
ENDBRANCH   1   2
BRANCH   1  23
ATOM     23  C   UNL     1      -2.742   4.731 132.904  0.00  0.00    +0.000 C 
BRANCH  23  24
ATOM     24  C   UNL     1      -2.814   3.187 132.935  0.00  0.00    +0.000 C 
BRANCH  24  25
ATOM     25  C   UNL     1      -4.216   2.692 132.567  0.00  0.00    +0.000 C 
BRANCH  25  26
ATOM     26  N   UNL     1      -5.308   3.647 132.836  0.00  0.00    +0.000 N 
ATOM     27  C   UNL     1      -6.210   4.022 131.868  0.00  0.00    +0.000 C 
ATOM     28  N   UNL     1      -6.128   3.541 130.663  0.00  0.00    +0.000 NA
ATOM     29  N   UNL     1      -7.231   4.926 132.149  0.00  0.00    +0.000 N 
ATOM     30  C   UNL     1      -8.199   5.392 131.252  0.00  0.00    +0.000 C 
ATOM     31  N   UNL     1      -8.183   4.989 130.011  0.00  0.00    +0.000 NA
ATOM     32  N   UNL     1      -9.173   6.293 131.656  0.00  0.00    +0.000 N 
ATOM     33  H   UNL     1      -5.362   4.014 133.776  0.00  0.00    +0.000 HD
ATOM     34  H   UNL     1      -5.350   2.898 130.564  0.00  0.00    +0.000 HD
ATOM     35  H   UNL     1      -7.276   5.280 133.089  0.00  0.00    +0.000 HD
ATOM     36  H   UNL     1      -7.387   4.326 129.942  0.00  0.00    +0.000 HD
ATOM     37  H   UNL     1      -9.130   6.760 132.547  0.00  0.00    +0.000 HD
BRANCH  32  38
ATOM     38  C   UNL     1     -10.217   6.750 130.789  0.00  0.00    +0.000 A 
ATOM     39  C   UNL     1      -9.930   7.564 129.676  0.00  0.00    +0.000 A 
ATOM     40  C   UNL     1     -10.932   8.151 128.892  0.00  0.00    +0.000 A 
ATOM     41  C   UNL     1     -12.263   7.932 129.210  0.00  0.00    +0.000 A 
ATOM     42 CL   UNL     1     -13.499   8.676 128.269  0.00  0.00    +0.000 Cl
ATOM     43  C   UNL     1     -12.592   7.119 130.294  0.00  0.00    +0.000 A 
ATOM     44  C   UNL     1     -11.576   6.531 131.079  0.00  0.00    +0.000 A 
ENDBRANCH  32  38
ENDBRANCH  25  26
ENDBRANCH  24  25
ENDBRANCH  23  24
ENDBRANCH   1  23
TORSDOF 9
ENDMDL
