MODEL 1
REMARK VINA RESULT:      -6.0      0.000      0.000
REMARK  Name = Chlorquinaldol
REMARK  2 active torsions:
REMARK  status: ('A' for Active; 'I' for Inactive)
REMARK    1  A    between atoms: C_1  and  C_2
REMARK    2  A    between atoms: C_13  and  O_14
REMARK                            x       y       z     vdW  Elec       q    Type
REMARK                         _______ _______ _______ _____ _____    ______ ____
ROOT
ATOM      1  C   UNL     1     -13.165   7.560 127.875  0.00  0.00    +0.000 C 
ATOM      2  C   UNL     1     -11.915   7.163 128.596  0.00  0.00    +0.000 A 
ATOM      3  N   UNL     1     -11.901   5.977 129.243  0.00  0.00    +0.000 NA
ATOM      4  C   UNL     1     -10.804   5.613 129.943  0.00  0.00    +0.000 A 
ATOM      5  C   UNL     1      -9.720   6.510 130.125  0.00  0.00    +0.000 A 
ATOM      6  C   UNL     1      -9.808   7.763 129.499  0.00  0.00    +0.000 A 
ATOM      7  C   UNL     1     -10.852   8.046 128.639  0.00  0.00    +0.000 A 
ATOM      8  C   UNL     1      -8.584   6.098 130.853  0.00  0.00    +0.000 A 
ATOM      9 CL   UNL     1      -7.216   7.139 131.090  0.00  0.00    +0.000 Cl
ATOM     10  C   UNL     1      -8.482   4.804 131.352  0.00  0.00    +0.000 A 
ATOM     11  C   UNL     1      -9.536   3.920 131.163  0.00  0.00    +0.000 A 
ATOM     12 CL   UNL     1      -9.385   2.309 131.760  0.00  0.00    +0.000 Cl
ATOM     13  C   UNL     1     -10.687   4.327 130.483  0.00  0.00    +0.000 A 
ENDROOT
BRANCH  13  14
ATOM     14  O   UNL     1     -11.725   3.434 130.298  0.00  0.00    +0.000 OA
ATOM     15  H   UNL     1     -11.729   3.156 129.365  0.00  0.00    +0.000 HD
ENDBRANCH  13  14
TORSDOF 1
ENDMDL
MODEL 2
REMARK VINA RESULT:      -6.0      3.376      5.061
REMARK  Name = Chlorquinaldol
REMARK  2 active torsions:
REMARK  status: ('A' for Active; 'I' for Inactive)
REMARK    1  A    between atoms: C_1  and  C_2
REMARK    2  A    between atoms: C_13  and  O_14
REMARK                            x       y       z     vdW  Elec       q    Type
REMARK                         _______ _______ _______ _____ _____    ______ ____
ROOT
ATOM      1  C   UNL     1      -4.271   7.718 130.272  0.00  0.00    +0.000 C 
ATOM      2  C   UNL     1      -5.399   7.042 130.986  0.00  0.00    +0.000 A 
ATOM      3  N   UNL     1      -6.662   7.350 130.620  0.00  0.00    +0.000 NA
ATOM      4  C   UNL     1      -7.702   6.793 131.278  0.00  0.00    +0.000 A 
ATOM      5  C   UNL     1      -7.495   5.997 132.434  0.00  0.00    +0.000 A 
ATOM      6  C   UNL     1      -6.168   5.764 132.827  0.00  0.00    +0.000 A 
ATOM      7  C   UNL     1      -5.117   6.188 132.036  0.00  0.00    +0.000 A 
ATOM      8  C   UNL     1      -8.600   5.421 133.095  0.00  0.00    +0.000 A 
ATOM      9 CL   UNL     1      -8.412   4.418 134.499  0.00  0.00    +0.000 Cl
ATOM     10  C   UNL     1      -9.891   5.573 132.602  0.00  0.00    +0.000 A 
ATOM     11  C   UNL     1     -10.095   6.340 131.463  0.00  0.00    +0.000 A 
ATOM     12 CL   UNL     1     -11.697   6.497 130.843  0.00  0.00    +0.000 Cl
ATOM     13  C   UNL     1      -9.016   6.955 130.822  0.00  0.00    +0.000 A 
ENDROOT
BRANCH  13  14
ATOM     14  O   UNL     1      -9.233   7.711 129.686  0.00  0.00    +0.000 OA
ATOM     15  H   UNL     1      -8.386   8.102 129.410  0.00  0.00    +0.000 HD
ENDBRANCH  13  14
TORSDOF 1
ENDMDL
MODEL 3
REMARK VINA RESULT:      -5.9      8.641      8.709
REMARK  Name = Chlorquinaldol
REMARK  2 active torsions:
REMARK  status: ('A' for Active; 'I' for Inactive)
REMARK    1  A    between atoms: C_1  and  C_2
REMARK    2  A    between atoms: C_13  and  O_14
REMARK                            x       y       z     vdW  Elec       q    Type
REMARK                         _______ _______ _______ _____ _____    ______ ____
ROOT
ATOM      1  C   UNL     1      -6.781   4.587 118.807  0.00  0.00    +0.000 C 
ATOM      2  C   UNL     1      -6.531   4.220 120.236  0.00  0.00    +0.000 A 
ATOM      3  N   UNL     1      -7.540   3.657 120.937  0.00  0.00    +0.000 NA
ATOM      4  C   UNL     1      -7.359   3.359 122.242  0.00  0.00    +0.000 A 
ATOM      5  C   UNL     1      -6.179   3.750 122.927  0.00  0.00    +0.000 A 
ATOM      6  C   UNL     1      -5.187   4.402 122.179  0.00  0.00    +0.000 A 
ATOM      7  C   UNL     1      -5.312   4.533 120.809  0.00  0.00    +0.000 A 
ATOM      8  C   UNL     1      -6.015   3.416 124.288  0.00  0.00    +0.000 A 
ATOM      9 CL   UNL     1      -4.586   3.843 125.174  0.00  0.00    +0.000 Cl
ATOM     10  C   UNL     1      -6.968   2.660 124.961  0.00  0.00    +0.000 A 
ATOM     11  C   UNL     1      -8.117   2.265 124.290  0.00  0.00    +0.000 A 
ATOM     12 CL   UNL     1      -9.278   1.302 125.127  0.00  0.00    +0.000 Cl
ATOM     13  C   UNL     1      -8.316   2.626 122.954  0.00  0.00    +0.000 A 
ENDROOT
BRANCH  13  14
ATOM     14  O   UNL     1      -9.462   2.220 122.297  0.00  0.00    +0.000 OA
ATOM     15  H   UNL     1      -9.554   1.258 122.406  0.00  0.00    +0.000 HD
ENDBRANCH  13  14
TORSDOF 1
ENDMDL
MODEL 4
REMARK VINA RESULT:      -5.9      2.270      2.582
REMARK  Name = Chlorquinaldol
REMARK  2 active torsions:
REMARK  status: ('A' for Active; 'I' for Inactive)
REMARK    1  A    between atoms: C_1  and  C_2
REMARK    2  A    between atoms: C_13  and  O_14
REMARK                            x       y       z     vdW  Elec       q    Type
REMARK                         _______ _______ _______ _____ _____    ______ ____
ROOT
ATOM      1  C   UNL     1     -12.639   6.956 130.438  0.00  0.00    +0.000 C 
ATOM      2  C   UNL     1     -11.178   6.769 130.701  0.00  0.00    +0.000 A 
ATOM      3  N   UNL     1     -10.811   6.065 131.795  0.00  0.00    +0.000 NA
ATOM      4  C   UNL     1      -9.500   5.920 132.084  0.00  0.00    +0.000 A 
ATOM      5  C   UNL     1      -8.505   6.604 131.341  0.00  0.00    +0.000 A 
ATOM      6  C   UNL     1      -8.934   7.387 130.258  0.00  0.00    +0.000 A 
ATOM      7  C   UNL     1     -10.259   7.377 129.865  0.00  0.00    +0.000 A 
ATOM      8  C   UNL     1      -7.143   6.425 131.661  0.00  0.00    +0.000 A 
ATOM      9 CL   UNL     1      -5.877   7.215 130.774  0.00  0.00    +0.000 Cl
ATOM     10  C   UNL     1      -6.751   5.543 132.662  0.00  0.00    +0.000 A 
ATOM     11  C   UNL     1      -7.722   4.861 133.382  0.00  0.00    +0.000 A 
ATOM     12 CL   UNL     1      -7.223   3.747 134.601  0.00  0.00    +0.000 Cl
ATOM     13  C   UNL     1      -9.077   5.061 133.107  0.00  0.00    +0.000 A 
ENDROOT
BRANCH  13  14
ATOM     14  O   UNL     1     -10.033   4.371 133.829  0.00  0.00    +0.000 OA
ATOM     15  H   UNL     1     -10.103   3.472 133.465  0.00  0.00    +0.000 HD
ENDBRANCH  13  14
TORSDOF 1
ENDMDL
MODEL 5
REMARK VINA RESULT:      -5.8      2.752      3.876
REMARK  Name = Chlorquinaldol
REMARK  2 active torsions:
REMARK  status: ('A' for Active; 'I' for Inactive)
REMARK    1  A    between atoms: C_1  and  C_2
REMARK    2  A    between atoms: C_13  and  O_14
REMARK                            x       y       z     vdW  Elec       q    Type
REMARK                         _______ _______ _______ _____ _____    ______ ____
ROOT
ATOM      1  C   UNL     1     -10.810   8.206 128.739  0.00  0.00    +0.000 C 
ATOM      2  C   UNL     1     -10.190   7.466 129.883  0.00  0.00    +0.000 A 
ATOM      3  N   UNL     1      -8.842   7.453 129.980  0.00  0.00    +0.000 NA
ATOM      4  C   UNL     1      -8.253   6.753 130.974  0.00  0.00    +0.000 A 
ATOM      5  C   UNL     1      -9.013   5.921 131.835  0.00  0.00    +0.000 A 
ATOM      6  C   UNL     1     -10.404   5.903 131.651  0.00  0.00    +0.000 A 
ATOM      7  C   UNL     1     -11.005   6.765 130.752  0.00  0.00    +0.000 A 
ATOM      8  C   UNL     1      -8.370   5.210 132.870  0.00  0.00    +0.000 A 
ATOM      9 CL   UNL     1      -9.246   4.195 133.971  0.00  0.00    +0.000 Cl
ATOM     10  C   UNL     1      -7.006   5.351 133.098  0.00  0.00    +0.000 A 
ATOM     11  C   UNL     1      -6.262   6.176 132.265  0.00  0.00    +0.000 A 
ATOM     12 CL   UNL     1      -4.575   6.367 132.576  0.00  0.00    +0.000 Cl
ATOM     13  C   UNL     1      -6.875   6.852 131.207  0.00  0.00    +0.000 A 
ENDROOT
BRANCH  13  14
ATOM     14  O   UNL     1      -6.123   7.674 130.390  0.00  0.00    +0.000 OA
ATOM     15  H   UNL     1      -5.272   7.848 130.829  0.00  0.00    +0.000 HD
ENDBRANCH  13  14
TORSDOF 1
ENDMDL
MODEL 6
REMARK VINA RESULT:      -5.4      9.378     10.003
REMARK  Name = Chlorquinaldol
REMARK  2 active torsions:
REMARK  status: ('A' for Active; 'I' for Inactive)
REMARK    1  A    between atoms: C_1  and  C_2
REMARK    2  A    between atoms: C_13  and  O_14
REMARK                            x       y       z     vdW  Elec       q    Type
REMARK                         _______ _______ _______ _____ _____    ______ ____
ROOT
ATOM      1  C   UNL     1      -7.587  -1.782 122.652  0.00  0.00    +0.000 C 
ATOM      2  C   UNL     1      -7.876  -2.169 124.069  0.00  0.00    +0.000 A 
ATOM      3  N   UNL     1      -6.918  -1.955 124.997  0.00  0.00    +0.000 NA
ATOM      4  C   UNL     1      -7.132  -2.337 126.275  0.00  0.00    +0.000 A 
ATOM      5  C   UNL     1      -8.285  -3.080 126.635  0.00  0.00    +0.000 A 
ATOM      6  C   UNL     1      -9.220  -3.348 125.623  0.00  0.00    +0.000 A 
ATOM      7  C   UNL     1      -9.074  -2.792 124.366  0.00  0.00    +0.000 A 
ATOM      8  C   UNL     1      -8.485  -3.457 127.979  0.00  0.00    +0.000 A 
ATOM      9 CL   UNL     1      -9.887  -4.345 128.487  0.00  0.00    +0.000 Cl
ATOM     10  C   UNL     1      -7.597  -3.065 128.974  0.00  0.00    +0.000 A 
ATOM     11  C   UNL     1      -6.474  -2.326 128.627  0.00  0.00    +0.000 A 
ATOM     12 CL   UNL     1      -5.395  -1.820 129.874  0.00  0.00    +0.000 Cl
ATOM     13  C   UNL     1      -6.238  -1.983 127.293  0.00  0.00    +0.000 A 
ENDROOT
BRANCH  13  14
ATOM     14  O   UNL     1      -5.119  -1.242 126.963  0.00  0.00    +0.000 OA
ATOM     15  H   UNL     1      -4.331  -1.718 127.279  0.00  0.00    +0.000 HD
ENDBRANCH  13  14
TORSDOF 1
ENDMDL
MODEL 7
REMARK VINA RESULT:      -5.4      6.262      7.307
REMARK  Name = Chlorquinaldol
REMARK  2 active torsions:
REMARK  status: ('A' for Active; 'I' for Inactive)
REMARK    1  A    between atoms: C_1  and  C_2
REMARK    2  A    between atoms: C_13  and  O_14
REMARK                            x       y       z     vdW  Elec       q    Type
REMARK                         _______ _______ _______ _____ _____    ______ ____
ROOT
ATOM      1  C   UNL     1      -4.143   7.922 130.268  0.00  0.00    +0.000 C 
ATOM      2  C   UNL     1      -3.842   6.790 129.335  0.00  0.00    +0.000 A 
ATOM      3  N   UNL     1      -4.871   6.028 128.904  0.00  0.00    +0.000 NA
ATOM      4  C   UNL     1      -4.624   4.970 128.100  0.00  0.00    +0.000 A 
ATOM      5  C   UNL     1      -3.297   4.564 127.810  0.00  0.00    +0.000 A 
ATOM      6  C   UNL     1      -2.255   5.339 128.341  0.00  0.00    +0.000 A 
ATOM      7  C   UNL     1      -2.527   6.520 129.006  0.00  0.00    +0.000 A 
ATOM      8  C   UNL     1      -3.072   3.461 126.959  0.00  0.00    +0.000 A 
ATOM      9 CL   UNL     1      -1.472   2.929 126.546  0.00  0.00    +0.000 Cl
ATOM     10  C   UNL     1      -4.130   2.795 126.352  0.00  0.00    +0.000 A 
ATOM     11  C   UNL     1      -5.430   3.199 126.624  0.00  0.00    +0.000 A 
ATOM     12 CL   UNL     1      -6.734   2.385 125.842  0.00  0.00    +0.000 Cl
ATOM     13  C   UNL     1      -5.672   4.261 127.500  0.00  0.00    +0.000 A 
ENDROOT
BRANCH  13  14
ATOM     14  O   UNL     1      -6.971   4.657 127.756  0.00  0.00    +0.000 OA
ATOM     15  H   UNL     1      -7.569   3.931 127.504  0.00  0.00    +0.000 HD
ENDBRANCH  13  14
TORSDOF 1
ENDMDL
MODEL 8
REMARK VINA RESULT:      -5.3      2.033      2.065
REMARK  Name = Chlorquinaldol
REMARK  2 active torsions:
REMARK  status: ('A' for Active; 'I' for Inactive)
REMARK    1  A    between atoms: C_1  and  C_2
REMARK    2  A    between atoms: C_13  and  O_14
REMARK                            x       y       z     vdW  Elec       q    Type
REMARK                         _______ _______ _______ _____ _____    ______ ____
ROOT
ATOM      1  C   UNL     1     -12.765   9.281 129.199  0.00  0.00    +0.000 C 
ATOM      2  C   UNL     1     -11.813   8.126 129.209  0.00  0.00    +0.000 A 
ATOM      3  N   UNL     1     -11.512   7.557 130.397  0.00  0.00    +0.000 NA
ATOM      4  C   UNL     1     -10.619   6.545 130.443  0.00  0.00    +0.000 A 
ATOM      5  C   UNL     1      -9.890   6.157 129.290  0.00  0.00    +0.000 A 
ATOM      6  C   UNL     1     -10.178   6.826 128.091  0.00  0.00    +0.000 A 
ATOM      7  C   UNL     1     -11.222   7.730 128.024  0.00  0.00    +0.000 A 
ATOM      8  C   UNL     1      -8.971   5.089 129.367  0.00  0.00    +0.000 A 
ATOM      9 CL   UNL     1      -8.067   4.551 127.987  0.00  0.00    +0.000 Cl
ATOM     10  C   UNL     1      -8.805   4.369 130.545  0.00  0.00    +0.000 A 
ATOM     11  C   UNL     1      -9.527   4.738 131.672  0.00  0.00    +0.000 A 
ATOM     12 CL   UNL     1      -9.335   3.819 133.119  0.00  0.00    +0.000 Cl
ATOM     13  C   UNL     1     -10.408   5.822 131.624  0.00  0.00    +0.000 A 
ENDROOT
BRANCH  13  14
ATOM     14  O   UNL     1     -11.124   6.173 132.752  0.00  0.00    +0.000 OA
ATOM     15  H   UNL     1     -11.217   5.385 133.316  0.00  0.00    +0.000 HD
ENDBRANCH  13  14
TORSDOF 1
ENDMDL
MODEL 9
REMARK VINA RESULT:      -5.3      7.811      8.773
REMARK  Name = Chlorquinaldol
REMARK  2 active torsions:
REMARK  status: ('A' for Active; 'I' for Inactive)
REMARK    1  A    between atoms: C_1  and  C_2
REMARK    2  A    between atoms: C_13  and  O_14
REMARK                            x       y       z     vdW  Elec       q    Type
REMARK                         _______ _______ _______ _____ _____    ______ ____
ROOT
ATOM      1  C   UNL     1      -8.375   3.085 124.495  0.00  0.00    +0.000 C 
ATOM      2  C   UNL     1      -8.634   1.611 124.536  0.00  0.00    +0.000 A 
ATOM      3  N   UNL     1      -8.237   0.923 125.629  0.00  0.00    +0.000 NA
ATOM      4  C   UNL     1      -8.414  -0.415 125.674  0.00  0.00    +0.000 A 
ATOM      5  C   UNL     1      -8.883  -1.131 124.543  0.00  0.00    +0.000 A 
ATOM      6  C   UNL     1      -9.212  -0.387 123.400  0.00  0.00    +0.000 A 
ATOM      7  C   UNL     1      -9.199   0.995 123.434  0.00  0.00    +0.000 A 
ATOM      8  C   UNL     1      -9.066  -2.528 124.624  0.00  0.00    +0.000 A 
ATOM      9 CL   UNL     1      -9.660  -3.457 123.284  0.00  0.00    +0.000 Cl
ATOM     10  C   UNL     1      -8.848  -3.213 125.814  0.00  0.00    +0.000 A 
ATOM     11  C   UNL     1      -8.401  -2.512 126.926  0.00  0.00    +0.000 A 
ATOM     12 CL   UNL     1      -8.162  -3.367 128.406  0.00  0.00    +0.000 Cl
ATOM     13  C   UNL     1      -8.171  -1.136 126.850  0.00  0.00    +0.000 A 
ENDROOT
BRANCH  13  14
ATOM     14  O   UNL     1      -7.733  -0.451 127.967  0.00  0.00    +0.000 OA
ATOM     15  H   UNL     1      -8.155   0.426 127.976  0.00  0.00    +0.000 HD
ENDBRANCH  13  14
TORSDOF 1
ENDMDL
