MODEL 1
REMARK VINA RESULT:      -6.4      0.000      0.000
REMARK  Name = Chlorpromazine
REMARK  6 active torsions:
REMARK  status: ('A' for Active; 'I' for Inactive)
REMARK    1  A    between atoms: C_1  and  N_2
REMARK    2  A    between atoms: N_2  and  C_3
REMARK    3  A    between atoms: N_2  and  C_4
REMARK    4  A    between atoms: C_4  and  C_5
REMARK    5  A    between atoms: C_5  and  C_6
REMARK    6  A    between atoms: C_6  and  N_7
REMARK                            x       y       z     vdW  Elec       q    Type
REMARK                         _______ _______ _______ _____ _____    ______ ____
ROOT
ATOM      1  N   UNL     1      -6.376  -0.971 125.713  0.00  0.00    +0.000 N 
ATOM      2  C   UNL     1      -7.313  -1.701 124.911  0.00  0.00    +0.000 A 
ATOM      3  C   UNL     1      -7.506  -3.094 125.040  0.00  0.00    +0.000 A 
ATOM      4  C   UNL     1      -8.537  -3.788 124.405  0.00  0.00    +0.000 A 
ATOM      5  C   UNL     1      -9.337  -3.131 123.486  0.00  0.00    +0.000 A 
ATOM      6  C   UNL     1      -9.103  -1.787 123.240  0.00  0.00    +0.000 A 
ATOM      7  C   UNL     1      -8.126  -1.069 123.951  0.00  0.00    +0.000 A 
ATOM      8  S   UNL     1      -8.012   0.641 123.525  0.00  0.00    +0.000 S 
ATOM      9  C   UNL     1      -6.734   1.215 124.607  0.00  0.00    +0.000 A 
ATOM     10  C   UNL     1      -6.074   0.416 125.570  0.00  0.00    +0.000 A 
ATOM     11  C   UNL     1      -5.101   1.085 126.345  0.00  0.00    +0.000 A 
ATOM     12  C   UNL     1      -4.799   2.441 126.172  0.00  0.00    +0.000 A 
ATOM     13 CL   UNL     1      -3.596   3.180 127.157  0.00  0.00    +0.000 Cl
ATOM     14  C   UNL     1      -5.453   3.193 125.212  0.00  0.00    +0.000 A 
ATOM     15  C   UNL     1      -6.418   2.576 124.434  0.00  0.00    +0.000 A 
ENDROOT
BRANCH   1  16
ATOM     16  C   UNL     1      -5.680  -1.752 126.767  0.00  0.00    +0.000 C 
BRANCH  16  17
ATOM     17  C   UNL     1      -6.424  -1.719 128.101  0.00  0.00    +0.000 C 
BRANCH  17  18
ATOM     18  C   UNL     1      -5.994  -2.882 128.989  0.00  0.00    +0.000 C 
BRANCH  18  20
ATOM     19  C   UNL     1      -7.399  -2.964 130.929  0.00  0.00    +0.000 C 
ATOM     20  N   UNL     1      -7.165  -3.524 129.600  0.00  0.00    +0.000 NA
ATOM     21  C   UNL     1      -8.361  -3.375 128.769  0.00  0.00    +0.000 C 
ENDBRANCH  18  20
ENDBRANCH  17  18
ENDBRANCH  16  17
ENDBRANCH   1  16
TORSDOF 4
ENDMDL
MODEL 2
REMARK VINA RESULT:      -6.2      4.174      6.454
REMARK  Name = Chlorpromazine
REMARK  6 active torsions:
REMARK  status: ('A' for Active; 'I' for Inactive)
REMARK    1  A    between atoms: C_1  and  N_2
REMARK    2  A    between atoms: N_2  and  C_3
REMARK    3  A    between atoms: N_2  and  C_4
REMARK    4  A    between atoms: C_4  and  C_5
REMARK    5  A    between atoms: C_5  and  C_6
REMARK    6  A    between atoms: C_6  and  N_7
REMARK                            x       y       z     vdW  Elec       q    Type
REMARK                         _______ _______ _______ _____ _____    ______ ____
ROOT
ATOM      1  N   UNL     1      -6.181   3.180 124.383  0.00  0.00    +0.000 N 
ATOM      2  C   UNL     1      -6.173   3.646 123.028  0.00  0.00    +0.000 A 
ATOM      3  C   UNL     1      -5.136   4.447 122.502  0.00  0.00    +0.000 A 
ATOM      4  C   UNL     1      -5.016   4.756 121.147  0.00  0.00    +0.000 A 
ATOM      5  C   UNL     1      -6.026   4.392 120.273  0.00  0.00    +0.000 A 
ATOM      6  C   UNL     1      -7.123   3.707 120.770  0.00  0.00    +0.000 A 
ATOM      7  C   UNL     1      -7.195   3.316 122.119  0.00  0.00    +0.000 A 
ATOM      8  S   UNL     1      -8.651   2.413 122.548  0.00  0.00    +0.000 S 
ATOM      9  C   UNL     1      -8.393   2.074 124.266  0.00  0.00    +0.000 A 
ATOM     10  C   UNL     1      -7.239   2.444 124.995  0.00  0.00    +0.000 A 
ATOM     11  C   UNL     1      -7.230   2.051 126.352  0.00  0.00    +0.000 A 
ATOM     12  C   UNL     1      -8.291   1.352 126.942  0.00  0.00    +0.000 A 
ATOM     13 CL   UNL     1      -8.203   0.914 128.604  0.00  0.00    +0.000 Cl
ATOM     14  C   UNL     1      -9.412   1.017 126.205  0.00  0.00    +0.000 A 
ATOM     15  C   UNL     1      -9.458   1.379 124.870  0.00  0.00    +0.000 A 
ENDROOT
BRANCH   1  16
ATOM     16  C   UNL     1      -4.976   3.506 125.187  0.00  0.00    +0.000 C 
BRANCH  16  17
ATOM     17  C   UNL     1      -5.187   4.724 126.085  0.00  0.00    +0.000 C 
BRANCH  17  18
ATOM     18  C   UNL     1      -4.471   4.544 127.419  0.00  0.00    +0.000 C 
BRANCH  18  20
ATOM     19  C   UNL     1      -2.555   5.785 128.152  0.00  0.00    +0.000 C 
ATOM     20  N   UNL     1      -3.023   4.730 127.255  0.00  0.00    +0.000 NA
ATOM     21  C   UNL     1      -2.285   3.490 127.502  0.00  0.00    +0.000 C 
ENDBRANCH  18  20
ENDBRANCH  17  18
ENDBRANCH  16  17
ENDBRANCH   1  16
TORSDOF 4
ENDMDL
MODEL 3
REMARK VINA RESULT:      -5.9      2.207      4.842
REMARK  Name = Chlorpromazine
REMARK  6 active torsions:
REMARK  status: ('A' for Active; 'I' for Inactive)
REMARK    1  A    between atoms: C_1  and  N_2
REMARK    2  A    between atoms: N_2  and  C_3
REMARK    3  A    between atoms: N_2  and  C_4
REMARK    4  A    between atoms: C_4  and  C_5
REMARK    5  A    between atoms: C_5  and  C_6
REMARK    6  A    between atoms: C_6  and  N_7
REMARK                            x       y       z     vdW  Elec       q    Type
REMARK                         _______ _______ _______ _____ _____    ______ ____
ROOT
ATOM      1  N   UNL     1      -6.571  -1.558 126.180  0.00  0.00    +0.000 N 
ATOM      2  C   UNL     1      -7.500  -1.970 125.170  0.00  0.00    +0.000 A 
ATOM      3  C   UNL     1      -7.443  -1.495 123.841  0.00  0.00    +0.000 A 
ATOM      4  C   UNL     1      -8.216  -2.020 122.805  0.00  0.00    +0.000 A 
ATOM      5  C   UNL     1      -9.196  -2.954 123.091  0.00  0.00    +0.000 A 
ATOM      6  C   UNL     1      -9.367  -3.361 124.404  0.00  0.00    +0.000 A 
ATOM      7  C   UNL     1      -8.523  -2.900 125.431  0.00  0.00    +0.000 A 
ATOM      8  S   UNL     1      -8.873  -3.569 127.027  0.00  0.00    +0.000 S 
ATOM      9  C   UNL     1      -7.633  -2.808 128.036  0.00  0.00    +0.000 A 
ATOM     10  C   UNL     1      -6.630  -1.933 127.555  0.00  0.00    +0.000 A 
ATOM     11  C   UNL     1      -5.725  -1.459 128.531  0.00  0.00    +0.000 A 
ATOM     12  C   UNL     1      -5.815  -1.818 129.882  0.00  0.00    +0.000 A 
ATOM     13 CL   UNL     1      -4.673  -1.192 131.008  0.00  0.00    +0.000 Cl
ATOM     14  C   UNL     1      -6.816  -2.665 130.323  0.00  0.00    +0.000 A 
ATOM     15  C   UNL     1      -7.720  -3.157 129.397  0.00  0.00    +0.000 A 
ENDROOT
BRANCH   1  16
ATOM     16  C   UNL     1      -5.472  -0.669 125.726  0.00  0.00    +0.000 C 
BRANCH  16  17
ATOM     17  C   UNL     1      -5.660   0.774 126.194  0.00  0.00    +0.000 C 
BRANCH  17  18
ATOM     18  C   UNL     1      -6.424   1.585 125.154  0.00  0.00    +0.000 C 
BRANCH  18  20
ATOM     19  C   UNL     1      -8.172   3.186 124.794  0.00  0.00    +0.000 C 
ATOM     20  N   UNL     1      -7.510   2.344 125.788  0.00  0.00    +0.000 NA
ATOM     21  C   UNL     1      -8.483   1.461 126.434  0.00  0.00    +0.000 C 
ENDBRANCH  18  20
ENDBRANCH  17  18
ENDBRANCH  16  17
ENDBRANCH   1  16
TORSDOF 4
ENDMDL
MODEL 4
REMARK VINA RESULT:      -5.9      3.039      3.855
REMARK  Name = Chlorpromazine
REMARK  6 active torsions:
REMARK  status: ('A' for Active; 'I' for Inactive)
REMARK    1  A    between atoms: C_1  and  N_2
REMARK    2  A    between atoms: N_2  and  C_3
REMARK    3  A    between atoms: N_2  and  C_4
REMARK    4  A    between atoms: C_4  and  C_5
REMARK    5  A    between atoms: C_5  and  C_6
REMARK    6  A    between atoms: C_6  and  N_7
REMARK                            x       y       z     vdW  Elec       q    Type
REMARK                         _______ _______ _______ _____ _____    ______ ____
ROOT
ATOM      1  N   UNL     1      -7.311  -0.106 127.237  0.00  0.00    +0.000 N 
ATOM      2  C   UNL     1      -7.781  -1.439 127.473  0.00  0.00    +0.000 A 
ATOM      3  C   UNL     1      -7.773  -2.036 128.752  0.00  0.00    +0.000 A 
ATOM      4  C   UNL     1      -8.392  -3.254 129.036  0.00  0.00    +0.000 A 
ATOM      5  C   UNL     1      -8.925  -4.004 128.002  0.00  0.00    +0.000 A 
ATOM      6  C   UNL     1      -8.848  -3.510 126.710  0.00  0.00    +0.000 A 
ATOM      7  C   UNL     1      -8.308  -2.239 126.442  0.00  0.00    +0.000 A 
ATOM      8  S   UNL     1      -8.341  -1.770 124.740  0.00  0.00    +0.000 S 
ATOM      9  C   UNL     1      -7.626  -0.151 124.781  0.00  0.00    +0.000 A 
ATOM     10  C   UNL     1      -7.213   0.517 125.957  0.00  0.00    +0.000 A 
ATOM     11  C   UNL     1      -6.691   1.815 125.762  0.00  0.00    +0.000 A 
ATOM     12  C   UNL     1      -6.578   2.401 124.495  0.00  0.00    +0.000 A 
ATOM     13 CL   UNL     1      -5.927   3.988 124.344  0.00  0.00    +0.000 Cl
ATOM     14  C   UNL     1      -6.978   1.716 123.362  0.00  0.00    +0.000 A 
ATOM     15  C   UNL     1      -7.501   0.443 123.510  0.00  0.00    +0.000 A 
ENDROOT
BRANCH   1  16
ATOM     16  C   UNL     1      -6.900   0.658 128.441  0.00  0.00    +0.000 C 
BRANCH  16  17
ATOM     17  C   UNL     1      -8.065   1.418 129.073  0.00  0.00    +0.000 C 
BRANCH  17  18
ATOM     18  C   UNL     1      -7.978   1.373 130.595  0.00  0.00    +0.000 C 
BRANCH  18  20
ATOM     19  C   UNL     1      -9.432   3.224 130.140  0.00  0.00    +0.000 C 
ATOM     20  N   UNL     1      -8.851   2.392 131.191  0.00  0.00    +0.000 NA
ATOM     21  C   UNL     1      -9.910   1.791 132.005  0.00  0.00    +0.000 C 
ENDBRANCH  18  20
ENDBRANCH  17  18
ENDBRANCH  16  17
ENDBRANCH   1  16
TORSDOF 4
ENDMDL
MODEL 5
REMARK VINA RESULT:      -5.8      2.438      5.004
REMARK  Name = Chlorpromazine
REMARK  6 active torsions:
REMARK  status: ('A' for Active; 'I' for Inactive)
REMARK    1  A    between atoms: C_1  and  N_2
REMARK    2  A    between atoms: N_2  and  C_3
REMARK    3  A    between atoms: N_2  and  C_4
REMARK    4  A    between atoms: C_4  and  C_5
REMARK    5  A    between atoms: C_5  and  C_6
REMARK    6  A    between atoms: C_6  and  N_7
REMARK                            x       y       z     vdW  Elec       q    Type
REMARK                         _______ _______ _______ _____ _____    ______ ____
ROOT
ATOM      1  N   UNL     1      -6.582  -0.551 126.497  0.00  0.00    +0.000 N 
ATOM      2  C   UNL     1      -7.344  -1.570 127.157  0.00  0.00    +0.000 A 
ATOM      3  C   UNL     1      -8.242  -2.416 126.470  0.00  0.00    +0.000 A 
ATOM      4  C   UNL     1      -8.850  -3.527 127.056  0.00  0.00    +0.000 A 
ATOM      5  C   UNL     1      -8.696  -3.752 128.413  0.00  0.00    +0.000 A 
ATOM      6  C   UNL     1      -7.918  -2.874 129.150  0.00  0.00    +0.000 A 
ATOM      7  C   UNL     1      -7.230  -1.811 128.538  0.00  0.00    +0.000 A 
ATOM      8  S   UNL     1      -6.256  -0.833 129.640  0.00  0.00    +0.000 S 
ATOM      9  C   UNL     1      -5.535   0.359 128.548  0.00  0.00    +0.000 A 
ATOM     10  C   UNL     1      -5.728   0.389 127.147  0.00  0.00    +0.000 A 
ATOM     11  C   UNL     1      -5.036   1.414 126.464  0.00  0.00    +0.000 A 
ATOM     12  C   UNL     1      -4.223   2.345 127.123  0.00  0.00    +0.000 A 
ATOM     13 CL   UNL     1      -3.417   3.566 126.217  0.00  0.00    +0.000 Cl
ATOM     14  C   UNL     1      -4.065   2.297 128.497  0.00  0.00    +0.000 A 
ATOM     15  C   UNL     1      -4.722   1.304 129.203  0.00  0.00    +0.000 A 
ENDROOT
BRANCH   1  16
ATOM     16  C   UNL     1      -6.715  -0.497 125.020  0.00  0.00    +0.000 C 
BRANCH  16  17
ATOM     17  C   UNL     1      -7.959   0.270 124.575  0.00  0.00    +0.000 C 
BRANCH  17  18
ATOM     18  C   UNL     1      -7.587   1.392 123.611  0.00  0.00    +0.000 C 
BRANCH  18  20
ATOM     19  C   UNL     1      -8.585   2.996 122.136  0.00  0.00    +0.000 C 
ATOM     20  N   UNL     1      -8.725   2.298 123.412  0.00  0.00    +0.000 NA
ATOM     21  C   UNL     1     -10.003   1.584 123.462  0.00  0.00    +0.000 C 
ENDBRANCH  18  20
ENDBRANCH  17  18
ENDBRANCH  16  17
ENDBRANCH   1  16
TORSDOF 4
ENDMDL
MODEL 6
REMARK VINA RESULT:      -5.8      2.312      4.643
REMARK  Name = Chlorpromazine
REMARK  6 active torsions:
REMARK  status: ('A' for Active; 'I' for Inactive)
REMARK    1  A    between atoms: C_1  and  N_2
REMARK    2  A    between atoms: N_2  and  C_3
REMARK    3  A    between atoms: N_2  and  C_4
REMARK    4  A    between atoms: C_4  and  C_5
REMARK    5  A    between atoms: C_5  and  C_6
REMARK    6  A    between atoms: C_6  and  N_7
REMARK                            x       y       z     vdW  Elec       q    Type
REMARK                         _______ _______ _______ _____ _____    ______ ____
ROOT
ATOM      1  N   UNL     1      -6.288  -0.309 127.180  0.00  0.00    +0.000 N 
ATOM      2  C   UNL     1      -6.949  -1.254 128.030  0.00  0.00    +0.000 A 
ATOM      3  C   UNL     1      -7.884  -2.194 127.544  0.00  0.00    +0.000 A 
ATOM      4  C   UNL     1      -8.397  -3.237 128.317  0.00  0.00    +0.000 A 
ATOM      5  C   UNL     1      -8.101  -3.294 129.668  0.00  0.00    +0.000 A 
ATOM      6  C   UNL     1      -7.281  -2.319 130.213  0.00  0.00    +0.000 A 
ATOM      7  C   UNL     1      -6.691  -1.325 129.412  0.00  0.00    +0.000 A 
ATOM      8  S   UNL     1      -5.642  -0.203 130.284  0.00  0.00    +0.000 S 
ATOM      9  C   UNL     1      -5.070   0.862 128.991  0.00  0.00    +0.000 A 
ATOM     10  C   UNL     1      -5.403   0.719 127.624  0.00  0.00    +0.000 A 
ATOM     11  C   UNL     1      -4.814   1.666 126.757  0.00  0.00    +0.000 A 
ATOM     12  C   UNL     1      -3.969   2.685 127.215  0.00  0.00    +0.000 A 
ATOM     13 CL   UNL     1      -3.296   3.803 126.092  0.00  0.00    +0.000 Cl
ATOM     14  C   UNL     1      -3.674   2.807 128.560  0.00  0.00    +0.000 A 
ATOM     15  C   UNL     1      -4.226   1.894 129.443  0.00  0.00    +0.000 A 
ENDROOT
BRANCH   1  16
ATOM     16  C   UNL     1      -6.569  -0.436 125.728  0.00  0.00    +0.000 C 
BRANCH  16  17
ATOM     17  C   UNL     1      -5.584  -1.367 125.024  0.00  0.00    +0.000 C 
BRANCH  17  18
ATOM     18  C   UNL     1      -6.180  -1.905 123.728  0.00  0.00    +0.000 C 
BRANCH  18  20
ATOM     19  C   UNL     1      -8.349  -2.118 122.730  0.00  0.00    +0.000 C 
ATOM     20  N   UNL     1      -7.565  -2.346 123.941  0.00  0.00    +0.000 NA
ATOM     21  C   UNL     1      -7.631  -3.756 124.332  0.00  0.00    +0.000 C 
ENDBRANCH  18  20
ENDBRANCH  17  18
ENDBRANCH  16  17
ENDBRANCH   1  16
TORSDOF 4
ENDMDL
MODEL 7
REMARK VINA RESULT:      -5.7      3.069      4.500
REMARK  Name = Chlorpromazine
REMARK  6 active torsions:
REMARK  status: ('A' for Active; 'I' for Inactive)
REMARK    1  A    between atoms: C_1  and  N_2
REMARK    2  A    between atoms: N_2  and  C_3
REMARK    3  A    between atoms: N_2  and  C_4
REMARK    4  A    between atoms: C_4  and  C_5
REMARK    5  A    between atoms: C_5  and  C_6
REMARK    6  A    between atoms: C_6  and  N_7
REMARK                            x       y       z     vdW  Elec       q    Type
REMARK                         _______ _______ _______ _____ _____    ______ ____
ROOT
ATOM      1  N   UNL     1      -6.606  -1.488 126.894  0.00  0.00    +0.000 N 
ATOM      2  C   UNL     1      -7.339  -0.329 127.311  0.00  0.00    +0.000 A 
ATOM      3  C   UNL     1      -7.695  -0.096 128.657  0.00  0.00    +0.000 A 
ATOM      4  C   UNL     1      -8.243   1.105 129.109  0.00  0.00    +0.000 A 
ATOM      5  C   UNL     1      -8.597   2.081 128.193  0.00  0.00    +0.000 A 
ATOM      6  C   UNL     1      -8.375   1.843 126.846  0.00  0.00    +0.000 A 
ATOM      7  C   UNL     1      -7.736   0.671 126.404  0.00  0.00    +0.000 A 
ATOM      8  S   UNL     1      -7.503   0.574 124.656  0.00  0.00    +0.000 S 
ATOM      9  C   UNL     1      -6.671  -0.977 124.471  0.00  0.00    +0.000 A 
ATOM     10  C   UNL     1      -6.293  -1.821 125.542  0.00  0.00    +0.000 A 
ATOM     11  C   UNL     1      -5.615  -3.003 125.169  0.00  0.00    +0.000 A 
ATOM     12  C   UNL     1      -5.341  -3.327 123.834  0.00  0.00    +0.000 A 
ATOM     13 CL   UNL     1      -4.513  -4.790 123.464  0.00  0.00    +0.000 Cl
ATOM     14  C   UNL     1      -5.735  -2.487 122.808  0.00  0.00    +0.000 A 
ATOM     15  C   UNL     1      -6.398  -1.315 123.132  0.00  0.00    +0.000 A 
ENDROOT
BRANCH   1  16
ATOM     16  C   UNL     1      -6.149  -2.391 127.979  0.00  0.00    +0.000 C 
BRANCH  16  17
ATOM     17  C   UNL     1      -4.742  -2.050 128.467  0.00  0.00    +0.000 C 
BRANCH  17  18
ATOM     18  C   UNL     1      -4.688  -2.032 129.991  0.00  0.00    +0.000 C 
BRANCH  18  20
ATOM     19  C   UNL     1      -4.506  -4.082 131.221  0.00  0.00    +0.000 C 
ATOM     20  N   UNL     1      -3.763  -3.061 130.486  0.00  0.00    +0.000 NA
ATOM     21  C   UNL     1      -3.000  -3.673 129.397  0.00  0.00    +0.000 C 
ENDBRANCH  18  20
ENDBRANCH  17  18
ENDBRANCH  16  17
ENDBRANCH   1  16
TORSDOF 4
ENDMDL
MODEL 8
REMARK VINA RESULT:      -5.7      1.780      2.561
REMARK  Name = Chlorpromazine
REMARK  6 active torsions:
REMARK  status: ('A' for Active; 'I' for Inactive)
REMARK    1  A    between atoms: C_1  and  N_2
REMARK    2  A    between atoms: N_2  and  C_3
REMARK    3  A    between atoms: N_2  and  C_4
REMARK    4  A    between atoms: C_4  and  C_5
REMARK    5  A    between atoms: C_5  and  C_6
REMARK    6  A    between atoms: C_6  and  N_7
REMARK                            x       y       z     vdW  Elec       q    Type
REMARK                         _______ _______ _______ _____ _____    ______ ____
ROOT
ATOM      1  N   UNL     1      -6.527   0.693 124.899  0.00  0.00    +0.000 N 
ATOM      2  C   UNL     1      -7.684   0.665 124.054  0.00  0.00    +0.000 A 
ATOM      3  C   UNL     1      -8.162  -0.519 123.452  0.00  0.00    +0.000 A 
ATOM      4  C   UNL     1      -9.383  -0.602 122.782  0.00  0.00    +0.000 A 
ATOM      5  C   UNL     1     -10.117   0.550 122.558  0.00  0.00    +0.000 A 
ATOM      6  C   UNL     1      -9.625   1.757 123.029  0.00  0.00    +0.000 A 
ATOM      7  C   UNL     1      -8.441   1.821 123.785  0.00  0.00    +0.000 A 
ATOM      8  S   UNL     1      -8.004   3.443 124.332  0.00  0.00    +0.000 S 
ATOM      9  C   UNL     1      -6.519   3.145 125.249  0.00  0.00    +0.000 A 
ATOM     10  C   UNL     1      -5.947   1.868 125.462  0.00  0.00    +0.000 A 
ATOM     11  C   UNL     1      -4.772   1.857 126.246  0.00  0.00    +0.000 A 
ATOM     12  C   UNL     1      -4.202   3.025 126.768  0.00  0.00    +0.000 A 
ATOM     13 CL   UNL     1      -2.764   2.925 127.710  0.00  0.00    +0.000 Cl
ATOM     14  C   UNL     1      -4.778   4.260 126.530  0.00  0.00    +0.000 A 
ATOM     15  C   UNL     1      -5.934   4.314 125.772  0.00  0.00    +0.000 A 
ENDROOT
BRANCH   1  16
ATOM     16  C   UNL     1      -5.906  -0.624 125.190  0.00  0.00    +0.000 C 
BRANCH  16  17
ATOM     17  C   UNL     1      -6.552  -1.319 126.388  0.00  0.00    +0.000 C 
BRANCH  17  18
ATOM     18  C   UNL     1      -6.910  -2.762 126.047  0.00  0.00    +0.000 C 
BRANCH  18  20
ATOM     19  C   UNL     1      -8.076  -2.666 128.139  0.00  0.00    +0.000 C 
ATOM     20  N   UNL     1      -8.118  -3.177 126.771  0.00  0.00    +0.000 NA
ATOM     21  C   UNL     1      -9.337  -2.725 126.097  0.00  0.00    +0.000 C 
ENDBRANCH  18  20
ENDBRANCH  17  18
ENDBRANCH  16  17
ENDBRANCH   1  16
TORSDOF 4
ENDMDL
MODEL 9
REMARK VINA RESULT:      -5.6      2.907      4.989
REMARK  Name = Chlorpromazine
REMARK  6 active torsions:
REMARK  status: ('A' for Active; 'I' for Inactive)
REMARK    1  A    between atoms: C_1  and  N_2
REMARK    2  A    between atoms: N_2  and  C_3
REMARK    3  A    between atoms: N_2  and  C_4
REMARK    4  A    between atoms: C_4  and  C_5
REMARK    5  A    between atoms: C_5  and  C_6
REMARK    6  A    between atoms: C_6  and  N_7
REMARK                            x       y       z     vdW  Elec       q    Type
REMARK                         _______ _______ _______ _____ _____    ______ ____
ROOT
ATOM      1  N   UNL     1      -8.083   0.499 125.990  0.00  0.00    +0.000 N 
ATOM      2  C   UNL     1      -7.684   1.456 125.001  0.00  0.00    +0.000 A 
ATOM      3  C   UNL     1      -7.742   2.850 125.221  0.00  0.00    +0.000 A 
ATOM      4  C   UNL     1      -7.190   3.789 124.348  0.00  0.00    +0.000 A 
ATOM      5  C   UNL     1      -6.679   3.371 123.132  0.00  0.00    +0.000 A 
ATOM      6  C   UNL     1      -6.711   2.020 122.823  0.00  0.00    +0.000 A 
ATOM      7  C   UNL     1      -7.183   1.068 123.745  0.00  0.00    +0.000 A 
ATOM      8  S   UNL     1      -7.100  -0.604 123.183  0.00  0.00    +0.000 S 
ATOM      9  C   UNL     1      -7.733  -1.501 124.572  0.00  0.00    +0.000 A 
ATOM     10  C   UNL     1      -8.129  -0.914 125.797  0.00  0.00    +0.000 A 
ATOM     11  C   UNL     1      -8.581  -1.819 126.782  0.00  0.00    +0.000 A 
ATOM     12  C   UNL     1      -8.645  -3.201 126.564  0.00  0.00    +0.000 A 
ATOM     13 CL   UNL     1      -9.214  -4.237 127.817  0.00  0.00    +0.000 Cl
ATOM     14  C   UNL     1      -8.263  -3.744 125.350  0.00  0.00    +0.000 A 
ATOM     15  C   UNL     1      -7.808  -2.891 124.360  0.00  0.00    +0.000 A 
ENDROOT
BRANCH   1  16
ATOM     16  C   UNL     1      -8.473   1.056 127.310  0.00  0.00    +0.000 C 
BRANCH  16  17
ATOM     17  C   UNL     1      -7.328   1.012 128.321  0.00  0.00    +0.000 C 
BRANCH  17  18
ATOM     18  C   UNL     1      -7.866   1.003 129.748  0.00  0.00    +0.000 C 
BRANCH  18  20
ATOM     19  C   UNL     1      -7.936  -1.291 130.441  0.00  0.00    +0.000 C 
ATOM     20  N   UNL     1      -7.198  -0.034 130.544  0.00  0.00    +0.000 NA
ATOM     21  C   UNL     1      -5.808  -0.227 130.127  0.00  0.00    +0.000 C 
ENDBRANCH  18  20
ENDBRANCH  17  18
ENDBRANCH  16  17
ENDBRANCH   1  16
TORSDOF 4
ENDMDL
