MODEL 1
REMARK VINA RESULT:      -5.7      0.000      0.000
REMARK  Name = Chlorzoxazone
REMARK  0 active torsions:
REMARK  status: ('A' for Active; 'I' for Inactive)
REMARK                            x       y       z     vdW  Elec       q    Type
REMARK                         _______ _______ _______ _____ _____    ______ ____
ROOT
ATOM      1 CL   UNL     1     -13.589  11.275 130.406  0.00  0.00    +0.000 Cl
ATOM      2  C   UNL     1     -13.161   9.691 129.881  0.00  0.00    +0.000 A 
ATOM      3  C   UNL     1     -12.717   8.756 130.818  0.00  0.00    +0.000 A 
ATOM      4  C   UNL     1     -12.385   7.514 130.331  0.00  0.00    +0.000 A 
ATOM      5  C   UNL     1     -12.476   7.179 128.995  0.00  0.00    +0.000 A 
ATOM      6  O   UNL     1     -12.086   5.872 128.749  0.00  0.00    +0.000 OA
ATOM      7  C   UNL     1     -11.744   5.416 130.030  0.00  0.00    +0.000 A 
ATOM      8  O   UNL     1     -11.340   4.288 130.269  0.00  0.00    +0.000 OA
ATOM      9  N   UNL     1     -11.925   6.400 130.973  0.00  0.00    +0.000 N 
ATOM     10  C   UNL     1     -12.915   8.089 128.057  0.00  0.00    +0.000 A 
ATOM     11  C   UNL     1     -13.263   9.367 128.513  0.00  0.00    +0.000 A 
ATOM     12  H   UNL     1     -11.737   6.277 131.953  0.00  0.00    +0.000 HD
ENDROOT
TORSDOF 0
ENDMDL
MODEL 2
REMARK VINA RESULT:      -5.5      2.307      2.625
REMARK  Name = Chlorzoxazone
REMARK  0 active torsions:
REMARK  status: ('A' for Active; 'I' for Inactive)
REMARK                            x       y       z     vdW  Elec       q    Type
REMARK                         _______ _______ _______ _____ _____    ______ ____
ROOT
ATOM      1 CL   UNL     1     -13.887   8.521 127.906  0.00  0.00    +0.000 Cl
ATOM      2  C   UNL     1     -12.545   7.975 128.838  0.00  0.00    +0.000 A 
ATOM      3  C   UNL     1     -12.772   7.187 129.968  0.00  0.00    +0.000 A 
ATOM      4  C   UNL     1     -11.657   6.791 130.670  0.00  0.00    +0.000 A 
ATOM      5  C   UNL     1     -10.373   7.136 130.302  0.00  0.00    +0.000 A 
ATOM      6  O   UNL     1      -9.419   6.620 131.165  0.00  0.00    +0.000 OA
ATOM      7  C   UNL     1     -10.203   5.928 132.099  0.00  0.00    +0.000 A 
ATOM      8  O   UNL     1      -9.748   5.313 133.052  0.00  0.00    +0.000 OA
ATOM      9  N   UNL     1     -11.541   6.032 131.798  0.00  0.00    +0.000 N 
ATOM     10  C   UNL     1     -10.130   7.911 129.188  0.00  0.00    +0.000 A 
ATOM     11  C   UNL     1     -11.240   8.336 128.445  0.00  0.00    +0.000 A 
ATOM     12  H   UNL     1     -12.271   5.607 132.345  0.00  0.00    +0.000 HD
ENDROOT
TORSDOF 0
ENDMDL
MODEL 3
REMARK VINA RESULT:      -5.4      3.074      3.867
REMARK  Name = Chlorzoxazone
REMARK  0 active torsions:
REMARK  status: ('A' for Active; 'I' for Inactive)
REMARK                            x       y       z     vdW  Elec       q    Type
REMARK                         _______ _______ _______ _____ _____    ______ ____
ROOT
ATOM      1 CL   UNL     1     -10.440   6.062 132.601  0.00  0.00    +0.000 Cl
ATOM      2  C   UNL     1     -11.037   6.613 131.083  0.00  0.00    +0.000 A 
ATOM      3  C   UNL     1     -10.189   6.617 129.974  0.00  0.00    +0.000 A 
ATOM      4  C   UNL     1     -10.727   7.076 128.795  0.00  0.00    +0.000 A 
ATOM      5  C   UNL     1     -12.030   7.514 128.681  0.00  0.00    +0.000 A 
ATOM      6  O   UNL     1     -12.340   7.929 127.395  0.00  0.00    +0.000 OA
ATOM      7  C   UNL     1     -11.132   7.717 126.714  0.00  0.00    +0.000 A 
ATOM      8  O   UNL     1     -10.965   7.956 125.528  0.00  0.00    +0.000 OA
ATOM      9  N   UNL     1     -10.171   7.206 127.555  0.00  0.00    +0.000 N 
ATOM     10  C   UNL     1     -12.883   7.516 129.765  0.00  0.00    +0.000 A 
ATOM     11  C   UNL     1     -12.372   7.055 130.986  0.00  0.00    +0.000 A 
ATOM     12  H   UNL     1      -9.234   6.984 127.263  0.00  0.00    +0.000 HD
ENDROOT
TORSDOF 0
ENDMDL
MODEL 4
REMARK VINA RESULT:      -5.2      2.663      3.086
REMARK  Name = Chlorzoxazone
REMARK  0 active torsions:
REMARK  status: ('A' for Active; 'I' for Inactive)
REMARK                            x       y       z     vdW  Elec       q    Type
REMARK                         _______ _______ _______ _____ _____    ______ ____
ROOT
ATOM      1 CL   UNL     1     -11.236   7.905 125.846  0.00  0.00    +0.000 Cl
ATOM      2  C   UNL     1     -11.547   7.468 127.482  0.00  0.00    +0.000 A 
ATOM      3  C   UNL     1     -10.480   7.352 128.375  0.00  0.00    +0.000 A 
ATOM      4  C   UNL     1     -10.798   6.993 129.664  0.00  0.00    +0.000 A 
ATOM      5  C   UNL     1     -12.091   6.755 130.083  0.00  0.00    +0.000 A 
ATOM      6  O   UNL     1     -12.158   6.407 131.423  0.00  0.00    +0.000 OA
ATOM      7  C   UNL     1     -10.810   6.446 131.809  0.00  0.00    +0.000 A 
ATOM      8  O   UNL     1     -10.415   6.200 132.939  0.00  0.00    +0.000 OA
ATOM      9  N   UNL     1     -10.001   6.797 130.755  0.00  0.00    +0.000 N 
ATOM     10  C   UNL     1     -13.157   6.866 129.216  0.00  0.00    +0.000 A 
ATOM     11  C   UNL     1     -12.875   7.230 127.892  0.00  0.00    +0.000 A 
ATOM     12  H   UNL     1      -9.000   6.882 130.821  0.00  0.00    +0.000 HD
ENDROOT
TORSDOF 0
ENDMDL
MODEL 5
REMARK VINA RESULT:      -5.1     11.249     12.745
REMARK  Name = Chlorzoxazone
REMARK  0 active torsions:
REMARK  status: ('A' for Active; 'I' for Inactive)
REMARK                            x       y       z     vdW  Elec       q    Type
REMARK                         _______ _______ _______ _____ _____    ______ ____
ROOT
ATOM      1 CL   UNL     1      -4.741  -4.119 123.961  0.00  0.00    +0.000 Cl
ATOM      2  C   UNL     1      -6.185  -3.182 123.966  0.00  0.00    +0.000 A 
ATOM      3  C   UNL     1      -6.133  -1.840 123.583  0.00  0.00    +0.000 A 
ATOM      4  C   UNL     1      -7.321  -1.148 123.617  0.00  0.00    +0.000 A 
ATOM      5  C   UNL     1      -8.516  -1.720 124.002  0.00  0.00    +0.000 A 
ATOM      6  O   UNL     1      -9.572  -0.824 123.955  0.00  0.00    +0.000 OA
ATOM      7  C   UNL     1      -8.947   0.351 123.512  0.00  0.00    +0.000 A 
ATOM      8  O   UNL     1      -9.530   1.409 123.330  0.00  0.00    +0.000 OA
ATOM      9  N   UNL     1      -7.601   0.152 123.311  0.00  0.00    +0.000 N 
ATOM     10  C   UNL     1      -8.587  -3.044 124.381  0.00  0.00    +0.000 A 
ATOM     11  C   UNL     1      -7.397  -3.784 124.361  0.00  0.00    +0.000 A 
ATOM     12  H   UNL     1      -6.971   0.870 122.993  0.00  0.00    +0.000 HD
ENDROOT
TORSDOF 0
ENDMDL
MODEL 6
REMARK VINA RESULT:      -5.1      3.705      4.798
REMARK  Name = Chlorzoxazone
REMARK  0 active torsions:
REMARK  status: ('A' for Active; 'I' for Inactive)
REMARK                            x       y       z     vdW  Elec       q    Type
REMARK                         _______ _______ _______ _____ _____    ______ ____
ROOT
ATOM      1 CL   UNL     1      -6.376   6.811 131.395  0.00  0.00    +0.000 Cl
ATOM      2  C   UNL     1      -8.089   6.642 131.457  0.00  0.00    +0.000 A 
ATOM      3  C   UNL     1      -8.867   7.162 130.421  0.00  0.00    +0.000 A 
ATOM      4  C   UNL     1     -10.228   6.999 130.537  0.00  0.00    +0.000 A 
ATOM      5  C   UNL     1     -10.822   6.360 131.606  0.00  0.00    +0.000 A 
ATOM      6  O   UNL     1     -12.203   6.321 131.500  0.00  0.00    +0.000 OA
ATOM      7  C   UNL     1     -12.427   6.983 130.284  0.00  0.00    +0.000 A 
ATOM      8  O   UNL     1     -13.534   7.173 129.802  0.00  0.00    +0.000 OA
ATOM      9  N   UNL     1     -11.243   7.386 129.712  0.00  0.00    +0.000 N 
ATOM     10  C   UNL     1     -10.069   5.838 132.638  0.00  0.00    +0.000 A 
ATOM     11  C   UNL     1      -8.678   5.984 132.557  0.00  0.00    +0.000 A 
ATOM     12  H   UNL     1     -11.185   7.879 128.837  0.00  0.00    +0.000 HD
ENDROOT
TORSDOF 0
ENDMDL
MODEL 7
REMARK VINA RESULT:      -5.0      4.067      5.061
REMARK  Name = Chlorzoxazone
REMARK  0 active torsions:
REMARK  status: ('A' for Active; 'I' for Inactive)
REMARK                            x       y       z     vdW  Elec       q    Type
REMARK                         _______ _______ _______ _____ _____    ______ ____
ROOT
ATOM      1 CL   UNL     1      -7.230   4.923 133.921  0.00  0.00    +0.000 Cl
ATOM      2  C   UNL     1      -8.283   5.651 132.770  0.00  0.00    +0.000 A 
ATOM      3  C   UNL     1      -9.664   5.514 132.922  0.00  0.00    +0.000 A 
ATOM      4  C   UNL     1     -10.448   6.114 131.964  0.00  0.00    +0.000 A 
ATOM      5  C   UNL     1      -9.927   6.821 130.900  0.00  0.00    +0.000 A 
ATOM      6  O   UNL     1     -10.913   7.330 130.070  0.00  0.00    +0.000 OA
ATOM      7  C   UNL     1     -12.088   6.888 130.695  0.00  0.00    +0.000 A 
ATOM      8  O   UNL     1     -13.214   7.123 130.282  0.00  0.00    +0.000 OA
ATOM      9  N   UNL     1     -11.805   6.162 131.828  0.00  0.00    +0.000 N 
ATOM     10  C   UNL     1      -8.566   6.969 130.734  0.00  0.00    +0.000 A 
ATOM     11  C   UNL     1      -7.733   6.372 131.690  0.00  0.00    +0.000 A 
ATOM     12  H   UNL     1     -12.508   5.755 132.422  0.00  0.00    +0.000 HD
ENDROOT
TORSDOF 0
ENDMDL
MODEL 8
REMARK VINA RESULT:      -5.0      8.920      9.631
REMARK  Name = Chlorzoxazone
REMARK  0 active torsions:
REMARK  status: ('A' for Active; 'I' for Inactive)
REMARK                            x       y       z     vdW  Elec       q    Type
REMARK                         _______ _______ _______ _____ _____    ______ ____
ROOT
ATOM      1 CL   UNL     1      -4.687   4.527 121.624  0.00  0.00    +0.000 Cl
ATOM      2  C   UNL     1      -5.962   3.989 122.649  0.00  0.00    +0.000 A 
ATOM      3  C   UNL     1      -6.954   3.155 122.128  0.00  0.00    +0.000 A 
ATOM      4  C   UNL     1      -7.946   2.769 122.998  0.00  0.00    +0.000 A 
ATOM      5  C   UNL     1      -7.987   3.165 124.319  0.00  0.00    +0.000 A 
ATOM      6  O   UNL     1      -9.082   2.649 124.994  0.00  0.00    +0.000 OA
ATOM      7  C   UNL     1      -9.722   1.900 123.995  0.00  0.00    +0.000 A 
ATOM      8  O   UNL     1     -10.752   1.266 124.170  0.00  0.00    +0.000 OA
ATOM      9  N   UNL     1      -9.039   1.974 122.804  0.00  0.00    +0.000 N 
ATOM     10  C   UNL     1      -7.015   3.986 124.851  0.00  0.00    +0.000 A 
ATOM     11  C   UNL     1      -5.986   4.403 123.996  0.00  0.00    +0.000 A 
ATOM     12  H   UNL     1      -9.332   1.508 121.962  0.00  0.00    +0.000 HD
ENDROOT
TORSDOF 0
ENDMDL
MODEL 9
REMARK VINA RESULT:      -4.9      3.382      4.555
REMARK  Name = Chlorzoxazone
REMARK  0 active torsions:
REMARK  status: ('A' for Active; 'I' for Inactive)
REMARK                            x       y       z     vdW  Elec       q    Type
REMARK                         _______ _______ _______ _____ _____    ______ ____
ROOT
ATOM      1 CL   UNL     1      -8.566   5.040 129.897  0.00  0.00    +0.000 Cl
ATOM      2  C   UNL     1      -9.923   6.086 130.067  0.00  0.00    +0.000 A 
ATOM      3  C   UNL     1     -10.181   7.039 129.079  0.00  0.00    +0.000 A 
ATOM      4  C   UNL     1     -11.276   7.847 129.281  0.00  0.00    +0.000 A 
ATOM      5  C   UNL     1     -12.094   7.745 130.387  0.00  0.00    +0.000 A 
ATOM      6  O   UNL     1     -13.129   8.666 130.367  0.00  0.00    +0.000 OA
ATOM      7  C   UNL     1     -12.896   9.351 129.166  0.00  0.00    +0.000 A 
ATOM      8  O   UNL     1     -13.594  10.266 128.753  0.00  0.00    +0.000 OA
ATOM      9  N   UNL     1     -11.788   8.857 128.519  0.00  0.00    +0.000 N 
ATOM     10  C   UNL     1     -11.855   6.809 131.371  0.00  0.00    +0.000 A 
ATOM     11  C   UNL     1     -10.748   5.966 131.203  0.00  0.00    +0.000 A 
ATOM     12  H   UNL     1     -11.449   9.211 127.640  0.00  0.00    +0.000 HD
ENDROOT
TORSDOF 0
ENDMDL
