MODEL 1
REMARK VINA RESULT:      -4.0      0.000      0.000
REMARK  Name = Chloral hydrate
REMARK  3 active torsions:
REMARK  status: ('A' for Active; 'I' for Inactive)
REMARK    1  A    between atoms: O_1  and  C_2
REMARK    2  A    between atoms: C_2  and  O_3
REMARK    3  A    between atoms: C_2  and  C_4
REMARK                            x       y       z     vdW  Elec       q    Type
REMARK                         _______ _______ _______ _____ _____    ______ ____
ROOT
ATOM      1  C   UNL     1     -11.048   7.312 127.014  0.00  0.00    +0.000 C 
ENDROOT
BRANCH   1   2
ATOM      2  C   UNL     1     -11.569   7.551 128.475  0.00  0.00    +0.000 C 
ATOM      3 CL   UNL     1     -12.615   6.212 129.035  0.00  0.00    +0.000 Cl
ATOM      4 CL   UNL     1     -10.171   7.693 129.593  0.00  0.00    +0.000 Cl
ATOM      5 CL   UNL     1     -12.509   9.079 128.535  0.00  0.00    +0.000 Cl
ENDBRANCH   1   2
BRANCH   1   6
ATOM      6  O   UNL     1      -9.854   6.532 126.957  0.00  0.00    +0.000 OA
ATOM      7  H   UNL     1     -10.102   5.596 127.048  0.00  0.00    +0.000 HD
ENDBRANCH   1   6
BRANCH   1   8
ATOM      8  O   UNL     1     -12.009   6.680 126.166  0.00  0.00    +0.000 OA
ATOM      9  H   UNL     1     -12.049   7.183 125.334  0.00  0.00    +0.000 HD
ENDBRANCH   1   8
TORSDOF 3
ENDMDL
MODEL 2
REMARK VINA RESULT:      -4.0      0.033      1.910
REMARK  Name = Chloral hydrate
REMARK  3 active torsions:
REMARK  status: ('A' for Active; 'I' for Inactive)
REMARK    1  A    between atoms: O_1  and  C_2
REMARK    2  A    between atoms: C_2  and  O_3
REMARK    3  A    between atoms: C_2  and  C_4
REMARK                            x       y       z     vdW  Elec       q    Type
REMARK                         _______ _______ _______ _____ _____    ______ ____
ROOT
ATOM      1  C   UNL     1     -11.044   7.319 127.020  0.00  0.00    +0.000 C 
ENDROOT
BRANCH   1   2
ATOM      2  C   UNL     1     -11.574   7.592 128.472  0.00  0.00    +0.000 C 
ATOM      3 CL   UNL     1     -12.521   9.107 128.560  0.00  0.00    +0.000 Cl
ATOM      4 CL   UNL     1     -12.621   6.229 128.992  0.00  0.00    +0.000 Cl
ATOM      5 CL   UNL     1     -10.187   7.713 129.605  0.00  0.00    +0.000 Cl
ENDBRANCH   1   2
BRANCH   1   6
ATOM      6  O   UNL     1      -9.857   6.525 126.990  0.00  0.00    +0.000 OA
ATOM      7  H   UNL     1      -9.705   6.179 127.886  0.00  0.00    +0.000 HD
ENDBRANCH   1   6
BRANCH   1   8
ATOM      8  O   UNL     1     -12.003   6.680 126.176  0.00  0.00    +0.000 OA
ATOM      9  H   UNL     1     -12.539   7.375 125.755  0.00  0.00    +0.000 HD
ENDBRANCH   1   8
TORSDOF 3
ENDMDL
MODEL 3
REMARK VINA RESULT:      -3.9      1.951      2.795
REMARK  Name = Chloral hydrate
REMARK  3 active torsions:
REMARK  status: ('A' for Active; 'I' for Inactive)
REMARK    1  A    between atoms: O_1  and  C_2
REMARK    2  A    between atoms: C_2  and  O_3
REMARK    3  A    between atoms: C_2  and  C_4
REMARK                            x       y       z     vdW  Elec       q    Type
REMARK                         _______ _______ _______ _____ _____    ______ ____
ROOT
ATOM      1  C   UNL     1     -11.208   7.913 128.732  0.00  0.00    +0.000 C 
ENDROOT
BRANCH   1   2
ATOM      2  C   UNL     1     -12.688   8.128 129.206  0.00  0.00    +0.000 C 
ATOM      3 CL   UNL     1     -13.088   9.864 129.374  0.00  0.00    +0.000 Cl
ATOM      4 CL   UNL     1     -13.812   7.393 128.014  0.00  0.00    +0.000 Cl
ATOM      5 CL   UNL     1     -12.932   7.326 130.794  0.00  0.00    +0.000 Cl
ENDBRANCH   1   2
BRANCH   1   6
ATOM      6  O   UNL     1     -10.956   6.597 128.237  0.00  0.00    +0.000 OA
ATOM      7  H   UNL     1     -11.814   6.174 128.062  0.00  0.00    +0.000 HD
ENDBRANCH   1   6
BRANCH   1   8
ATOM      8  O   UNL     1     -10.798   8.833 127.719  0.00  0.00    +0.000 OA
ATOM      9  H   UNL     1      -9.847   8.701 127.564  0.00  0.00    +0.000 HD
ENDBRANCH   1   8
TORSDOF 3
ENDMDL
MODEL 4
REMARK VINA RESULT:      -3.8      1.936      2.368
REMARK  Name = Chloral hydrate
REMARK  3 active torsions:
REMARK  status: ('A' for Active; 'I' for Inactive)
REMARK    1  A    between atoms: O_1  and  C_2
REMARK    2  A    between atoms: C_2  and  O_3
REMARK    3  A    between atoms: C_2  and  C_4
REMARK                            x       y       z     vdW  Elec       q    Type
REMARK                         _______ _______ _______ _____ _____    ______ ____
ROOT
ATOM      1  C   UNL     1     -11.204   7.915 128.730  0.00  0.00    +0.000 C 
ENDROOT
BRANCH   1   2
ATOM      2  C   UNL     1     -12.679   8.084 129.238  0.00  0.00    +0.000 C 
ATOM      3 CL   UNL     1     -12.923   7.322 130.838  0.00  0.00    +0.000 Cl
ATOM      4 CL   UNL     1     -13.071   9.832 129.369  0.00  0.00    +0.000 Cl
ATOM      5 CL   UNL     1     -13.808   7.330 128.064  0.00  0.00    +0.000 Cl
ENDBRANCH   1   2
BRANCH   1   6
ATOM      6  O   UNL     1     -10.927   6.612 128.216  0.00  0.00    +0.000 OA
ATOM      7  H   UNL     1     -11.327   5.961 128.818  0.00  0.00    +0.000 HD
ENDBRANCH   1   6
BRANCH   1   8
ATOM      8  O   UNL     1     -10.842   8.856 127.718  0.00  0.00    +0.000 OA
ATOM      9  H   UNL     1     -10.042   9.323 128.017  0.00  0.00    +0.000 HD
ENDBRANCH   1   8
TORSDOF 3
ENDMDL
MODEL 5
REMARK VINA RESULT:      -3.8      2.649      3.152
REMARK  Name = Chloral hydrate
REMARK  3 active torsions:
REMARK  status: ('A' for Active; 'I' for Inactive)
REMARK    1  A    between atoms: O_1  and  C_2
REMARK    2  A    between atoms: C_2  and  O_3
REMARK    3  A    between atoms: C_2  and  C_4
REMARK                            x       y       z     vdW  Elec       q    Type
REMARK                         _______ _______ _______ _____ _____    ______ ____
ROOT
ATOM      1  C   UNL     1     -12.169   7.012 129.928  0.00  0.00    +0.000 C 
ENDROOT
BRANCH   1   2
ATOM      2  C   UNL     1     -12.414   8.188 128.919  0.00  0.00    +0.000 C 
ATOM      3 CL   UNL     1     -12.962   9.675 129.750  0.00  0.00    +0.000 Cl
ATOM      4 CL   UNL     1     -10.891   8.551 128.039  0.00  0.00    +0.000 Cl
ATOM      5 CL   UNL     1     -13.664   7.704 127.724  0.00  0.00    +0.000 Cl
ENDBRANCH   1   2
BRANCH   1   6
ATOM      6  O   UNL     1     -13.062   7.025 131.042  0.00  0.00    +0.000 OA
ATOM      7  H   UNL     1     -13.129   7.942 131.361  0.00  0.00    +0.000 HD
ENDBRANCH   1   6
BRANCH   1   8
ATOM      8  O   UNL     1     -12.262   5.720 129.326  0.00  0.00    +0.000 OA
ATOM      9  H   UNL     1     -13.203   5.478 129.281  0.00  0.00    +0.000 HD
ENDBRANCH   1   8
TORSDOF 3
ENDMDL
MODEL 6
REMARK VINA RESULT:      -3.8      2.658      3.148
REMARK  Name = Chloral hydrate
REMARK  3 active torsions:
REMARK  status: ('A' for Active; 'I' for Inactive)
REMARK    1  A    between atoms: O_1  and  C_2
REMARK    2  A    between atoms: C_2  and  O_3
REMARK    3  A    between atoms: C_2  and  C_4
REMARK                            x       y       z     vdW  Elec       q    Type
REMARK                         _______ _______ _______ _____ _____    ______ ____
ROOT
ATOM      1  C   UNL     1     -12.133   6.987 129.964  0.00  0.00    +0.000 C 
ENDROOT
BRANCH   1   2
ATOM      2  C   UNL     1     -12.377   8.168 128.960  0.00  0.00    +0.000 C 
ATOM      3 CL   UNL     1     -13.593   7.745 127.718  0.00  0.00    +0.000 Cl
ATOM      4 CL   UNL     1     -12.954   9.610 129.861  0.00  0.00    +0.000 Cl
ATOM      5 CL   UNL     1     -10.836   8.585 128.139  0.00  0.00    +0.000 Cl
ENDBRANCH   1   2
BRANCH   1   6
ATOM      6  O   UNL     1     -13.048   6.977 131.061  0.00  0.00    +0.000 OA
ATOM      7  H   UNL     1     -13.879   6.575 130.755  0.00  0.00    +0.000 HD
ENDBRANCH   1   6
BRANCH   1   8
ATOM      8  O   UNL     1     -12.194   5.699 129.350  0.00  0.00    +0.000 OA
ATOM      9  H   UNL     1     -12.768   5.768 128.568  0.00  0.00    +0.000 HD
ENDBRANCH   1   8
TORSDOF 3
ENDMDL
MODEL 7
REMARK VINA RESULT:      -3.8      2.668      3.312
REMARK  Name = Chloral hydrate
REMARK  3 active torsions:
REMARK  status: ('A' for Active; 'I' for Inactive)
REMARK    1  A    between atoms: O_1  and  C_2
REMARK    2  A    between atoms: C_2  and  O_3
REMARK    3  A    between atoms: C_2  and  C_4
REMARK                            x       y       z     vdW  Elec       q    Type
REMARK                         _______ _______ _______ _____ _____    ______ ____
ROOT
ATOM      1  C   UNL     1     -12.140   6.991 129.957  0.00  0.00    +0.000 C 
ENDROOT
BRANCH   1   2
ATOM      2  C   UNL     1     -12.382   8.136 128.912  0.00  0.00    +0.000 C 
ATOM      3 CL   UNL     1     -10.893   8.534 128.004  0.00  0.00    +0.000 Cl
ATOM      4 CL   UNL     1     -13.647   7.624 127.744  0.00  0.00    +0.000 Cl
ATOM      5 CL   UNL     1     -12.950   9.613 129.760  0.00  0.00    +0.000 Cl
ENDBRANCH   1   2
BRANCH   1   6
ATOM      6  O   UNL     1     -13.049   7.028 131.059  0.00  0.00    +0.000 OA
ATOM      7  H   UNL     1     -13.232   6.111 131.326  0.00  0.00    +0.000 HD
ENDBRANCH   1   6
BRANCH   1   8
ATOM      8  O   UNL     1     -12.212   5.682 129.391  0.00  0.00    +0.000 OA
ATOM      9  H   UNL     1     -13.011   5.640 128.837  0.00  0.00    +0.000 HD
ENDBRANCH   1   8
TORSDOF 3
ENDMDL
MODEL 8
REMARK VINA RESULT:      -3.6      1.658      2.210
REMARK  Name = Chloral hydrate
REMARK  3 active torsions:
REMARK  status: ('A' for Active; 'I' for Inactive)
REMARK    1  A    between atoms: O_1  and  C_2
REMARK    2  A    between atoms: C_2  and  O_3
REMARK    3  A    between atoms: C_2  and  C_4
REMARK                            x       y       z     vdW  Elec       q    Type
REMARK                         _______ _______ _______ _____ _____    ______ ____
ROOT
ATOM      1  C   UNL     1     -12.533   6.852 128.298  0.00  0.00    +0.000 C 
ENDROOT
BRANCH   1   2
ATOM      2  C   UNL     1     -11.684   7.861 129.148  0.00  0.00    +0.000 C 
ATOM      3 CL   UNL     1     -10.874   7.055 130.524  0.00  0.00    +0.000 Cl
ATOM      4 CL   UNL     1     -10.432   8.616 128.107  0.00  0.00    +0.000 Cl
ATOM      5 CL   UNL     1     -12.753   9.154 129.787  0.00  0.00    +0.000 Cl
ENDBRANCH   1   2
BRANCH   1   6
ATOM      6  O   UNL     1     -13.887   7.265 128.111  0.00  0.00    +0.000 OA
ATOM      7  H   UNL     1     -14.289   6.684 127.443  0.00  0.00    +0.000 HD
ENDBRANCH   1   6
BRANCH   1   8
ATOM      8  O   UNL     1     -11.985   6.600 127.003  0.00  0.00    +0.000 OA
ATOM      9  H   UNL     1     -11.623   7.437 126.664  0.00  0.00    +0.000 HD
ENDBRANCH   1   8
TORSDOF 3
ENDMDL
MODEL 9
REMARK VINA RESULT:      -3.5      4.006      4.819
REMARK  Name = Chloral hydrate
REMARK  3 active torsions:
REMARK  status: ('A' for Active; 'I' for Inactive)
REMARK    1  A    between atoms: O_1  and  C_2
REMARK    2  A    between atoms: C_2  and  O_3
REMARK    3  A    between atoms: C_2  and  C_4
REMARK                            x       y       z     vdW  Elec       q    Type
REMARK                         _______ _______ _______ _____ _____    ______ ____
ROOT
ATOM      1  C   UNL     1     -10.705   6.267 132.187  0.00  0.00    +0.000 C 
ENDROOT
BRANCH   1   2
ATOM      2  C   UNL     1      -9.845   6.353 130.877  0.00  0.00    +0.000 C 
ATOM      3 CL   UNL     1      -8.154   6.825 131.222  0.00  0.00    +0.000 Cl
ATOM      4 CL   UNL     1      -9.839   4.755 130.058  0.00  0.00    +0.000 Cl
ATOM      5 CL   UNL     1     -10.565   7.565 129.765  0.00  0.00    +0.000 Cl
ENDBRANCH   1   2
BRANCH   1   6
ATOM      6  O   UNL     1     -12.099   6.082 131.939  0.00  0.00    +0.000 OA
ATOM      7  H   UNL     1     -12.211   5.878 130.995  0.00  0.00    +0.000 HD
ENDBRANCH   1   6
BRANCH   1   8
ATOM      8  O   UNL     1     -10.289   5.225 133.071  0.00  0.00    +0.000 OA
ATOM      9  H   UNL     1     -10.991   5.096 133.732  0.00  0.00    +0.000 HD
ENDBRANCH   1   8
TORSDOF 3
ENDMDL
