MODEL 1
REMARK VINA RESULT:      -5.5      0.000      0.000
REMARK  Name = Chlorphenesin
REMARK  6 active torsions:
REMARK  status: ('A' for Active; 'I' for Inactive)
REMARK    1  A    between atoms: O_1  and  C_2
REMARK    2  A    between atoms: C_2  and  C_3
REMARK    3  A    between atoms: C_3  and  O_4
REMARK    4  A    between atoms: C_3  and  C_5
REMARK    5  A    between atoms: C_5  and  O_6
REMARK    6  A    between atoms: O_6  and  C_7
REMARK                            x       y       z     vdW  Elec       q    Type
REMARK                         _______ _______ _______ _____ _____    ______ ____
ROOT
ATOM      1  O   UNL     1     -10.064  -1.257 122.937  0.00  0.00    +0.000 OA
ENDROOT
BRANCH   1   2
ATOM      2  C   UNL     1      -8.898  -1.879 123.286  0.00  0.00    +0.000 A 
ATOM      3  C   UNL     1      -8.842  -3.008 124.106  0.00  0.00    +0.000 A 
ATOM      4  C   UNL     1      -7.612  -3.619 124.368  0.00  0.00    +0.000 A 
ATOM      5  C   UNL     1      -6.446  -3.108 123.803  0.00  0.00    +0.000 A 
ATOM      6 CL   UNL     1      -4.934  -3.858 124.139  0.00  0.00    +0.000 Cl
ATOM      7  C   UNL     1      -6.499  -1.998 122.961  0.00  0.00    +0.000 A 
ATOM      8  C   UNL     1      -7.730  -1.390 122.698  0.00  0.00    +0.000 A 
ENDBRANCH   1   2
BRANCH   1   9
ATOM      9  C   UNL     1      -9.923   0.113 122.533  0.00  0.00    +0.000 C 
BRANCH   9  10
ATOM     10  C   UNL     1     -10.120   1.023 123.757  0.00  0.00    +0.000 C 
BRANCH  10  11
ATOM     11  O   UNL     1     -11.501   1.402 123.870  0.00  0.00    +0.000 OA
ATOM     12  H   UNL     1     -12.040   0.740 123.410  0.00  0.00    +0.000 HD
ENDBRANCH  10  11
BRANCH  10  13
ATOM     13  C   UNL     1      -9.236   2.275 123.647  0.00  0.00    +0.000 C 
BRANCH  13  14
ATOM     14  O   UNL     1      -9.385   3.098 124.800  0.00  0.00    +0.000 OA
ATOM     15  H   UNL     1      -9.714   3.964 124.508  0.00  0.00    +0.000 HD
ENDBRANCH  13  14
ENDBRANCH  10  13
ENDBRANCH   9  10
ENDBRANCH   1   9
TORSDOF 6
ENDMDL
MODEL 2
REMARK VINA RESULT:      -5.5      9.770     10.923
REMARK  Name = Chlorphenesin
REMARK  6 active torsions:
REMARK  status: ('A' for Active; 'I' for Inactive)
REMARK    1  A    between atoms: O_1  and  C_2
REMARK    2  A    between atoms: C_2  and  C_3
REMARK    3  A    between atoms: C_3  and  O_4
REMARK    4  A    between atoms: C_3  and  C_5
REMARK    5  A    between atoms: C_5  and  O_6
REMARK    6  A    between atoms: O_6  and  C_7
REMARK                            x       y       z     vdW  Elec       q    Type
REMARK                         _______ _______ _______ _____ _____    ______ ____
ROOT
ATOM      1  O   UNL     1      -9.152   7.605 129.703  0.00  0.00    +0.000 OA
ENDROOT
BRANCH   1   2
ATOM      2  C   UNL     1      -8.814   6.896 130.821  0.00  0.00    +0.000 A 
ATOM      3  C   UNL     1      -7.500   6.737 131.266  0.00  0.00    +0.000 A 
ATOM      4  C   UNL     1      -7.244   6.043 132.453  0.00  0.00    +0.000 A 
ATOM      5  C   UNL     1      -8.300   5.522 133.197  0.00  0.00    +0.000 A 
ATOM      6 CL   UNL     1      -7.976   4.661 134.650  0.00  0.00    +0.000 Cl
ATOM      7  C   UNL     1      -9.615   5.702 132.773  0.00  0.00    +0.000 A 
ATOM      8  C   UNL     1      -9.870   6.398 131.588  0.00  0.00    +0.000 A 
ENDBRANCH   1   2
BRANCH   1   9
ATOM      9  C   UNL     1     -10.555   7.631 129.403  0.00  0.00    +0.000 C 
BRANCH   9  10
ATOM     10  C   UNL     1     -10.784   8.469 128.133  0.00  0.00    +0.000 C 
BRANCH  10  11
ATOM     11  O   UNL     1     -12.013   9.204 128.244  0.00  0.00    +0.000 OA
ATOM     12  H   UNL     1     -11.833  10.036 128.708  0.00  0.00    +0.000 HD
ENDBRANCH  10  11
BRANCH  10  13
ATOM     13  C   UNL     1     -10.818   7.566 126.890  0.00  0.00    +0.000 C 
BRANCH  13  14
ATOM     14  O   UNL     1      -9.862   6.516 127.006  0.00  0.00    +0.000 OA
ATOM     15  H   UNL     1     -10.043   5.869 126.305  0.00  0.00    +0.000 HD
ENDBRANCH  13  14
ENDBRANCH  10  13
ENDBRANCH   9  10
ENDBRANCH   1   9
TORSDOF 6
ENDMDL
MODEL 3
REMARK VINA RESULT:      -5.3      9.128     11.511
REMARK  Name = Chlorphenesin
REMARK  6 active torsions:
REMARK  status: ('A' for Active; 'I' for Inactive)
REMARK    1  A    between atoms: O_1  and  C_2
REMARK    2  A    between atoms: C_2  and  C_3
REMARK    3  A    between atoms: C_3  and  O_4
REMARK    4  A    between atoms: C_3  and  C_5
REMARK    5  A    between atoms: C_5  and  O_6
REMARK    6  A    between atoms: O_6  and  C_7
REMARK                            x       y       z     vdW  Elec       q    Type
REMARK                         _______ _______ _______ _____ _____    ______ ____
ROOT
ATOM      1  O   UNL     1     -11.768   5.328 129.556  0.00  0.00    +0.000 OA
ENDROOT
BRANCH   1   2
ATOM      2  C   UNL     1     -12.208   6.620 129.635  0.00  0.00    +0.000 A 
ATOM      3  C   UNL     1     -12.553   7.244 130.836  0.00  0.00    +0.000 A 
ATOM      4  C   UNL     1     -12.940   8.588 130.837  0.00  0.00    +0.000 A 
ATOM      5  C   UNL     1     -12.970   9.305 129.644  0.00  0.00    +0.000 A 
ATOM      6 CL   UNL     1     -13.458  10.955 129.652  0.00  0.00    +0.000 Cl
ATOM      7  C   UNL     1     -12.600   8.695 128.446  0.00  0.00    +0.000 A 
ATOM      8  C   UNL     1     -12.211   7.353 128.447  0.00  0.00    +0.000 A 
ENDBRANCH   1   2
BRANCH   1   9
ATOM      9  C   UNL     1     -11.014   4.874 130.689  0.00  0.00    +0.000 C 
BRANCH   9  10
ATOM     10  C   UNL     1     -10.466   3.466 130.399  0.00  0.00    +0.000 C 
BRANCH  10  11
ATOM     11  O   UNL     1     -10.516   2.664 131.589  0.00  0.00    +0.000 OA
ATOM     12  H   UNL     1     -11.269   2.057 131.519  0.00  0.00    +0.000 HD
ENDBRANCH  10  11
BRANCH  10  13
ATOM     13  C   UNL     1      -9.023   3.546 129.876  0.00  0.00    +0.000 C 
BRANCH  13  14
ATOM     14  O   UNL     1      -8.938   4.448 128.776  0.00  0.00    +0.000 OA
ATOM     15  H   UNL     1      -8.398   5.206 129.052  0.00  0.00    +0.000 HD
ENDBRANCH  13  14
ENDBRANCH  10  13
ENDBRANCH   9  10
ENDBRANCH   1   9
TORSDOF 6
ENDMDL
MODEL 4
REMARK VINA RESULT:      -5.3     10.069     11.696
REMARK  Name = Chlorphenesin
REMARK  6 active torsions:
REMARK  status: ('A' for Active; 'I' for Inactive)
REMARK    1  A    between atoms: O_1  and  C_2
REMARK    2  A    between atoms: C_2  and  C_3
REMARK    3  A    between atoms: C_3  and  O_4
REMARK    4  A    between atoms: C_3  and  C_5
REMARK    5  A    between atoms: C_5  and  O_6
REMARK    6  A    between atoms: O_6  and  C_7
REMARK                            x       y       z     vdW  Elec       q    Type
REMARK                         _______ _______ _______ _____ _____    ______ ____
ROOT
ATOM      1  O   UNL     1      -9.639   5.648 132.024  0.00  0.00    +0.000 OA
ENDROOT
BRANCH   1   2
ATOM      2  C   UNL     1     -10.393   6.487 131.252  0.00  0.00    +0.000 A 
ATOM      3  C   UNL     1      -9.911   7.119 130.103  0.00  0.00    +0.000 A 
ATOM      4  C   UNL     1     -10.765   7.919 129.337  0.00  0.00    +0.000 A 
ATOM      5  C   UNL     1     -12.097   8.076 129.714  0.00  0.00    +0.000 A 
ATOM      6 CL   UNL     1     -13.138   9.070 128.772  0.00  0.00    +0.000 Cl
ATOM      7  C   UNL     1     -12.590   7.426 130.844  0.00  0.00    +0.000 A 
ATOM      8  C   UNL     1     -11.736   6.625 131.607  0.00  0.00    +0.000 A 
ENDBRANCH   1   2
BRANCH   1   9
ATOM      9  C   UNL     1      -8.885   4.668 131.295  0.00  0.00    +0.000 C 
BRANCH   9  10
ATOM     10  C   UNL     1      -9.284   3.263 131.778  0.00  0.00    +0.000 C 
BRANCH  10  11
ATOM     11  O   UNL     1     -10.660   3.004 131.454  0.00  0.00    +0.000 OA
ATOM     12  H   UNL     1     -11.215   3.608 131.971  0.00  0.00    +0.000 HD
ENDBRANCH  10  11
BRANCH  10  13
ATOM     13  C   UNL     1      -9.063   3.131 133.293  0.00  0.00    +0.000 C 
BRANCH  13  14
ATOM     14  O   UNL     1     -10.055   3.861 134.010  0.00  0.00    +0.000 OA
ATOM     15  H   UNL     1     -10.926   3.555 133.709  0.00  0.00    +0.000 HD
ENDBRANCH  13  14
ENDBRANCH  10  13
ENDBRANCH   9  10
ENDBRANCH   1   9
TORSDOF 6
ENDMDL
MODEL 5
REMARK VINA RESULT:      -5.2      2.844      3.348
REMARK  Name = Chlorphenesin
REMARK  6 active torsions:
REMARK  status: ('A' for Active; 'I' for Inactive)
REMARK    1  A    between atoms: O_1  and  C_2
REMARK    2  A    between atoms: C_2  and  C_3
REMARK    3  A    between atoms: C_3  and  O_4
REMARK    4  A    between atoms: C_3  and  C_5
REMARK    5  A    between atoms: C_5  and  O_6
REMARK    6  A    between atoms: O_6  and  C_7
REMARK                            x       y       z     vdW  Elec       q    Type
REMARK                         _______ _______ _______ _____ _____    ______ ____
ROOT
ATOM      1  O   UNL     1      -9.365  -0.849 124.585  0.00  0.00    +0.000 OA
ENDROOT
BRANCH   1   2
ATOM      2  C   UNL     1      -9.019  -1.549 125.707  0.00  0.00    +0.000 A 
ATOM      3  C   UNL     1      -9.387  -2.877 125.932  0.00  0.00    +0.000 A 
ATOM      4  C   UNL     1      -8.944  -3.539 127.081  0.00  0.00    +0.000 A 
ATOM      5  C   UNL     1      -8.125  -2.878 127.994  0.00  0.00    +0.000 A 
ATOM      6 CL   UNL     1      -7.592  -3.696 129.410  0.00  0.00    +0.000 Cl
ATOM      7  C   UNL     1      -7.731  -1.562 127.761  0.00  0.00    +0.000 A 
ATOM      8  C   UNL     1      -8.174  -0.902 126.610  0.00  0.00    +0.000 A 
ENDBRANCH   1   2
BRANCH   1   9
ATOM      9  C   UNL     1      -8.481   0.229 124.247  0.00  0.00    +0.000 C 
BRANCH   9  10
ATOM     10  C   UNL     1      -9.285   1.339 123.546  0.00  0.00    +0.000 C 
BRANCH  10  11
ATOM     11  O   UNL     1     -10.138   2.000 124.493  0.00  0.00    +0.000 OA
ATOM     12  H   UNL     1     -11.060   1.818 124.255  0.00  0.00    +0.000 HD
ENDBRANCH  10  11
BRANCH  10  13
ATOM     13  C   UNL     1     -10.122   0.754 122.397  0.00  0.00    +0.000 C 
BRANCH  13  14
ATOM     14  O   UNL     1     -11.482   0.602 122.795  0.00  0.00    +0.000 OA
ATOM     15  H   UNL     1     -11.910  -0.002 122.167  0.00  0.00    +0.000 HD
ENDBRANCH  13  14
ENDBRANCH  10  13
ENDBRANCH   9  10
ENDBRANCH   1   9
TORSDOF 6
ENDMDL
MODEL 6
REMARK VINA RESULT:      -5.2      9.081     10.119
REMARK  Name = Chlorphenesin
REMARK  6 active torsions:
REMARK  status: ('A' for Active; 'I' for Inactive)
REMARK    1  A    between atoms: O_1  and  C_2
REMARK    2  A    between atoms: C_2  and  C_3
REMARK    3  A    between atoms: C_3  and  O_4
REMARK    4  A    between atoms: C_3  and  C_5
REMARK    5  A    between atoms: C_5  and  O_6
REMARK    6  A    between atoms: O_6  and  C_7
REMARK                            x       y       z     vdW  Elec       q    Type
REMARK                         _______ _______ _______ _____ _____    ______ ____
ROOT
ATOM      1  O   UNL     1     -10.299   6.022 128.937  0.00  0.00    +0.000 OA
ENDROOT
BRANCH   1   2
ATOM      2  C   UNL     1      -9.923   5.591 130.178  0.00  0.00    +0.000 A 
ATOM      3  C   UNL     1      -9.654   6.453 131.245  0.00  0.00    +0.000 A 
ATOM      4  C   UNL     1      -9.330   5.929 132.500  0.00  0.00    +0.000 A 
ATOM      5  C   UNL     1      -9.288   4.550 132.690  0.00  0.00    +0.000 A 
ATOM      6 CL   UNL     1      -8.878   3.913 134.234  0.00  0.00    +0.000 Cl
ATOM      7  C   UNL     1      -9.583   3.685 131.637  0.00  0.00    +0.000 A 
ATOM      8  C   UNL     1      -9.909   4.210 130.383  0.00  0.00    +0.000 A 
ENDBRANCH   1   2
BRANCH   1   9
ATOM      9  C   UNL     1     -11.444   6.886 128.916  0.00  0.00    +0.000 C 
BRANCH   9  10
ATOM     10  C   UNL     1     -11.113   8.143 128.093  0.00  0.00    +0.000 C 
BRANCH  10  11
ATOM     11  O   UNL     1     -12.147   9.126 128.258  0.00  0.00    +0.000 OA
ATOM     12  H   UNL     1     -12.851   8.742 128.804  0.00  0.00    +0.000 HD
ENDBRANCH  10  11
BRANCH  10  13
ATOM     13  C   UNL     1     -10.954   7.787 126.606  0.00  0.00    +0.000 C 
BRANCH  13  14
ATOM     14  O   UNL     1     -11.682   6.603 126.294  0.00  0.00    +0.000 OA
ATOM     15  H   UNL     1     -12.591   6.861 126.073  0.00  0.00    +0.000 HD
ENDBRANCH  13  14
ENDBRANCH  10  13
ENDBRANCH   9  10
ENDBRANCH   1   9
TORSDOF 6
ENDMDL
MODEL 7
REMARK VINA RESULT:      -5.2      1.678      2.330
REMARK  Name = Chlorphenesin
REMARK  6 active torsions:
REMARK  status: ('A' for Active; 'I' for Inactive)
REMARK    1  A    between atoms: O_1  and  C_2
REMARK    2  A    between atoms: C_2  and  C_3
REMARK    3  A    between atoms: C_3  and  O_4
REMARK    4  A    between atoms: C_3  and  C_5
REMARK    5  A    between atoms: C_5  and  O_6
REMARK    6  A    between atoms: O_6  and  C_7
REMARK                            x       y       z     vdW  Elec       q    Type
REMARK                         _______ _______ _______ _____ _____    ______ ____
ROOT
ATOM      1  O   UNL     1      -7.893   0.142 124.095  0.00  0.00    +0.000 OA
ENDROOT
BRANCH   1   2
ATOM      2  C   UNL     1      -6.998  -0.890 124.048  0.00  0.00    +0.000 A 
ATOM      3  C   UNL     1      -6.529  -1.556 125.182  0.00  0.00    +0.000 A 
ATOM      4  C   UNL     1      -5.657  -2.641 125.044  0.00  0.00    +0.000 A 
ATOM      5  C   UNL     1      -5.266  -3.063 123.776  0.00  0.00    +0.000 A 
ATOM      6 CL   UNL     1      -4.185  -4.391 123.614  0.00  0.00    +0.000 Cl
ATOM      7  C   UNL     1      -5.753  -2.420 122.639  0.00  0.00    +0.000 A 
ATOM      8  C   UNL     1      -6.626  -1.337 122.779  0.00  0.00    +0.000 A 
ENDBRANCH   1   2
BRANCH   1   9
ATOM      9  C   UNL     1      -7.495   1.322 123.380  0.00  0.00    +0.000 C 
BRANCH   9  10
ATOM     10  C   UNL     1      -8.749   2.034 122.844  0.00  0.00    +0.000 C 
BRANCH  10  11
ATOM     11  O   UNL     1      -8.668   3.442 123.115  0.00  0.00    +0.000 OA
ATOM     12  H   UNL     1      -8.413   3.562 124.043  0.00  0.00    +0.000 HD
ENDBRANCH  10  11
BRANCH  10  13
ATOM     13  C   UNL     1     -10.017   1.444 123.482  0.00  0.00    +0.000 C 
BRANCH  13  14
ATOM     14  O   UNL     1     -10.633   0.509 122.602  0.00  0.00    +0.000 OA
ATOM     15  H   UNL     1     -10.185  -0.345 122.712  0.00  0.00    +0.000 HD
ENDBRANCH  13  14
ENDBRANCH  10  13
ENDBRANCH   9  10
ENDBRANCH   1   9
TORSDOF 6
ENDMDL
MODEL 8
REMARK VINA RESULT:      -5.1     10.338     11.114
REMARK  Name = Chlorphenesin
REMARK  6 active torsions:
REMARK  status: ('A' for Active; 'I' for Inactive)
REMARK    1  A    between atoms: O_1  and  C_2
REMARK    2  A    between atoms: C_2  and  C_3
REMARK    3  A    between atoms: C_3  and  O_4
REMARK    4  A    between atoms: C_3  and  C_5
REMARK    5  A    between atoms: C_5  and  O_6
REMARK    6  A    between atoms: O_6  and  C_7
REMARK                            x       y       z     vdW  Elec       q    Type
REMARK                         _______ _______ _______ _____ _____    ______ ____
ROOT
ATOM      1  O   UNL     1      -9.424   7.309 129.466  0.00  0.00    +0.000 OA
ENDROOT
BRANCH   1   2
ATOM      2  C   UNL     1      -9.113   6.823 130.705  0.00  0.00    +0.000 A 
ATOM      3  C   UNL     1     -10.066   6.346 131.608  0.00  0.00    +0.000 A 
ATOM      4  C   UNL     1      -9.660   5.813 132.835  0.00  0.00    +0.000 A 
ATOM      5  C   UNL     1      -8.305   5.747 133.152  0.00  0.00    +0.000 A 
ATOM      6 CL   UNL     1      -7.814   5.099 134.668  0.00  0.00    +0.000 Cl
ATOM      7  C   UNL     1      -7.348   6.196 132.244  0.00  0.00    +0.000 A 
ATOM      8  C   UNL     1      -7.756   6.726 131.016  0.00  0.00    +0.000 A 
ENDBRANCH   1   2
BRANCH   1   9
ATOM      9  C   UNL     1     -10.674   6.849 128.931  0.00  0.00    +0.000 C 
BRANCH   9  10
ATOM     10  C   UNL     1     -11.410   8.034 128.283  0.00  0.00    +0.000 C 
BRANCH  10  11
ATOM     11  O   UNL     1     -10.466   9.039 127.880  0.00  0.00    +0.000 OA
ATOM     12  H   UNL     1     -10.915   9.899 127.879  0.00  0.00    +0.000 HD
ENDBRANCH  10  11
BRANCH  10  13
ATOM     13  C   UNL     1     -12.435   8.632 129.260  0.00  0.00    +0.000 C 
BRANCH  13  14
ATOM     14  O   UNL     1     -12.843   9.927 128.828  0.00  0.00    +0.000 OA
ATOM     15  H   UNL     1     -12.473  10.578 129.445  0.00  0.00    +0.000 HD
ENDBRANCH  13  14
ENDBRANCH  10  13
ENDBRANCH   9  10
ENDBRANCH   1   9
TORSDOF 6
ENDMDL
MODEL 9
REMARK VINA RESULT:      -5.0      9.912     11.712
REMARK  Name = Chlorphenesin
REMARK  6 active torsions:
REMARK  status: ('A' for Active; 'I' for Inactive)
REMARK    1  A    between atoms: O_1  and  C_2
REMARK    2  A    between atoms: C_2  and  C_3
REMARK    3  A    between atoms: C_3  and  O_4
REMARK    4  A    between atoms: C_3  and  C_5
REMARK    5  A    between atoms: C_5  and  O_6
REMARK    6  A    between atoms: O_6  and  C_7
REMARK                            x       y       z     vdW  Elec       q    Type
REMARK                         _______ _______ _______ _____ _____    ______ ____
ROOT
ATOM      1  O   UNL     1     -10.931   5.364 129.597  0.00  0.00    +0.000 OA
ENDROOT
BRANCH   1   2
ATOM      2  C   UNL     1     -11.475   6.617 129.558  0.00  0.00    +0.000 A 
ATOM      3  C   UNL     1     -11.421   7.447 128.436  0.00  0.00    +0.000 A 
ATOM      4  C   UNL     1     -12.053   8.694 128.460  0.00  0.00    +0.000 A 
ATOM      5  C   UNL     1     -12.746   9.103 129.597  0.00  0.00    +0.000 A 
ATOM      6 CL   UNL     1     -13.512  10.643 129.622  0.00  0.00    +0.000 Cl
ATOM      7  C   UNL     1     -12.827   8.267 130.709  0.00  0.00    +0.000 A 
ATOM      8  C   UNL     1     -12.197   7.020 130.683  0.00  0.00    +0.000 A 
ENDBRANCH   1   2
BRANCH   1   9
ATOM      9  C   UNL     1      -9.496   5.326 129.601  0.00  0.00    +0.000 C 
BRANCH   9  10
ATOM     10  C   UNL     1      -9.004   5.019 131.026  0.00  0.00    +0.000 C 
BRANCH  10  11
ATOM     11  O   UNL     1     -10.074   4.462 131.806  0.00  0.00    +0.000 OA
ATOM     12  H   UNL     1     -10.239   3.557 131.498  0.00  0.00    +0.000 HD
ENDBRANCH  10  11
BRANCH  10  13
ATOM     13  C   UNL     1      -8.467   6.293 131.698  0.00  0.00    +0.000 C 
BRANCH  13  14
ATOM     14  O   UNL     1      -7.990   7.212 130.720  0.00  0.00    +0.000 OA
ATOM     15  H   UNL     1      -8.453   7.029 129.886  0.00  0.00    +0.000 HD
ENDBRANCH  13  14
ENDBRANCH  10  13
ENDBRANCH   9  10
ENDBRANCH   1   9
TORSDOF 6
ENDMDL
