MODEL 1
REMARK VINA RESULT:      -6.1      0.000      0.000
REMARK  Name = Chloroprocaine
REMARK  10 active torsions:
REMARK  status: ('A' for Active; 'I' for Inactive)
REMARK    1  A    between atoms: C_1  and  C_2
REMARK    2  A    between atoms: C_2  and  N_3
REMARK    3  A    between atoms: N_3  and  C_4
REMARK    4  A    between atoms: N_3  and  C_6
REMARK    5  A    between atoms: C_4  and  C_5
REMARK    6  A    between atoms: C_6  and  C_7
REMARK    7  A    between atoms: C_7  and  O_8
REMARK    8  A    between atoms: O_8  and  C_9
REMARK    9  A    between atoms: C_9  and  C_11
REMARK   10  A    between atoms: C_15  and  N_16
REMARK                            x       y       z     vdW  Elec       q    Type
REMARK                         _______ _______ _______ _____ _____    ______ ____
ROOT
ATOM      1  C   UNL     1      -6.643   2.962 122.909  0.00  0.00    +0.000 C 
ATOM      2  O   UNL     1      -6.739   3.466 124.011  0.00  0.00    +0.000 OA
ENDROOT
BRANCH   1   3
ATOM      3  C   UNL     1      -6.447   3.766 121.668  0.00  0.00    +0.000 A 
ATOM      4  C   UNL     1      -7.455   3.864 120.696  0.00  0.00    +0.000 A 
ATOM      5 CL   UNL     1      -9.053   3.245 120.935  0.00  0.00    +0.000 Cl
ATOM      6  C   UNL     1      -7.218   4.537 119.483  0.00  0.00    +0.000 A 
ATOM      7  C   UNL     1      -5.990   5.149 119.228  0.00  0.00    +0.000 A 
ATOM      8  C   UNL     1      -4.987   5.042 120.192  0.00  0.00    +0.000 A 
ATOM      9  C   UNL     1      -5.207   4.362 121.404  0.00  0.00    +0.000 A 
BRANCH   7  10
ATOM     10  N   UNL     1      -5.753   5.799 118.030  0.00  0.00    +0.000 N 
ATOM     11  H   UNL     1      -6.459   6.384 117.603  0.00  0.00    +0.000 HD
ATOM     12  H   UNL     1      -4.821   5.836 117.639  0.00  0.00    +0.000 HD
ENDBRANCH   7  10
ENDBRANCH   1   3
BRANCH   1  13
ATOM     13  O   UNL     1      -6.698   1.617 122.650  0.00  0.00    +0.000 OA
BRANCH  13  14
ATOM     14  C   UNL     1      -7.587   0.917 123.555  0.00  0.00    +0.000 C 
BRANCH  14  15
ATOM     15  C   UNL     1      -6.853  -0.171 124.378  0.00  0.00    +0.000 C 
BRANCH  15  16
ATOM     16  N   UNL     1      -7.231  -1.586 124.047  0.00  0.00    +0.000 NA
BRANCH  16  18
ATOM     17  C   UNL     1      -9.259  -2.990 123.370  0.00  0.00    +0.000 C 
ATOM     18  C   UNL     1      -8.624  -1.609 123.537  0.00  0.00    +0.000 C 
ENDBRANCH  16  18
BRANCH  16  19
ATOM     19  C   UNL     1      -6.254  -2.157 123.094  0.00  0.00    +0.000 C 
ATOM     20  C   UNL     1      -5.048  -2.874 123.686  0.00  0.00    +0.000 C 
ENDBRANCH  16  19
ENDBRANCH  15  16
ENDBRANCH  14  15
ENDBRANCH  13  14
ENDBRANCH   1  13
TORSDOF 8
ENDMDL
MODEL 2
REMARK VINA RESULT:      -5.9      1.753      2.752
REMARK  Name = Chloroprocaine
REMARK  10 active torsions:
REMARK  status: ('A' for Active; 'I' for Inactive)
REMARK    1  A    between atoms: C_1  and  C_2
REMARK    2  A    between atoms: C_2  and  N_3
REMARK    3  A    between atoms: N_3  and  C_4
REMARK    4  A    between atoms: N_3  and  C_6
REMARK    5  A    between atoms: C_4  and  C_5
REMARK    6  A    between atoms: C_6  and  C_7
REMARK    7  A    between atoms: C_7  and  O_8
REMARK    8  A    between atoms: O_8  and  C_9
REMARK    9  A    between atoms: C_9  and  C_11
REMARK   10  A    between atoms: C_15  and  N_16
REMARK                            x       y       z     vdW  Elec       q    Type
REMARK                         _______ _______ _______ _____ _____    ______ ____
ROOT
ATOM      1  C   UNL     1      -8.606   2.715 123.917  0.00  0.00    +0.000 C 
ATOM      2  O   UNL     1      -8.991   3.436 124.818  0.00  0.00    +0.000 OA
ENDROOT
BRANCH   1   3
ATOM      3  C   UNL     1      -7.734   3.203 122.810  0.00  0.00    +0.000 A 
ATOM      4  C   UNL     1      -6.405   3.587 123.044  0.00  0.00    +0.000 A 
ATOM      5 CL   UNL     1      -5.610   3.343 124.562  0.00  0.00    +0.000 Cl
ATOM      6  C   UNL     1      -5.628   4.146 122.012  0.00  0.00    +0.000 A 
ATOM      7  C   UNL     1      -6.146   4.305 120.727  0.00  0.00    +0.000 A 
ATOM      8  C   UNL     1      -7.472   3.931 120.499  0.00  0.00    +0.000 A 
ATOM      9  C   UNL     1      -8.263   3.382 121.525  0.00  0.00    +0.000 A 
BRANCH   7  10
ATOM     10  N   UNL     1      -5.388   4.867 119.716  0.00  0.00    +0.000 N 
ATOM     11  H   UNL     1      -4.777   5.654 119.896  0.00  0.00    +0.000 HD
ATOM     12  H   UNL     1      -5.302   4.409 118.819  0.00  0.00    +0.000 HD
ENDBRANCH   7  10
ENDBRANCH   1   3
BRANCH   1  13
ATOM     13  O   UNL     1      -8.905   1.384 123.792  0.00  0.00    +0.000 OA
BRANCH  13  14
ATOM     14  C   UNL     1      -7.940   0.535 124.460  0.00  0.00    +0.000 C 
BRANCH  14  15
ATOM     15  C   UNL     1      -7.002  -0.189 123.462  0.00  0.00    +0.000 C 
BRANCH  15  16
ATOM     16  N   UNL     1      -7.001  -1.688 123.558  0.00  0.00    +0.000 NA
BRANCH  16  18
ATOM     17  C   UNL     1      -5.126  -3.418 123.744  0.00  0.00    +0.000 C 
ATOM     18  C   UNL     1      -5.768  -2.128 124.256  0.00  0.00    +0.000 C 
ENDBRANCH  16  18
BRANCH  16  19
ATOM     19  C   UNL     1      -8.240  -2.149 124.222  0.00  0.00    +0.000 C 
ATOM     20  C   UNL     1      -9.151  -3.071 123.423  0.00  0.00    +0.000 C 
ENDBRANCH  16  19
ENDBRANCH  15  16
ENDBRANCH  14  15
ENDBRANCH  13  14
ENDBRANCH   1  13
TORSDOF 8
ENDMDL
MODEL 3
REMARK VINA RESULT:      -5.7      9.276     10.211
REMARK  Name = Chloroprocaine
REMARK  10 active torsions:
REMARK  status: ('A' for Active; 'I' for Inactive)
REMARK    1  A    between atoms: C_1  and  C_2
REMARK    2  A    between atoms: C_2  and  N_3
REMARK    3  A    between atoms: N_3  and  C_4
REMARK    4  A    between atoms: N_3  and  C_6
REMARK    5  A    between atoms: C_4  and  C_5
REMARK    6  A    between atoms: C_6  and  C_7
REMARK    7  A    between atoms: C_7  and  O_8
REMARK    8  A    between atoms: O_8  and  C_9
REMARK    9  A    between atoms: C_9  and  C_11
REMARK   10  A    between atoms: C_15  and  N_16
REMARK                            x       y       z     vdW  Elec       q    Type
REMARK                         _______ _______ _______ _____ _____    ______ ____
ROOT
ATOM      1  C   UNL     1      -9.282   5.824 129.731  0.00  0.00    +0.000 C 
ATOM      2  O   UNL     1      -8.153   6.057 130.118  0.00  0.00    +0.000 OA
ENDROOT
BRANCH   1   3
ATOM      3  C   UNL     1     -10.290   6.897 129.492  0.00  0.00    +0.000 A 
ATOM      4  C   UNL     1     -11.308   7.160 130.422  0.00  0.00    +0.000 A 
ATOM      5 CL   UNL     1     -11.365   6.423 131.986  0.00  0.00    +0.000 Cl
ATOM      6  C   UNL     1     -12.315   8.101 130.134  0.00  0.00    +0.000 A 
ATOM      7  C   UNL     1     -12.311   8.816 128.936  0.00  0.00    +0.000 A 
ATOM      8  C   UNL     1     -11.303   8.545 128.010  0.00  0.00    +0.000 A 
ATOM      9  C   UNL     1     -10.298   7.598 128.279  0.00  0.00    +0.000 A 
BRANCH   7  10
ATOM     10  N   UNL     1     -13.308   9.730 128.648  0.00  0.00    +0.000 N 
ATOM     11  H   UNL     1     -13.275  10.673 129.014  0.00  0.00    +0.000 HD
ATOM     12  H   UNL     1     -14.002   9.532 127.940  0.00  0.00    +0.000 HD
ENDBRANCH   7  10
ENDBRANCH   1   3
BRANCH   1  13
ATOM     13  O   UNL     1      -9.781   4.576 129.464  0.00  0.00    +0.000 OA
BRANCH  13  14
ATOM     14  C   UNL     1      -9.168   3.550 130.283  0.00  0.00    +0.000 C 
BRANCH  14  15
ATOM     15  C   UNL     1     -10.191   2.851 131.214  0.00  0.00    +0.000 C 
BRANCH  15  16
ATOM     16  N   UNL     1      -9.639   2.380 132.529  0.00  0.00    +0.000 NA
BRANCH  16  18
ATOM     17  C   UNL     1      -8.932   0.092 131.630  0.00  0.00    +0.000 C 
ATOM     18  C   UNL     1      -8.536   1.421 132.277  0.00  0.00    +0.000 C 
ENDBRANCH  16  18
BRANCH  16  19
ATOM     19  C   UNL     1      -9.223   3.543 133.344  0.00  0.00    +0.000 C 
ATOM     20  C   UNL     1      -7.832   3.493 133.960  0.00  0.00    +0.000 C 
ENDBRANCH  16  19
ENDBRANCH  15  16
ENDBRANCH  14  15
ENDBRANCH  13  14
ENDBRANCH   1  13
TORSDOF 8
ENDMDL
MODEL 4
REMARK VINA RESULT:      -5.7      2.930      6.843
REMARK  Name = Chloroprocaine
REMARK  10 active torsions:
REMARK  status: ('A' for Active; 'I' for Inactive)
REMARK    1  A    between atoms: C_1  and  C_2
REMARK    2  A    between atoms: C_2  and  N_3
REMARK    3  A    between atoms: N_3  and  C_4
REMARK    4  A    between atoms: N_3  and  C_6
REMARK    5  A    between atoms: C_4  and  C_5
REMARK    6  A    between atoms: C_6  and  C_7
REMARK    7  A    between atoms: C_7  and  O_8
REMARK    8  A    between atoms: O_8  and  C_9
REMARK    9  A    between atoms: C_9  and  C_11
REMARK   10  A    between atoms: C_15  and  N_16
REMARK                            x       y       z     vdW  Elec       q    Type
REMARK                         _______ _______ _______ _____ _____    ______ ____
ROOT
ATOM      1  C   UNL     1      -8.819  -0.768 123.104  0.00  0.00    +0.000 C 
ATOM      2  O   UNL     1      -9.936  -1.074 122.731  0.00  0.00    +0.000 OA
ENDROOT
BRANCH   1   3
ATOM      3  C   UNL     1      -7.730  -1.769 123.293  0.00  0.00    +0.000 A 
ATOM      4  C   UNL     1      -7.863  -2.826 124.208  0.00  0.00    +0.000 A 
ATOM      5 CL   UNL     1      -9.344  -3.176 125.030  0.00  0.00    +0.000 Cl
ATOM      6  C   UNL     1      -6.787  -3.700 124.454  0.00  0.00    +0.000 A 
ATOM      7  C   UNL     1      -5.576  -3.558 123.777  0.00  0.00    +0.000 A 
ATOM      8  C   UNL     1      -5.443  -2.501 122.876  0.00  0.00    +0.000 A 
ATOM      9  C   UNL     1      -6.506  -1.613 122.629  0.00  0.00    +0.000 A 
BRANCH   7  10
ATOM     10  N   UNL     1      -4.514  -4.408 124.030  0.00  0.00    +0.000 N 
ATOM     11  H   UNL     1      -3.604  -4.048 124.284  0.00  0.00    +0.000 HD
ATOM     12  H   UNL     1      -4.662  -5.404 124.125  0.00  0.00    +0.000 HD
ENDBRANCH   7  10
ENDBRANCH   1   3
BRANCH   1  13
ATOM     13  O   UNL     1      -8.407   0.506 123.395  0.00  0.00    +0.000 OA
BRANCH  13  14
ATOM     14  C   UNL     1      -9.340   1.509 122.923  0.00  0.00    +0.000 C 
BRANCH  14  15
ATOM     15  C   UNL     1      -8.690   2.911 122.812  0.00  0.00    +0.000 C 
BRANCH  15  16
ATOM     16  N   UNL     1      -7.193   2.913 122.686  0.00  0.00    +0.000 NA
BRANCH  16  18
ATOM     17  C   UNL     1      -5.405   3.281 120.894  0.00  0.00    +0.000 C 
ATOM     18  C   UNL     1      -6.815   3.572 121.412  0.00  0.00    +0.000 C 
ENDBRANCH  16  18
BRANCH  16  19
ATOM     19  C   UNL     1      -6.590   3.555 123.874  0.00  0.00    +0.000 C 
ATOM     20  C   UNL     1      -6.023   2.635 124.946  0.00  0.00    +0.000 C 
ENDBRANCH  16  19
ENDBRANCH  15  16
ENDBRANCH  14  15
ENDBRANCH  13  14
ENDBRANCH   1  13
TORSDOF 8
ENDMDL
MODEL 5
REMARK VINA RESULT:      -5.6      9.433     10.462
REMARK  Name = Chloroprocaine
REMARK  10 active torsions:
REMARK  status: ('A' for Active; 'I' for Inactive)
REMARK    1  A    between atoms: C_1  and  C_2
REMARK    2  A    between atoms: C_2  and  N_3
REMARK    3  A    between atoms: N_3  and  C_4
REMARK    4  A    between atoms: N_3  and  C_6
REMARK    5  A    between atoms: C_4  and  C_5
REMARK    6  A    between atoms: C_6  and  C_7
REMARK    7  A    between atoms: C_7  and  O_8
REMARK    8  A    between atoms: O_8  and  C_9
REMARK    9  A    between atoms: C_9  and  C_11
REMARK   10  A    between atoms: C_15  and  N_16
REMARK                            x       y       z     vdW  Elec       q    Type
REMARK                         _______ _______ _______ _____ _____    ______ ____
ROOT
ATOM      1  C   UNL     1     -10.882   5.414 130.070  0.00  0.00    +0.000 C 
ATOM      2  O   UNL     1     -11.461   4.345 130.033  0.00  0.00    +0.000 OA
ENDROOT
BRANCH   1   3
ATOM      3  C   UNL     1     -11.569   6.713 129.811  0.00  0.00    +0.000 A 
ATOM      4  C   UNL     1     -11.303   7.459 128.652  0.00  0.00    +0.000 A 
ATOM      5 CL   UNL     1     -10.333   6.860 127.351  0.00  0.00    +0.000 Cl
ATOM      6  C   UNL     1     -11.877   8.732 128.473  0.00  0.00    +0.000 A 
ATOM      7  C   UNL     1     -12.745   9.270 129.422  0.00  0.00    +0.000 A 
ATOM      8  C   UNL     1     -13.000   8.530 130.578  0.00  0.00    +0.000 A 
ATOM      9  C   UNL     1     -12.424   7.262 130.776  0.00  0.00    +0.000 A 
BRANCH   7  10
ATOM     10  N   UNL     1     -13.298  10.527 129.252  0.00  0.00    +0.000 N 
ATOM     11  H   UNL     1     -13.408  11.160 130.033  0.00  0.00    +0.000 HD
ATOM     12  H   UNL     1     -13.454  10.901 128.326  0.00  0.00    +0.000 HD
ENDBRANCH   7  10
ENDBRANCH   1   3
BRANCH   1  13
ATOM     13  O   UNL     1      -9.551   5.579 130.348  0.00  0.00    +0.000 OA
BRANCH  13  14
ATOM     14  C   UNL     1      -8.785   4.371 130.117  0.00  0.00    +0.000 C 
BRANCH  14  15
ATOM     15  C   UNL     1      -7.879   4.010 131.321  0.00  0.00    +0.000 C 
BRANCH  15  16
ATOM     16  N   UNL     1      -8.305   2.801 132.102  0.00  0.00    +0.000 NA
BRANCH  16  18
ATOM     17  C   UNL     1      -8.457   4.060 134.324  0.00  0.00    +0.000 C 
ATOM     18  C   UNL     1      -9.153   3.233 133.241  0.00  0.00    +0.000 C 
ENDBRANCH  16  18
BRANCH  16  19
ATOM     19  C   UNL     1      -8.984   1.838 131.207  0.00  0.00    +0.000 C 
ATOM     20  C   UNL     1      -9.252   0.446 131.762  0.00  0.00    +0.000 C 
ENDBRANCH  16  19
ENDBRANCH  15  16
ENDBRANCH  14  15
ENDBRANCH  13  14
ENDBRANCH   1  13
TORSDOF 8
ENDMDL
MODEL 6
REMARK VINA RESULT:      -5.4      9.523     10.733
REMARK  Name = Chloroprocaine
REMARK  10 active torsions:
REMARK  status: ('A' for Active; 'I' for Inactive)
REMARK    1  A    between atoms: C_1  and  C_2
REMARK    2  A    between atoms: C_2  and  N_3
REMARK    3  A    between atoms: N_3  and  C_4
REMARK    4  A    between atoms: N_3  and  C_6
REMARK    5  A    between atoms: C_4  and  C_5
REMARK    6  A    between atoms: C_6  and  C_7
REMARK    7  A    between atoms: C_7  and  O_8
REMARK    8  A    between atoms: O_8  and  C_9
REMARK    9  A    between atoms: C_9  and  C_11
REMARK   10  A    between atoms: C_15  and  N_16
REMARK                            x       y       z     vdW  Elec       q    Type
REMARK                         _______ _______ _______ _____ _____    ______ ____
ROOT
ATOM      1  C   UNL     1      -9.579   5.670 129.541  0.00  0.00    +0.000 C 
ATOM      2  O   UNL     1      -9.947   4.510 129.542  0.00  0.00    +0.000 OA
ENDROOT
BRANCH   1   3
ATOM      3  C   UNL     1     -10.516   6.813 129.342  0.00  0.00    +0.000 A 
ATOM      4  C   UNL     1     -11.438   7.181 130.335  0.00  0.00    +0.000 A 
ATOM      5 CL   UNL     1     -11.434   6.491 131.921  0.00  0.00    +0.000 Cl
ATOM      6  C   UNL     1     -12.387   8.191 130.092  0.00  0.00    +0.000 A 
ATOM      7  C   UNL     1     -12.418   8.872 128.875  0.00  0.00    +0.000 A 
ATOM      8  C   UNL     1     -11.507   8.497 127.886  0.00  0.00    +0.000 A 
ATOM      9  C   UNL     1     -10.561   7.481 128.111  0.00  0.00    +0.000 A 
BRANCH   7  10
ATOM     10  N   UNL     1     -13.360   9.855 128.631  0.00  0.00    +0.000 N 
ATOM     11  H   UNL     1     -13.141  10.659 128.057  0.00  0.00    +0.000 HD
ATOM     12  H   UNL     1     -14.329   9.716 128.884  0.00  0.00    +0.000 HD
ENDBRANCH   7  10
ENDBRANCH   1   3
BRANCH   1  13
ATOM     13  O   UNL     1      -8.286   6.085 129.719  0.00  0.00    +0.000 OA
BRANCH  13  14
ATOM     14  C   UNL     1      -7.579   5.287 130.700  0.00  0.00    +0.000 C 
BRANCH  14  15
ATOM     15  C   UNL     1      -6.161   4.886 130.221  0.00  0.00    +0.000 C 
BRANCH  15  16
ATOM     16  N   UNL     1      -5.029   5.518 130.979  0.00  0.00    +0.000 NA
BRANCH  16  18
ATOM     17  C   UNL     1      -4.463   7.870 130.148  0.00  0.00    +0.000 C 
ATOM     18  C   UNL     1      -4.235   6.360 130.052  0.00  0.00    +0.000 C 
ENDBRANCH  16  18
BRANCH  16  19
ATOM     19  C   UNL     1      -5.558   6.269 132.138  0.00  0.00    +0.000 C 
ATOM     20  C   UNL     1      -4.981   5.930 133.506  0.00  0.00    +0.000 C 
ENDBRANCH  16  19
ENDBRANCH  15  16
ENDBRANCH  14  15
ENDBRANCH  13  14
ENDBRANCH   1  13
TORSDOF 8
ENDMDL
MODEL 7
REMARK VINA RESULT:      -5.3      1.656      2.336
REMARK  Name = Chloroprocaine
REMARK  10 active torsions:
REMARK  status: ('A' for Active; 'I' for Inactive)
REMARK    1  A    between atoms: C_1  and  C_2
REMARK    2  A    between atoms: C_2  and  N_3
REMARK    3  A    between atoms: N_3  and  C_4
REMARK    4  A    between atoms: N_3  and  C_6
REMARK    5  A    between atoms: C_4  and  C_5
REMARK    6  A    between atoms: C_6  and  C_7
REMARK    7  A    between atoms: C_7  and  O_8
REMARK    8  A    between atoms: O_8  and  C_9
REMARK    9  A    between atoms: C_9  and  C_11
REMARK   10  A    between atoms: C_15  and  N_16
REMARK                            x       y       z     vdW  Elec       q    Type
REMARK                         _______ _______ _______ _____ _____    ______ ____
ROOT
ATOM      1  C   UNL     1      -7.443   3.090 122.761  0.00  0.00    +0.000 C 
ATOM      2  O   UNL     1      -8.342   3.549 123.440  0.00  0.00    +0.000 OA
ENDROOT
BRANCH   1   3
ATOM      3  C   UNL     1      -6.985   3.727 121.493  0.00  0.00    +0.000 A 
ATOM      4  C   UNL     1      -5.747   4.382 121.413  0.00  0.00    +0.000 A 
ATOM      5 CL   UNL     1      -4.576   4.337 122.686  0.00  0.00    +0.000 Cl
ATOM      6  C   UNL     1      -5.374   5.071 120.243  0.00  0.00    +0.000 A 
ATOM      7  C   UNL     1      -6.209   5.095 119.126  0.00  0.00    +0.000 A 
ATOM      8  C   UNL     1      -7.444   4.450 119.211  0.00  0.00    +0.000 A 
ATOM      9  C   UNL     1      -7.834   3.769 120.379  0.00  0.00    +0.000 A 
BRANCH   7  10
ATOM     10  N   UNL     1      -5.849   5.782 117.981  0.00  0.00    +0.000 N 
ATOM     11  H   UNL     1      -6.459   6.481 117.577  0.00  0.00    +0.000 HD
ATOM     12  H   UNL     1      -4.908   5.721 117.616  0.00  0.00    +0.000 HD
ENDBRANCH   7  10
ENDBRANCH   1   3
BRANCH   1  13
ATOM     13  O   UNL     1      -6.738   1.952 123.053  0.00  0.00    +0.000 OA
BRANCH  13  14
ATOM     14  C   UNL     1      -7.591   0.880 123.527  0.00  0.00    +0.000 C 
BRANCH  14  15
ATOM     15  C   UNL     1      -6.805  -0.183 124.334  0.00  0.00    +0.000 C 
BRANCH  15  16
ATOM     16  N   UNL     1      -7.595  -1.398 124.729  0.00  0.00    +0.000 NA
BRANCH  16  18
ATOM     17  C   UNL     1      -7.946  -2.699 126.904  0.00  0.00    +0.000 C 
ATOM     18  C   UNL     1      -7.862  -1.350 126.187  0.00  0.00    +0.000 C 
ENDBRANCH  16  18
BRANCH  16  19
ATOM     19  C   UNL     1      -8.827  -1.482 123.915  0.00  0.00    +0.000 C 
ATOM     20  C   UNL     1      -8.920  -2.627 122.916  0.00  0.00    +0.000 C 
ENDBRANCH  16  19
ENDBRANCH  15  16
ENDBRANCH  14  15
ENDBRANCH  13  14
ENDBRANCH   1  13
TORSDOF 8
ENDMDL
MODEL 8
REMARK VINA RESULT:      -5.2      1.247      2.066
REMARK  Name = Chloroprocaine
REMARK  10 active torsions:
REMARK  status: ('A' for Active; 'I' for Inactive)
REMARK    1  A    between atoms: C_1  and  C_2
REMARK    2  A    between atoms: C_2  and  N_3
REMARK    3  A    between atoms: N_3  and  C_4
REMARK    4  A    between atoms: N_3  and  C_6
REMARK    5  A    between atoms: C_4  and  C_5
REMARK    6  A    between atoms: C_6  and  C_7
REMARK    7  A    between atoms: C_7  and  O_8
REMARK    8  A    between atoms: O_8  and  C_9
REMARK    9  A    between atoms: C_9  and  C_11
REMARK   10  A    between atoms: C_15  and  N_16
REMARK                            x       y       z     vdW  Elec       q    Type
REMARK                         _______ _______ _______ _____ _____    ______ ____
ROOT
ATOM      1  C   UNL     1      -6.935   2.755 124.269  0.00  0.00    +0.000 C 
ATOM      2  O   UNL     1      -7.320   3.363 125.250  0.00  0.00    +0.000 OA
ENDROOT
BRANCH   1   3
ATOM      3  C   UNL     1      -6.576   3.433 122.990  0.00  0.00    +0.000 A 
ATOM      4  C   UNL     1      -7.425   3.378 121.874  0.00  0.00    +0.000 A 
ATOM      5 CL   UNL     1      -9.020   2.710 121.938  0.00  0.00    +0.000 Cl
ATOM      6  C   UNL     1      -7.025   3.930 120.642  0.00  0.00    +0.000 A 
ATOM      7  C   UNL     1      -5.794   4.570 120.506  0.00  0.00    +0.000 A 
ATOM      8  C   UNL     1      -4.948   4.615 121.616  0.00  0.00    +0.000 A 
ATOM      9  C   UNL     1      -5.330   4.057 122.849  0.00  0.00    +0.000 A 
BRANCH   7  10
ATOM     10  N   UNL     1      -5.395   5.100 119.292  0.00  0.00    +0.000 N 
ATOM     11  H   UNL     1      -6.072   5.349 118.582  0.00  0.00    +0.000 HD
ATOM     12  H   UNL     1      -4.440   5.401 119.149  0.00  0.00    +0.000 HD
ENDBRANCH   7  10
ENDBRANCH   1   3
BRANCH   1  13
ATOM     13  O   UNL     1      -6.777   1.396 124.197  0.00  0.00    +0.000 OA
BRANCH  13  14
ATOM     14  C   UNL     1      -6.143   0.851 125.380  0.00  0.00    +0.000 C 
BRANCH  14  15
ATOM     15  C   UNL     1      -6.544  -0.624 125.636  0.00  0.00    +0.000 C 
BRANCH  15  16
ATOM     16  N   UNL     1      -6.514  -1.513 124.425  0.00  0.00    +0.000 NA
BRANCH  16  18
ATOM     17  C   UNL     1      -4.831  -3.163 123.429  0.00  0.00    +0.000 C 
ATOM     18  C   UNL     1      -5.558  -2.622 124.662  0.00  0.00    +0.000 C 
ENDBRANCH  16  18
BRANCH  16  19
ATOM     19  C   UNL     1      -7.881  -1.982 124.112  0.00  0.00    +0.000 C 
ATOM     20  C   UNL     1      -8.289  -1.998 122.645  0.00  0.00    +0.000 C 
ENDBRANCH  16  19
ENDBRANCH  15  16
ENDBRANCH  14  15
ENDBRANCH  13  14
ENDBRANCH   1  13
TORSDOF 8
ENDMDL
MODEL 9
REMARK VINA RESULT:      -5.2      4.284      6.623
REMARK  Name = Chloroprocaine
REMARK  10 active torsions:
REMARK  status: ('A' for Active; 'I' for Inactive)
REMARK    1  A    between atoms: C_1  and  C_2
REMARK    2  A    between atoms: C_2  and  N_3
REMARK    3  A    between atoms: N_3  and  C_4
REMARK    4  A    between atoms: N_3  and  C_6
REMARK    5  A    between atoms: C_4  and  C_5
REMARK    6  A    between atoms: C_6  and  C_7
REMARK    7  A    between atoms: C_7  and  O_8
REMARK    8  A    between atoms: O_8  and  C_9
REMARK    9  A    between atoms: C_9  and  C_11
REMARK   10  A    between atoms: C_15  and  N_16
REMARK                            x       y       z     vdW  Elec       q    Type
REMARK                         _______ _______ _______ _____ _____    ______ ____
ROOT
ATOM      1  C   UNL     1      -9.101  -1.122 123.518  0.00  0.00    +0.000 C 
ATOM      2  O   UNL     1      -9.872  -1.070 122.579  0.00  0.00    +0.000 OA
ENDROOT
BRANCH   1   3
ATOM      3  C   UNL     1      -7.846  -1.928 123.488  0.00  0.00    +0.000 A 
ATOM      4  C   UNL     1      -7.668  -3.031 124.336  0.00  0.00    +0.000 A 
ATOM      5 CL   UNL     1      -8.935  -3.669 125.326  0.00  0.00    +0.000 Cl
ATOM      6  C   UNL     1      -6.439  -3.716 124.372  0.00  0.00    +0.000 A 
ATOM      7  C   UNL     1      -5.379  -3.337 123.548  0.00  0.00    +0.000 A 
ATOM      8  C   UNL     1      -5.556  -2.233 122.712  0.00  0.00    +0.000 A 
ATOM      9  C   UNL     1      -6.775  -1.532 122.675  0.00  0.00    +0.000 A 
BRANCH   7  10
ATOM     10  N   UNL     1      -4.167  -4.002 123.593  0.00  0.00    +0.000 N 
ATOM     11  H   UNL     1      -4.076  -4.949 123.249  0.00  0.00    +0.000 HD
ATOM     12  H   UNL     1      -3.315  -3.506 123.818  0.00  0.00    +0.000 HD
ENDBRANCH   7  10
ENDBRANCH   1   3
BRANCH   1  13
ATOM     13  O   UNL     1      -9.266  -0.465 124.710  0.00  0.00    +0.000 OA
BRANCH  13  14
ATOM     14  C   UNL     1      -8.950   0.945 124.611  0.00  0.00    +0.000 C 
BRANCH  14  15
ATOM     15  C   UNL     1      -7.831   1.368 125.595  0.00  0.00    +0.000 C 
BRANCH  15  16
ATOM     16  N   UNL     1      -6.464   1.504 124.988  0.00  0.00    +0.000 NA
BRANCH  16  18
ATOM     17  C   UNL     1      -5.072   3.611 125.392  0.00  0.00    +0.000 C 
ATOM     18  C   UNL     1      -6.222   2.928 124.651  0.00  0.00    +0.000 C 
ENDBRANCH  16  18
BRANCH  16  19
ATOM     19  C   UNL     1      -5.449   0.944 125.906  0.00  0.00    +0.000 C 
ATOM     20  C   UNL     1      -5.514  -0.552 126.182  0.00  0.00    +0.000 C 
ENDBRANCH  16  19
ENDBRANCH  15  16
ENDBRANCH  14  15
ENDBRANCH  13  14
ENDBRANCH   1  13
TORSDOF 8
ENDMDL
