MODEL 1
REMARK VINA RESULT:      -2.7      0.000      0.000
REMARK  Name = Chloroform
REMARK  0 active torsions:
REMARK  status: ('A' for Active; 'I' for Inactive)
REMARK                            x       y       z     vdW  Elec       q    Type
REMARK                         _______ _______ _______ _____ _____    ______ ____
ROOT
ATOM      1 CL   UNL     1     -13.073   9.843 129.356  0.00  0.00    +0.000 Cl
ATOM      2  C   UNL     1     -12.453   8.303 128.740  0.00  0.00    +0.000 C 
ATOM      3 CL   UNL     1     -13.620   7.560 127.632  0.00  0.00    +0.000 Cl
ATOM      4 CL   UNL     1     -10.893   8.537 127.934  0.00  0.00    +0.000 Cl
ENDROOT
TORSDOF 0
ENDMDL
MODEL 2
REMARK VINA RESULT:      -2.7      0.829      2.219
REMARK  Name = Chloroform
REMARK  0 active torsions:
REMARK  status: ('A' for Active; 'I' for Inactive)
REMARK                            x       y       z     vdW  Elec       q    Type
REMARK                         _______ _______ _______ _____ _____    ______ ____
ROOT
ATOM      1 CL   UNL     1     -12.710   8.608 130.237  0.00  0.00    +0.000 Cl
ATOM      2  C   UNL     1     -12.559   8.777 128.480  0.00  0.00    +0.000 C 
ATOM      3 CL   UNL     1     -10.881   8.521 127.972  0.00  0.00    +0.000 Cl
ATOM      4 CL   UNL     1     -13.640   7.645 127.650  0.00  0.00    +0.000 Cl
ENDROOT
TORSDOF 0
ENDMDL
MODEL 3
REMARK VINA RESULT:      -2.7      0.819      2.078
REMARK  Name = Chloroform
REMARK  0 active torsions:
REMARK  status: ('A' for Active; 'I' for Inactive)
REMARK                            x       y       z     vdW  Elec       q    Type
REMARK                         _______ _______ _______ _____ _____    ______ ____
ROOT
ATOM      1 CL   UNL     1     -13.733   7.590 127.714  0.00  0.00    +0.000 Cl
ATOM      2  C   UNL     1     -12.630   8.754 128.466  0.00  0.00    +0.000 C 
ATOM      3 CL   UNL     1     -12.716   8.641 130.232  0.00  0.00    +0.000 Cl
ATOM      4 CL   UNL     1     -10.970   8.491 127.905  0.00  0.00    +0.000 Cl
ENDROOT
TORSDOF 0
ENDMDL
MODEL 4
REMARK VINA RESULT:      -2.7      0.152      2.517
REMARK  Name = Chloroform
REMARK  0 active torsions:
REMARK  status: ('A' for Active; 'I' for Inactive)
REMARK                            x       y       z     vdW  Elec       q    Type
REMARK                         _______ _______ _______ _____ _____    ______ ____
ROOT
ATOM      1 CL   UNL     1     -10.857   8.603 128.109  0.00  0.00    +0.000 Cl
ATOM      2  C   UNL     1     -12.447   8.387 128.860  0.00  0.00    +0.000 C 
ATOM      3 CL   UNL     1     -13.073   9.936 129.450  0.00  0.00    +0.000 Cl
ATOM      4 CL   UNL     1     -13.582   7.651 127.716  0.00  0.00    +0.000 Cl
ENDROOT
TORSDOF 0
ENDMDL
MODEL 5
REMARK VINA RESULT:      -2.7      0.789      2.086
REMARK  Name = Chloroform
REMARK  0 active torsions:
REMARK  status: ('A' for Active; 'I' for Inactive)
REMARK                            x       y       z     vdW  Elec       q    Type
REMARK                         _______ _______ _______ _____ _____    ______ ____
ROOT
ATOM      1 CL   UNL     1     -10.808   8.540 127.982  0.00  0.00    +0.000 Cl
ATOM      2  C   UNL     1     -12.510   8.743 128.426  0.00  0.00    +0.000 C 
ATOM      3 CL   UNL     1     -13.510   7.506 127.644  0.00  0.00    +0.000 Cl
ATOM      4 CL   UNL     1     -12.707   8.681 130.185  0.00  0.00    +0.000 Cl
ENDROOT
TORSDOF 0
ENDMDL
MODEL 6
REMARK VINA RESULT:      -2.7      0.139      2.537
REMARK  Name = Chloroform
REMARK  0 active torsions:
REMARK  status: ('A' for Active; 'I' for Inactive)
REMARK                            x       y       z     vdW  Elec       q    Type
REMARK                         _______ _______ _______ _____ _____    ______ ____
ROOT
ATOM      1 CL   UNL     1     -13.547   7.586 127.744  0.00  0.00    +0.000 Cl
ATOM      2  C   UNL     1     -12.406   8.351 128.862  0.00  0.00    +0.000 C 
ATOM      3 CL   UNL     1     -10.834   8.590 128.080  0.00  0.00    +0.000 Cl
ATOM      4 CL   UNL     1     -13.049   9.893 129.451  0.00  0.00    +0.000 Cl
ENDROOT
TORSDOF 0
ENDMDL
MODEL 7
REMARK VINA RESULT:      -2.6      1.650      2.481
REMARK  Name = Chloroform
REMARK  0 active torsions:
REMARK  status: ('A' for Active; 'I' for Inactive)
REMARK                            x       y       z     vdW  Elec       q    Type
REMARK                         _______ _______ _______ _____ _____    ______ ____
ROOT
ATOM      1 CL   UNL     1     -13.000   9.695 129.338  0.00  0.00    +0.000 Cl
ATOM      2  C   UNL     1     -12.682   7.963 129.530  0.00  0.00    +0.000 C 
ATOM      3 CL   UNL     1     -12.932   7.466 131.212  0.00  0.00    +0.000 Cl
ATOM      4 CL   UNL     1     -13.712   7.016 128.442  0.00  0.00    +0.000 Cl
ENDROOT
TORSDOF 0
ENDMDL
MODEL 8
REMARK VINA RESULT:      -2.6      1.644      2.915
REMARK  Name = Chloroform
REMARK  0 active torsions:
REMARK  status: ('A' for Active; 'I' for Inactive)
REMARK                            x       y       z     vdW  Elec       q    Type
REMARK                         _______ _______ _______ _____ _____    ______ ____
ROOT
ATOM      1 CL   UNL     1     -13.658   7.336 128.406  0.00  0.00    +0.000 Cl
ATOM      2  C   UNL     1     -12.685   8.214 129.597  0.00  0.00    +0.000 C 
ATOM      3 CL   UNL     1     -13.077   9.942 129.570  0.00  0.00    +0.000 Cl
ATOM      4 CL   UNL     1     -12.934   7.546 131.219  0.00  0.00    +0.000 Cl
ENDROOT
TORSDOF 0
ENDMDL
MODEL 9
REMARK VINA RESULT:      -2.6     14.061     14.638
REMARK  Name = Chloroform
REMARK  0 active torsions:
REMARK  status: ('A' for Active; 'I' for Inactive)
REMARK                            x       y       z     vdW  Elec       q    Type
REMARK                         _______ _______ _______ _____ _____    ______ ____
ROOT
ATOM      1 CL   UNL     1      -7.388  -3.899 124.406  0.00  0.00    +0.000 Cl
ATOM      2  C   UNL     1      -5.791  -3.245 124.011  0.00  0.00    +0.000 C 
ATOM      3 CL   UNL     1      -4.633  -4.556 123.730  0.00  0.00    +0.000 Cl
ATOM      4 CL   UNL     1      -5.885  -2.184 122.595  0.00  0.00    +0.000 Cl
ENDROOT
TORSDOF 0
ENDMDL
