MODEL 1
REMARK VINA RESULT:      -6.3      0.000      0.000
REMARK  Name = Chloroquine
REMARK  11 active torsions:
REMARK  status: ('A' for Active; 'I' for Inactive)
REMARK    1  A    between atoms: C_1  and  C_2
REMARK    2  A    between atoms: C_2  and  N_3
REMARK    3  A    between atoms: N_3  and  C_4
REMARK    4  A    between atoms: N_3  and  C_6
REMARK    5  A    between atoms: C_4  and  C_5
REMARK    6  A    between atoms: C_6  and  C_7
REMARK    7  A    between atoms: C_7  and  C_8
REMARK    8  A    between atoms: C_8  and  C_9
REMARK    9  A    between atoms: C_9  and  C_10
REMARK   10  A    between atoms: C_9  and  N_11
REMARK   11  A    between atoms: N_11  and  C_12
REMARK                            x       y       z     vdW  Elec       q    Type
REMARK                         _______ _______ _______ _____ _____    ______ ____
ROOT
ATOM      1  N   UNL     1      -7.392   2.653 124.000  0.00  0.00    +0.000 N 
ATOM      2  H   UNL     1      -7.710   3.080 124.867  0.00  0.00    +0.000 HD
ENDROOT
BRANCH   1   3
ATOM      3  C   UNL     1      -8.167   1.540 123.609  0.00  0.00    +0.000 A 
ATOM      4  C   UNL     1      -9.418   1.707 123.004  0.00  0.00    +0.000 A 
ATOM      5  C   UNL     1     -10.136   0.575 122.627  0.00  0.00    +0.000 A 
ATOM      6  N   UNL     1      -9.683  -0.700 122.716  0.00  0.00    +0.000 NA
ATOM      7  C   UNL     1      -8.467  -0.887 123.268  0.00  0.00    +0.000 A 
ATOM      8  C   UNL     1      -7.914  -2.174 123.382  0.00  0.00    +0.000 A 
ATOM      9  C   UNL     1      -6.623  -2.366 123.890  0.00  0.00    +0.000 A 
ATOM     10 CL   UNL     1      -5.910  -3.924 123.988  0.00  0.00    +0.000 Cl
ATOM     11  C   UNL     1      -5.959  -1.313 124.455  0.00  0.00    +0.000 A 
ATOM     12  C   UNL     1      -6.662  -0.133 124.601  0.00  0.00    +0.000 A 
ATOM     13  C   UNL     1      -7.754   0.189 123.793  0.00  0.00    +0.000 A 
ENDBRANCH   1   3
BRANCH   1  14
ATOM     14  C   UNL     1      -6.744   3.627 123.058  0.00  0.00    +0.000 C 
ATOM     15  C   UNL     1      -6.196   2.971 121.792  0.00  0.00    +0.000 C 
BRANCH  14  16
ATOM     16  C   UNL     1      -5.532   4.293 123.764  0.00  0.00    +0.000 C 
BRANCH  16  17
ATOM     17  C   UNL     1      -5.271   3.595 125.101  0.00  0.00    +0.000 C 
BRANCH  17  18
ATOM     18  C   UNL     1      -4.933   4.502 126.257  0.00  0.00    +0.000 C 
BRANCH  18  19
ATOM     19  N   UNL     1      -4.179   3.778 127.319  0.00  0.00    +0.000 NA
BRANCH  19  21
ATOM     20  C   UNL     1      -1.812   3.123 126.691  0.00  0.00    +0.000 C 
ATOM     21  C   UNL     1      -3.299   2.822 126.624  0.00  0.00    +0.000 C 
ENDBRANCH  19  21
BRANCH  19  22
ATOM     22  C   UNL     1      -3.451   4.717 128.211  0.00  0.00    +0.000 C 
ATOM     23  C   UNL     1      -3.506   6.198 127.852  0.00  0.00    +0.000 C 
ENDBRANCH  19  22
ENDBRANCH  18  19
ENDBRANCH  17  18
ENDBRANCH  16  17
ENDBRANCH  14  16
ENDBRANCH   1  14
TORSDOF 8
ENDMDL
MODEL 2
REMARK VINA RESULT:      -6.1      7.875     10.422
REMARK  Name = Chloroquine
REMARK  11 active torsions:
REMARK  status: ('A' for Active; 'I' for Inactive)
REMARK    1  A    between atoms: C_1  and  C_2
REMARK    2  A    between atoms: C_2  and  N_3
REMARK    3  A    between atoms: N_3  and  C_4
REMARK    4  A    between atoms: N_3  and  C_6
REMARK    5  A    between atoms: C_4  and  C_5
REMARK    6  A    between atoms: C_6  and  C_7
REMARK    7  A    between atoms: C_7  and  C_8
REMARK    8  A    between atoms: C_8  and  C_9
REMARK    9  A    between atoms: C_9  and  C_10
REMARK   10  A    between atoms: C_9  and  N_11
REMARK   11  A    between atoms: N_11  and  C_12
REMARK                            x       y       z     vdW  Elec       q    Type
REMARK                         _______ _______ _______ _____ _____    ______ ____
ROOT
ATOM      1  N   UNL     1      -9.672   4.811 133.416  0.00  0.00    +0.000 N 
ATOM      2  H   UNL     1      -9.725   5.255 134.330  0.00  0.00    +0.000 HD
ENDROOT
BRANCH   1   3
ATOM      3  C   UNL     1      -9.238   5.686 132.397  0.00  0.00    +0.000 A 
ATOM      4  C   UNL     1      -7.876   5.926 132.182  0.00  0.00    +0.000 A 
ATOM      5  C   UNL     1      -7.502   6.789 131.155  0.00  0.00    +0.000 A 
ATOM      6  N   UNL     1      -8.353   7.360 130.269  0.00  0.00    +0.000 NA
ATOM      7  C   UNL     1      -9.670   7.121 130.435  0.00  0.00    +0.000 A 
ATOM      8  C   UNL     1     -10.620   7.659 129.549  0.00  0.00    +0.000 A 
ATOM      9  C   UNL     1     -11.982   7.355 129.676  0.00  0.00    +0.000 A 
ATOM     10 CL   UNL     1     -13.151   7.960 128.574  0.00  0.00    +0.000 Cl
ATOM     11  C   UNL     1     -12.420   6.679 130.780  0.00  0.00    +0.000 A 
ATOM     12  C   UNL     1     -11.495   6.438 131.777  0.00  0.00    +0.000 A 
ATOM     13  C   UNL     1     -10.124   6.380 131.523  0.00  0.00    +0.000 A 
ENDBRANCH   1   3
BRANCH   1  14
ATOM     14  C   UNL     1      -9.365   3.343 133.482  0.00  0.00    +0.000 C 
ATOM     15  C   UNL     1      -7.900   3.046 133.801  0.00  0.00    +0.000 C 
BRANCH  14  16
ATOM     16  C   UNL     1      -9.650   2.696 132.100  0.00  0.00    +0.000 C 
BRANCH  16  17
ATOM     17  C   UNL     1      -8.544   1.693 131.764  0.00  0.00    +0.000 C 
BRANCH  17  18
ATOM     18  C   UNL     1      -8.989   0.263 131.591  0.00  0.00    +0.000 C 
BRANCH  18  19
ATOM     19  N   UNL     1      -7.826  -0.657 131.441  0.00  0.00    +0.000 NA
BRANCH  19  21
ATOM     20  C   UNL     1      -6.429  -0.877 133.544  0.00  0.00    +0.000 C 
ATOM     21  C   UNL     1      -7.646  -1.313 132.747  0.00  0.00    +0.000 C 
ENDBRANCH  19  21
BRANCH  19  22
ATOM     22  C   UNL     1      -8.024  -1.610 130.318  0.00  0.00    +0.000 C 
ATOM     23  C   UNL     1      -7.315  -2.956 130.417  0.00  0.00    +0.000 C 
ENDBRANCH  19  22
ENDBRANCH  18  19
ENDBRANCH  17  18
ENDBRANCH  16  17
ENDBRANCH  14  16
ENDBRANCH   1  14
TORSDOF 8
ENDMDL
MODEL 3
REMARK VINA RESULT:      -6.0      6.534      9.350
REMARK  Name = Chloroquine
REMARK  11 active torsions:
REMARK  status: ('A' for Active; 'I' for Inactive)
REMARK    1  A    between atoms: C_1  and  C_2
REMARK    2  A    between atoms: C_2  and  N_3
REMARK    3  A    between atoms: N_3  and  C_4
REMARK    4  A    between atoms: N_3  and  C_6
REMARK    5  A    between atoms: C_4  and  C_5
REMARK    6  A    between atoms: C_6  and  C_7
REMARK    7  A    between atoms: C_7  and  C_8
REMARK    8  A    between atoms: C_8  and  C_9
REMARK    9  A    between atoms: C_9  and  C_10
REMARK   10  A    between atoms: C_9  and  N_11
REMARK   11  A    between atoms: N_11  and  C_12
REMARK                            x       y       z     vdW  Elec       q    Type
REMARK                         _______ _______ _______ _____ _____    ______ ____
ROOT
ATOM      1  N   UNL     1      -5.973   5.647 131.299  0.00  0.00    +0.000 N 
ATOM      2  H   UNL     1      -5.982   4.632 131.227  0.00  0.00    +0.000 HD
ENDROOT
BRANCH   1   3
ATOM      3  C   UNL     1      -5.062   6.260 130.411  0.00  0.00    +0.000 A 
ATOM      4  C   UNL     1      -4.848   7.643 130.436  0.00  0.00    +0.000 A 
ATOM      5  C   UNL     1      -3.930   8.194 129.545  0.00  0.00    +0.000 A 
ATOM      6  N   UNL     1      -3.143   7.485 128.700  0.00  0.00    +0.000 NA
ATOM      7  C   UNL     1      -3.308   6.146 128.678  0.00  0.00    +0.000 A 
ATOM      8  C   UNL     1      -2.520   5.334 127.844  0.00  0.00    +0.000 A 
ATOM      9  C   UNL     1      -2.640   3.938 127.870  0.00  0.00    +0.000 A 
ATOM     10 CL   UNL     1      -1.651   2.927 126.897  0.00  0.00    +0.000 Cl
ATOM     11  C   UNL     1      -3.659   3.363 128.575  0.00  0.00    +0.000 A 
ATOM     12  C   UNL     1      -4.596   4.213 129.131  0.00  0.00    +0.000 A 
ATOM     13  C   UNL     1      -4.305   5.543 129.441  0.00  0.00    +0.000 A 
ENDBRANCH   1   3
BRANCH   1  14
ATOM     14  C   UNL     1      -7.293   6.227 131.719  0.00  0.00    +0.000 C 
ATOM     15  C   UNL     1      -7.823   5.640 133.026  0.00  0.00    +0.000 C 
BRANCH  14  16
ATOM     16  C   UNL     1      -8.358   5.912 130.635  0.00  0.00    +0.000 C 
BRANCH  16  17
ATOM     17  C   UNL     1      -9.157   7.179 130.317  0.00  0.00    +0.000 C 
BRANCH  17  18
ATOM     18  C   UNL     1     -10.656   7.040 130.386  0.00  0.00    +0.000 C 
BRANCH  18  19
ATOM     19  N   UNL     1     -11.336   7.962 129.430  0.00  0.00    +0.000 NA
BRANCH  19  21
ATOM     20  C   UNL     1     -10.912   7.865 126.933  0.00  0.00    +0.000 C 
ATOM     21  C   UNL     1     -11.495   7.210 128.173  0.00  0.00    +0.000 C 
ENDBRANCH  19  21
BRANCH  19  22
ATOM     22  C   UNL     1     -12.615   8.477 129.983  0.00  0.00    +0.000 C 
ATOM     23  C   UNL     1     -13.093   9.833 129.478  0.00  0.00    +0.000 C 
ENDBRANCH  19  22
ENDBRANCH  18  19
ENDBRANCH  17  18
ENDBRANCH  16  17
ENDBRANCH  14  16
ENDBRANCH   1  14
TORSDOF 8
ENDMDL
MODEL 4
REMARK VINA RESULT:      -6.0      2.815      6.741
REMARK  Name = Chloroquine
REMARK  11 active torsions:
REMARK  status: ('A' for Active; 'I' for Inactive)
REMARK    1  A    between atoms: C_1  and  C_2
REMARK    2  A    between atoms: C_2  and  N_3
REMARK    3  A    between atoms: N_3  and  C_4
REMARK    4  A    between atoms: N_3  and  C_6
REMARK    5  A    between atoms: C_4  and  C_5
REMARK    6  A    between atoms: C_6  and  C_7
REMARK    7  A    between atoms: C_7  and  C_8
REMARK    8  A    between atoms: C_8  and  C_9
REMARK    9  A    between atoms: C_9  and  C_10
REMARK   10  A    between atoms: C_9  and  N_11
REMARK   11  A    between atoms: N_11  and  C_12
REMARK                            x       y       z     vdW  Elec       q    Type
REMARK                         _______ _______ _______ _____ _____    ______ ____
ROOT
ATOM      1  N   UNL     1      -5.185  -0.035 126.466  0.00  0.00    +0.000 N 
ATOM      2  H   UNL     1      -5.317  -0.654 125.669  0.00  0.00    +0.000 HD
ENDROOT
BRANCH   1   3
ATOM      3  C   UNL     1      -5.135   1.330 126.110  0.00  0.00    +0.000 A 
ATOM      4  C   UNL     1      -4.213   2.199 126.703  0.00  0.00    +0.000 A 
ATOM      5  C   UNL     1      -4.200   3.534 126.306  0.00  0.00    +0.000 A 
ATOM      6  N   UNL     1      -4.956   4.058 125.310  0.00  0.00    +0.000 NA
ATOM      7  C   UNL     1      -5.832   3.233 124.700  0.00  0.00    +0.000 A 
ATOM      8  C   UNL     1      -6.641   3.690 123.645  0.00  0.00    +0.000 A 
ATOM      9  C   UNL     1      -7.501   2.820 122.963  0.00  0.00    +0.000 A 
ATOM     10 CL   UNL     1      -8.458   3.346 121.639  0.00  0.00    +0.000 Cl
ATOM     11  C   UNL     1      -7.697   1.555 123.442  0.00  0.00    +0.000 A 
ATOM     12  C   UNL     1      -7.118   1.248 124.658  0.00  0.00    +0.000 A 
ATOM     13  C   UNL     1      -5.996   1.922 125.141  0.00  0.00    +0.000 A 
ENDBRANCH   1   3
BRANCH   1  14
ATOM     14  C   UNL     1      -5.767  -0.574 127.742  0.00  0.00    +0.000 C 
ATOM     15  C   UNL     1      -5.049  -1.821 128.254  0.00  0.00    +0.000 C 
BRANCH  14  16
ATOM     16  C   UNL     1      -7.242  -0.989 127.496  0.00  0.00    +0.000 C 
BRANCH  16  17
ATOM     17  C   UNL     1      -7.301  -2.470 127.113  0.00  0.00    +0.000 C 
BRANCH  17  18
ATOM     18  C   UNL     1      -7.858  -2.768 125.744  0.00  0.00    +0.000 C 
BRANCH  18  19
ATOM     19  N   UNL     1      -6.971  -2.244 124.666  0.00  0.00    +0.000 NA
BRANCH  19  21
ATOM     20  C   UNL     1      -4.970  -3.157 123.407  0.00  0.00    +0.000 C 
ATOM     21  C   UNL     1      -5.741  -3.053 124.711  0.00  0.00    +0.000 C 
ENDBRANCH  19  21
BRANCH  19  22
ATOM     22  C   UNL     1      -7.648  -2.262 123.344  0.00  0.00    +0.000 C 
ATOM     23  C   UNL     1      -9.015  -2.934 123.273  0.00  0.00    +0.000 C 
ENDBRANCH  19  22
ENDBRANCH  18  19
ENDBRANCH  17  18
ENDBRANCH  16  17
ENDBRANCH  14  16
ENDBRANCH   1  14
TORSDOF 8
ENDMDL
MODEL 5
REMARK VINA RESULT:      -6.0      8.269     10.298
REMARK  Name = Chloroquine
REMARK  11 active torsions:
REMARK  status: ('A' for Active; 'I' for Inactive)
REMARK    1  A    between atoms: C_1  and  C_2
REMARK    2  A    between atoms: C_2  and  N_3
REMARK    3  A    between atoms: N_3  and  C_4
REMARK    4  A    between atoms: N_3  and  C_6
REMARK    5  A    between atoms: C_4  and  C_5
REMARK    6  A    between atoms: C_6  and  C_7
REMARK    7  A    between atoms: C_7  and  C_8
REMARK    8  A    between atoms: C_8  and  C_9
REMARK    9  A    between atoms: C_9  and  C_10
REMARK   10  A    between atoms: C_9  and  N_11
REMARK   11  A    between atoms: N_11  and  C_12
REMARK                            x       y       z     vdW  Elec       q    Type
REMARK                         _______ _______ _______ _____ _____    ______ ____
ROOT
ATOM      1  N   UNL     1     -10.614   3.036 131.549  0.00  0.00    +0.000 N 
ATOM      2  H   UNL     1     -11.500   2.538 131.607  0.00  0.00    +0.000 HD
ENDROOT
BRANCH   1   3
ATOM      3  C   UNL     1      -9.530   2.308 132.085  0.00  0.00    +0.000 A 
ATOM      4  C   UNL     1      -9.226   1.021 131.625  0.00  0.00    +0.000 A 
ATOM      5  C   UNL     1      -8.138   0.352 132.181  0.00  0.00    +0.000 A 
ATOM      6  N   UNL     1      -7.275   0.882 133.083  0.00  0.00    +0.000 NA
ATOM      7  C   UNL     1      -7.529   2.132 133.520  0.00  0.00    +0.000 A 
ATOM      8  C   UNL     1      -6.675   2.763 134.441  0.00  0.00    +0.000 A 
ATOM      9  C   UNL     1      -6.896   4.087 134.844  0.00  0.00    +0.000 A 
ATOM     10 CL   UNL     1      -5.835   4.893 135.927  0.00  0.00    +0.000 Cl
ATOM     11  C   UNL     1      -8.055   4.715 134.484  0.00  0.00    +0.000 A 
ATOM     12  C   UNL     1      -9.007   3.953 133.836  0.00  0.00    +0.000 A 
ATOM     13  C   UNL     1      -8.677   2.806 133.111  0.00  0.00    +0.000 A 
ENDBRANCH   1   3
BRANCH   1  14
ATOM     14  C   UNL     1     -10.531   3.970 130.376  0.00  0.00    +0.000 C 
ATOM     15  C   UNL     1      -9.106   4.169 129.861  0.00  0.00    +0.000 C 
BRANCH  14  16
ATOM     16  C   UNL     1     -11.041   5.373 130.801  0.00  0.00    +0.000 C 
BRANCH  16  17
ATOM     17  C   UNL     1     -12.004   5.912 129.740  0.00  0.00    +0.000 C 
BRANCH  17  18
ATOM     18  C   UNL     1     -12.434   7.346 129.916  0.00  0.00    +0.000 C 
BRANCH  18  19
ATOM     19  N   UNL     1     -12.395   8.091 128.626  0.00  0.00    +0.000 NA
BRANCH  19  21
ATOM     20  C   UNL     1     -13.133   9.763 130.382  0.00  0.00    +0.000 C 
ATOM     21  C   UNL     1     -12.890   9.448 128.917  0.00  0.00    +0.000 C 
ENDBRANCH  19  21
BRANCH  19  22
ATOM     22  C   UNL     1     -11.039   8.069 128.021  0.00  0.00    +0.000 C 
ATOM     23  C   UNL     1     -10.941   7.683 126.549  0.00  0.00    +0.000 C 
ENDBRANCH  19  22
ENDBRANCH  18  19
ENDBRANCH  17  18
ENDBRANCH  16  17
ENDBRANCH  14  16
ENDBRANCH   1  14
TORSDOF 8
ENDMDL
MODEL 6
REMARK VINA RESULT:      -5.9      4.789      7.597
REMARK  Name = Chloroquine
REMARK  11 active torsions:
REMARK  status: ('A' for Active; 'I' for Inactive)
REMARK    1  A    between atoms: C_1  and  C_2
REMARK    2  A    between atoms: C_2  and  N_3
REMARK    3  A    between atoms: N_3  and  C_4
REMARK    4  A    between atoms: N_3  and  C_6
REMARK    5  A    between atoms: C_4  and  C_5
REMARK    6  A    between atoms: C_6  and  C_7
REMARK    7  A    between atoms: C_7  and  C_8
REMARK    8  A    between atoms: C_8  and  C_9
REMARK    9  A    between atoms: C_9  and  C_10
REMARK   10  A    between atoms: C_9  and  N_11
REMARK   11  A    between atoms: N_11  and  C_12
REMARK                            x       y       z     vdW  Elec       q    Type
REMARK                         _______ _______ _______ _____ _____    ______ ____
ROOT
ATOM      1  N   UNL     1      -7.507  -2.198 126.966  0.00  0.00    +0.000 N 
ATOM      2  H   UNL     1      -7.022  -1.738 126.199  0.00  0.00    +0.000 HD
ENDROOT
BRANCH   1   3
ATOM      3  C   UNL     1      -7.377  -1.516 128.195  0.00  0.00    +0.000 A 
ATOM      4  C   UNL     1      -7.751  -0.173 128.320  0.00  0.00    +0.000 A 
ATOM      5  C   UNL     1      -7.613   0.448 129.558  0.00  0.00    +0.000 A 
ATOM      6  N   UNL     1      -7.225  -0.170 130.701  0.00  0.00    +0.000 NA
ATOM      7  C   UNL     1      -6.888  -1.473 130.615  0.00  0.00    +0.000 A 
ATOM      8  C   UNL     1      -6.492  -2.194 131.754  0.00  0.00    +0.000 A 
ATOM      9  C   UNL     1      -6.209  -3.564 131.682  0.00  0.00    +0.000 A 
ATOM     10 CL   UNL     1      -5.774  -4.474 133.071  0.00  0.00    +0.000 Cl
ATOM     11  C   UNL     1      -6.135  -4.172 130.460  0.00  0.00    +0.000 A 
ATOM     12  C   UNL     1      -6.228  -3.359 129.347  0.00  0.00    +0.000 A 
ATOM     13  C   UNL     1      -6.869  -2.120 129.381  0.00  0.00    +0.000 A 
ENDBRANCH   1   3
BRANCH   1  14
ATOM     14  C   UNL     1      -8.721  -2.967 126.529  0.00  0.00    +0.000 C 
ATOM     15  C   UNL     1      -9.193  -3.989 127.562  0.00  0.00    +0.000 C 
BRANCH  14  16
ATOM     16  C   UNL     1      -8.384  -3.768 125.244  0.00  0.00    +0.000 C 
BRANCH  16  17
ATOM     17  C   UNL     1      -9.272  -3.289 124.093  0.00  0.00    +0.000 C 
BRANCH  17  18
ATOM     18  C   UNL     1      -8.579  -2.483 123.024  0.00  0.00    +0.000 C 
BRANCH  18  19
ATOM     19  N   UNL     1      -7.507  -1.621 123.599  0.00  0.00    +0.000 NA
BRANCH  19  21
ATOM     20  C   UNL     1      -5.302  -2.867 123.472  0.00  0.00    +0.000 C 
ATOM     21  C   UNL     1      -6.286  -1.908 122.825  0.00  0.00    +0.000 C 
ENDBRANCH  19  21
BRANCH  19  22
ATOM     22  C   UNL     1      -7.894  -0.187 123.591  0.00  0.00    +0.000 C 
ATOM     23  C   UNL     1      -8.806   0.292 124.714  0.00  0.00    +0.000 C 
ENDBRANCH  19  22
ENDBRANCH  18  19
ENDBRANCH  17  18
ENDBRANCH  16  17
ENDBRANCH  14  16
ENDBRANCH   1  14
TORSDOF 8
ENDMDL
MODEL 7
REMARK VINA RESULT:      -5.9      3.201      6.293
REMARK  Name = Chloroquine
REMARK  11 active torsions:
REMARK  status: ('A' for Active; 'I' for Inactive)
REMARK    1  A    between atoms: C_1  and  C_2
REMARK    2  A    between atoms: C_2  and  N_3
REMARK    3  A    between atoms: N_3  and  C_4
REMARK    4  A    between atoms: N_3  and  C_6
REMARK    5  A    between atoms: C_4  and  C_5
REMARK    6  A    between atoms: C_6  and  C_7
REMARK    7  A    between atoms: C_7  and  C_8
REMARK    8  A    between atoms: C_8  and  C_9
REMARK    9  A    between atoms: C_9  and  C_10
REMARK   10  A    between atoms: C_9  and  N_11
REMARK   11  A    between atoms: N_11  and  C_12
REMARK                            x       y       z     vdW  Elec       q    Type
REMARK                         _______ _______ _______ _____ _____    ______ ____
ROOT
ATOM      1  N   UNL     1      -8.389   2.024 126.736  0.00  0.00    +0.000 N 
ATOM      2  H   UNL     1      -7.820   2.800 127.067  0.00  0.00    +0.000 HD
ENDROOT
BRANCH   1   3
ATOM      3  C   UNL     1      -8.561   2.018 125.335  0.00  0.00    +0.000 A 
ATOM      4  C   UNL     1      -9.712   1.477 124.750  0.00  0.00    +0.000 A 
ATOM      5  C   UNL     1      -9.835   1.507 123.363  0.00  0.00    +0.000 A 
ATOM      6  N   UNL     1      -8.963   2.107 122.516  0.00  0.00    +0.000 NA
ATOM      7  C   UNL     1      -7.860   2.663 123.057  0.00  0.00    +0.000 A 
ATOM      8  C   UNL     1      -6.913   3.320 122.253  0.00  0.00    +0.000 A 
ATOM      9  C   UNL     1      -5.802   3.960 122.818  0.00  0.00    +0.000 A 
ATOM     10 CL   UNL     1      -4.662   4.813 121.858  0.00  0.00    +0.000 Cl
ATOM     11  C   UNL     1      -5.531   3.788 124.146  0.00  0.00    +0.000 A 
ATOM     12  C   UNL     1      -6.314   2.883 124.835  0.00  0.00    +0.000 A 
ATOM     13  C   UNL     1      -7.605   2.547 124.421  0.00  0.00    +0.000 A 
ENDBRANCH   1   3
BRANCH   1  14
ATOM     14  C   UNL     1      -8.288   0.799 127.599  0.00  0.00    +0.000 C 
ATOM     15  C   UNL     1      -8.015   1.116 129.068  0.00  0.00    +0.000 C 
BRANCH  14  16
ATOM     16  C   UNL     1      -7.099  -0.072 127.113  0.00  0.00    +0.000 C 
BRANCH  16  17
ATOM     17  C   UNL     1      -7.615  -1.444 126.671  0.00  0.00    +0.000 C 
BRANCH  17  18
ATOM     18  C   UNL     1      -7.498  -1.743 125.198  0.00  0.00    +0.000 C 
BRANCH  18  19
ATOM     19  N   UNL     1      -7.527  -3.210 124.933  0.00  0.00    +0.000 NA
BRANCH  19  21
ATOM     20  C   UNL     1      -9.227  -2.429 123.223  0.00  0.00    +0.000 C 
ATOM     21  C   UNL     1      -8.795  -3.478 124.232  0.00  0.00    +0.000 C 
ENDBRANCH  19  21
BRANCH  19  22
ATOM     22  C   UNL     1      -6.325  -3.654 124.182  0.00  0.00    +0.000 C 
ATOM     23  C   UNL     1      -5.345  -2.574 123.738  0.00  0.00    +0.000 C 
ENDBRANCH  19  22
ENDBRANCH  18  19
ENDBRANCH  17  18
ENDBRANCH  16  17
ENDBRANCH  14  16
ENDBRANCH   1  14
TORSDOF 8
ENDMDL
MODEL 8
REMARK VINA RESULT:      -5.9      5.990      8.427
REMARK  Name = Chloroquine
REMARK  11 active torsions:
REMARK  status: ('A' for Active; 'I' for Inactive)
REMARK    1  A    between atoms: C_1  and  C_2
REMARK    2  A    between atoms: C_2  and  N_3
REMARK    3  A    between atoms: N_3  and  C_4
REMARK    4  A    between atoms: N_3  and  C_6
REMARK    5  A    between atoms: C_4  and  C_5
REMARK    6  A    between atoms: C_6  and  C_7
REMARK    7  A    between atoms: C_7  and  C_8
REMARK    8  A    between atoms: C_8  and  C_9
REMARK    9  A    between atoms: C_9  and  C_10
REMARK   10  A    between atoms: C_9  and  N_11
REMARK   11  A    between atoms: N_11  and  C_12
REMARK                            x       y       z     vdW  Elec       q    Type
REMARK                         _______ _______ _______ _____ _____    ______ ____
ROOT
ATOM      1  N   UNL     1      -7.600  -3.058 128.517  0.00  0.00    +0.000 N 
ATOM      2  H   UNL     1      -6.832  -3.661 128.229  0.00  0.00    +0.000 HD
ENDROOT
BRANCH   1   3
ATOM      3  C   UNL     1      -7.470  -2.583 129.839  0.00  0.00    +0.000 A 
ATOM      4  C   UNL     1      -8.099  -1.401 130.248  0.00  0.00    +0.000 A 
ATOM      5  C   UNL     1      -7.947  -0.984 131.568  0.00  0.00    +0.000 A 
ATOM      6  N   UNL     1      -7.304  -1.682 132.537  0.00  0.00    +0.000 NA
ATOM      7  C   UNL     1      -6.715  -2.841 132.176  0.00  0.00    +0.000 A 
ATOM      8  C   UNL     1      -6.044  -3.636 133.121  0.00  0.00    +0.000 A 
ATOM      9  C   UNL     1      -5.491  -4.873 132.765  0.00  0.00    +0.000 A 
ATOM     10 CL   UNL     1      -4.713  -5.882 133.916  0.00  0.00    +0.000 Cl
ATOM     11  C   UNL     1      -5.439  -5.232 131.448  0.00  0.00    +0.000 A 
ATOM     12  C   UNL     1      -5.832  -4.285 130.522  0.00  0.00    +0.000 A 
ATOM     13  C   UNL     1      -6.709  -3.248 130.844  0.00  0.00    +0.000 A 
ENDBRANCH   1   3
BRANCH   1  14
ATOM     14  C   UNL     1      -8.214  -2.292 127.380  0.00  0.00    +0.000 C 
ATOM     15  C   UNL     1      -8.717  -3.187 126.249  0.00  0.00    +0.000 C 
BRANCH  14  16
ATOM     16  C   UNL     1      -7.143  -1.359 126.754  0.00  0.00    +0.000 C 
BRANCH  16  17
ATOM     17  C   UNL     1      -6.010  -2.202 126.164  0.00  0.00    +0.000 C 
BRANCH  17  18
ATOM     18  C   UNL     1      -5.445  -1.712 124.855  0.00  0.00    +0.000 C 
BRANCH  18  19
ATOM     19  N   UNL     1      -5.721  -2.669 123.747  0.00  0.00    +0.000 NA
BRANCH  19  21
ATOM     20  C   UNL     1      -7.691  -1.232 123.053  0.00  0.00    +0.000 C 
ATOM     21  C   UNL     1      -6.374  -1.890 122.680  0.00  0.00    +0.000 C 
ENDBRANCH  19  21
BRANCH  19  22
ATOM     22  C   UNL     1      -4.486  -3.366 123.305  0.00  0.00    +0.000 C 
ATOM     23  C   UNL     1      -4.381  -4.856 123.613  0.00  0.00    +0.000 C 
ENDBRANCH  19  22
ENDBRANCH  18  19
ENDBRANCH  17  18
ENDBRANCH  16  17
ENDBRANCH  14  16
ENDBRANCH   1  14
TORSDOF 8
ENDMDL
MODEL 9
REMARK VINA RESULT:      -5.8      8.221     10.324
REMARK  Name = Chloroquine
REMARK  11 active torsions:
REMARK  status: ('A' for Active; 'I' for Inactive)
REMARK    1  A    between atoms: C_1  and  C_2
REMARK    2  A    between atoms: C_2  and  N_3
REMARK    3  A    between atoms: N_3  and  C_4
REMARK    4  A    between atoms: N_3  and  C_6
REMARK    5  A    between atoms: C_4  and  C_5
REMARK    6  A    between atoms: C_6  and  C_7
REMARK    7  A    between atoms: C_7  and  C_8
REMARK    8  A    between atoms: C_8  and  C_9
REMARK    9  A    between atoms: C_9  and  C_10
REMARK   10  A    between atoms: C_9  and  N_11
REMARK   11  A    between atoms: N_11  and  C_12
REMARK                            x       y       z     vdW  Elec       q    Type
REMARK                         _______ _______ _______ _____ _____    ______ ____
ROOT
ATOM      1  N   UNL     1      -8.978   4.961 129.816  0.00  0.00    +0.000 N 
ATOM      2  H   UNL     1      -8.022   5.256 129.628  0.00  0.00    +0.000 HD
ENDROOT
BRANCH   1   3
ATOM      3  C   UNL     1      -9.079   4.050 130.890  0.00  0.00    +0.000 A 
ATOM      4  C   UNL     1      -9.669   2.793 130.718  0.00  0.00    +0.000 A 
ATOM      5  C   UNL     1      -9.732   1.929 131.809  0.00  0.00    +0.000 A 
ATOM      6  N   UNL     1      -9.181   2.167 133.024  0.00  0.00    +0.000 NA
ATOM      7  C   UNL     1      -8.579   3.360 133.207  0.00  0.00    +0.000 A 
ATOM      8  C   UNL     1      -7.967   3.681 134.430  0.00  0.00    +0.000 A 
ATOM      9  C   UNL     1      -7.280   4.891 134.601  0.00  0.00    +0.000 A 
ATOM     10 CL   UNL     1      -6.481   5.279 136.071  0.00  0.00    +0.000 Cl
ATOM     11  C   UNL     1      -7.360   5.852 133.634  0.00  0.00    +0.000 A 
ATOM     12  C   UNL     1      -8.225   5.615 132.583  0.00  0.00    +0.000 A 
ATOM     13  C   UNL     1      -8.601   4.326 132.203  0.00  0.00    +0.000 A 
ENDBRANCH   1   3
BRANCH   1  14
ATOM     14  C   UNL     1     -10.002   6.002 129.467  0.00  0.00    +0.000 C 
ATOM     15  C   UNL     1      -9.579   7.419 129.853  0.00  0.00    +0.000 C 
BRANCH  14  16
ATOM     16  C   UNL     1     -11.313   5.712 130.246  0.00  0.00    +0.000 C 
BRANCH  16  17
ATOM     17  C   UNL     1     -11.975   7.033 130.646  0.00  0.00    +0.000 C 
BRANCH  17  18
ATOM     18  C   UNL     1     -13.188   7.425 129.841  0.00  0.00    +0.000 C 
BRANCH  18  19
ATOM     19  N   UNL     1     -12.811   8.206 128.628  0.00  0.00    +0.000 NA
BRANCH  19  21
ATOM     20  C   UNL     1     -12.013   7.195 126.445  0.00  0.00    +0.000 C 
ATOM     21  C   UNL     1     -13.122   7.349 127.471  0.00  0.00    +0.000 C 
ENDBRANCH  19  21
BRANCH  19  22
ATOM     22  C   UNL     1     -13.493   9.525 128.593  0.00  0.00    +0.000 C 
ATOM     23  C   UNL     1     -13.291  10.444 129.792  0.00  0.00    +0.000 C 
ENDBRANCH  19  22
ENDBRANCH  18  19
ENDBRANCH  17  18
ENDBRANCH  16  17
ENDBRANCH  14  16
ENDBRANCH   1  14
TORSDOF 8
ENDMDL
