MODEL 1
REMARK VINA RESULT:      -8.8      0.000      0.000
REMARK  Name = Chlorthalidone
REMARK  4 active torsions:
REMARK  status: ('A' for Active; 'I' for Inactive)
REMARK    1  A    between atoms: N_1  and  S_2
REMARK    2  A    between atoms: S_2  and  C_5
REMARK    3  A    between atoms: C_10  and  C_12
REMARK    4  A    between atoms: C_12  and  O_13
REMARK                            x       y       z     vdW  Elec       q    Type
REMARK                         _______ _______ _______ _____ _____    ______ ____
ROOT
ATOM      1  C   UNL     1     -11.265   7.107 128.707  0.00  0.00    +0.000 A 
ATOM      2  C   UNL     1     -12.399   7.737 129.232  0.00  0.00    +0.000 A 
ATOM      3 CL   UNL     1     -13.538   8.686 128.358  0.00  0.00    +0.000 Cl
ATOM      4  C   UNL     1     -12.684   7.607 130.589  0.00  0.00    +0.000 A 
ATOM      5  C   UNL     1     -11.862   6.855 131.411  0.00  0.00    +0.000 A 
ATOM      6  C   UNL     1     -10.684   6.245 130.937  0.00  0.00    +0.000 A 
ATOM      7  C   UNL     1     -10.418   6.337 129.558  0.00  0.00    +0.000 A 
ENDROOT
BRANCH   6   8
ATOM      8  C   UNL     1      -9.794   5.613 131.987  0.00  0.00    +0.000 C 
ATOM      9  N   UNL     1     -10.135   4.286 132.367  0.00  0.00    +0.000 N 
ATOM     10  C   UNL     1      -9.029   3.582 132.813  0.00  0.00    +0.000 C 
ATOM     11  O   UNL     1      -9.038   2.485 133.336  0.00  0.00    +0.000 OA
ATOM     12  C   UNL     1      -7.839   4.409 132.489  0.00  0.00    +0.000 A 
ATOM     13  C   UNL     1      -6.501   4.283 132.824  0.00  0.00    +0.000 A 
ATOM     14  C   UNL     1      -5.647   5.347 132.485  0.00  0.00    +0.000 A 
ATOM     15  C   UNL     1      -6.132   6.495 131.831  0.00  0.00    +0.000 A 
ATOM     16  C   UNL     1      -7.474   6.598 131.492  0.00  0.00    +0.000 A 
ATOM     17  C   UNL     1      -8.315   5.554 131.839  0.00  0.00    +0.000 A 
ATOM     18  H   UNL     1     -11.079   3.949 132.481  0.00  0.00    +0.000 HD
BRANCH   8  19
ATOM     19  O   UNL     1      -9.885   6.428 133.163  0.00  0.00    +0.000 OA
ATOM     20  H   UNL     1      -9.726   7.340 132.859  0.00  0.00    +0.000 HD
ENDBRANCH   8  19
ENDBRANCH   6   8
BRANCH   1  21
ATOM     21  S   UNL     1     -10.834   7.185 126.985  0.00  0.00    +0.000 S 
ATOM     22  O   UNL     1      -9.770   6.267 126.644  0.00  0.00    +0.000 OA
ATOM     23  O   UNL     1     -10.778   8.573 126.603  0.00  0.00    +0.000 OA
BRANCH  21  24
ATOM     24  N   UNL     1     -12.208   6.560 126.228  0.00  0.00    +0.000 NA
ATOM     25  H   UNL     1     -12.884   6.319 126.961  0.00  0.00    +0.000 HD
ATOM     26  H   UNL     1     -11.996   5.748 125.652  0.00  0.00    +0.000 HD
ENDBRANCH  21  24
ENDBRANCH   1  21
TORSDOF 4
ENDMDL
MODEL 2
REMARK VINA RESULT:      -7.8      3.883      6.103
REMARK  Name = Chlorthalidone
REMARK  4 active torsions:
REMARK  status: ('A' for Active; 'I' for Inactive)
REMARK    1  A    between atoms: N_1  and  S_2
REMARK    2  A    between atoms: S_2  and  C_5
REMARK    3  A    between atoms: C_10  and  C_12
REMARK    4  A    between atoms: C_12  and  O_13
REMARK                            x       y       z     vdW  Elec       q    Type
REMARK                         _______ _______ _______ _____ _____    ______ ____
ROOT
ATOM      1  C   UNL     1      -6.504   6.316 131.846  0.00  0.00    +0.000 A 
ATOM      2  C   UNL     1      -6.538   5.805 133.148  0.00  0.00    +0.000 A 
ATOM      3 CL   UNL     1      -5.180   5.434 134.137  0.00  0.00    +0.000 Cl
ATOM      4  C   UNL     1      -7.769   5.563 133.753  0.00  0.00    +0.000 A 
ATOM      5  C   UNL     1      -8.948   5.834 133.080  0.00  0.00    +0.000 A 
ATOM      6  C   UNL     1      -8.962   6.301 131.751  0.00  0.00    +0.000 A 
ATOM      7  C   UNL     1      -7.721   6.589 131.154  0.00  0.00    +0.000 A 
ENDROOT
BRANCH   6   8
ATOM      8  C   UNL     1     -10.322   6.375 131.087  0.00  0.00    +0.000 C 
ATOM      9  N   UNL     1     -11.432   6.486 131.968  0.00  0.00    +0.000 N 
ATOM     10  C   UNL     1     -12.500   7.132 131.366  0.00  0.00    +0.000 C 
ATOM     11  O   UNL     1     -13.622   7.241 131.819  0.00  0.00    +0.000 OA
ATOM     12  C   UNL     1     -11.990   7.697 130.091  0.00  0.00    +0.000 A 
ATOM     13  C   UNL     1     -12.629   8.307 129.025  0.00  0.00    +0.000 A 
ATOM     14  C   UNL     1     -11.859   8.581 127.881  0.00  0.00    +0.000 A 
ATOM     15  C   UNL     1     -10.492   8.251 127.822  0.00  0.00    +0.000 A 
ATOM     16  C   UNL     1      -9.865   7.652 128.906  0.00  0.00    +0.000 A 
ATOM     17  C   UNL     1     -10.630   7.370 130.026  0.00  0.00    +0.000 A 
ATOM     18  H   UNL     1     -11.515   6.000 132.847  0.00  0.00    +0.000 HD
BRANCH   8  19
ATOM     19  O   UNL     1     -10.492   5.165 130.339  0.00  0.00    +0.000 OA
ATOM     20  H   UNL     1      -9.872   4.526 130.735  0.00  0.00    +0.000 HD
ENDBRANCH   8  19
ENDBRANCH   6   8
BRANCH   1  21
ATOM     21  S   UNL     1      -4.985   6.688 131.001  0.00  0.00    +0.000 S 
ATOM     22  O   UNL     1      -4.604   5.645 130.075  0.00  0.00    +0.000 OA
ATOM     23  O   UNL     1      -4.054   7.210 131.968  0.00  0.00    +0.000 OA
BRANCH  21  24
ATOM     24  N   UNL     1      -5.413   8.000 130.028  0.00  0.00    +0.000 NA
ATOM     25  H   UNL     1      -6.103   8.558 130.542  0.00  0.00    +0.000 HD
ATOM     26  H   UNL     1      -5.787   7.707 129.127  0.00  0.00    +0.000 HD
ENDBRANCH  21  24
ENDBRANCH   1  21
TORSDOF 4
ENDMDL
MODEL 3
REMARK VINA RESULT:      -7.8      8.989     10.341
REMARK  Name = Chlorthalidone
REMARK  4 active torsions:
REMARK  status: ('A' for Active; 'I' for Inactive)
REMARK    1  A    between atoms: N_1  and  S_2
REMARK    2  A    between atoms: S_2  and  C_5
REMARK    3  A    between atoms: C_10  and  C_12
REMARK    4  A    between atoms: C_12  and  O_13
REMARK                            x       y       z     vdW  Elec       q    Type
REMARK                         _______ _______ _______ _____ _____    ______ ____
ROOT
ATOM      1  C   UNL     1      -7.784  -1.166 124.214  0.00  0.00    +0.000 A 
ATOM      2  C   UNL     1      -8.939  -1.445 123.475  0.00  0.00    +0.000 A 
ATOM      3 CL   UNL     1      -9.638  -2.996 123.216  0.00  0.00    +0.000 Cl
ATOM      4  C   UNL     1      -9.634  -0.397 122.876  0.00  0.00    +0.000 A 
ATOM      5  C   UNL     1      -9.197   0.909 123.018  0.00  0.00    +0.000 A 
ATOM      6  C   UNL     1      -8.013   1.231 123.710  0.00  0.00    +0.000 A 
ATOM      7  C   UNL     1      -7.333   0.180 124.353  0.00  0.00    +0.000 A 
ENDROOT
BRANCH   6   8
ATOM      8  C   UNL     1      -7.565   2.676 123.623  0.00  0.00    +0.000 C 
ATOM      9  N   UNL     1      -7.379   3.339 124.866  0.00  0.00    +0.000 N 
ATOM     10  C   UNL     1      -6.446   4.358 124.768  0.00  0.00    +0.000 C 
ATOM     11  O   UNL     1      -6.191   5.184 125.622  0.00  0.00    +0.000 OA
ATOM     12  C   UNL     1      -5.795   4.212 123.441  0.00  0.00    +0.000 A 
ATOM     13  C   UNL     1      -4.908   5.018 122.749  0.00  0.00    +0.000 A 
ATOM     14  C   UNL     1      -4.611   4.661 121.422  0.00  0.00    +0.000 A 
ATOM     15  C   UNL     1      -5.192   3.528 120.821  0.00  0.00    +0.000 A 
ATOM     16  C   UNL     1      -6.070   2.725 121.535  0.00  0.00    +0.000 A 
ATOM     17  C   UNL     1      -6.371   3.087 122.837  0.00  0.00    +0.000 A 
ATOM     18  H   UNL     1      -7.975   3.221 125.672  0.00  0.00    +0.000 HD
BRANCH   8  19
ATOM     19  O   UNL     1      -8.581   3.390 122.908  0.00  0.00    +0.000 OA
ATOM     20  H   UNL     1      -8.360   3.281 121.965  0.00  0.00    +0.000 HD
ENDBRANCH   8  19
ENDBRANCH   6   8
BRANCH   1  21
ATOM     21  S   UNL     1      -6.846  -2.429 125.041  0.00  0.00    +0.000 S 
ATOM     22  O   UNL     1      -6.209  -3.335 124.112  0.00  0.00    +0.000 OA
ATOM     23  O   UNL     1      -7.633  -2.916 126.145  0.00  0.00    +0.000 OA
BRANCH  21  24
ATOM     24  N   UNL     1      -5.579  -1.556 125.736  0.00  0.00    +0.000 NA
ATOM     25  H   UNL     1      -5.990  -0.847 126.352  0.00  0.00    +0.000 HD
ATOM     26  H   UNL     1      -4.979  -1.122 125.037  0.00  0.00    +0.000 HD
ENDBRANCH  21  24
ENDBRANCH   1  21
TORSDOF 4
ENDMDL
MODEL 4
REMARK VINA RESULT:      -7.7      1.668      2.283
REMARK  Name = Chlorthalidone
REMARK  4 active torsions:
REMARK  status: ('A' for Active; 'I' for Inactive)
REMARK    1  A    between atoms: N_1  and  S_2
REMARK    2  A    between atoms: S_2  and  C_5
REMARK    3  A    between atoms: C_10  and  C_12
REMARK    4  A    between atoms: C_12  and  O_13
REMARK                            x       y       z     vdW  Elec       q    Type
REMARK                         _______ _______ _______ _____ _____    ______ ____
ROOT
ATOM      1  C   UNL     1     -11.045   6.955 128.682  0.00  0.00    +0.000 A 
ATOM      2  C   UNL     1     -12.078   7.565 129.402  0.00  0.00    +0.000 A 
ATOM      3 CL   UNL     1     -13.268   8.637 128.774  0.00  0.00    +0.000 Cl
ATOM      4  C   UNL     1     -12.205   7.304 130.764  0.00  0.00    +0.000 A 
ATOM      5  C   UNL     1     -11.327   6.444 131.400  0.00  0.00    +0.000 A 
ATOM      6  C   UNL     1     -10.243   5.847 130.727  0.00  0.00    +0.000 A 
ATOM      7  C   UNL     1     -10.138   6.073 129.342  0.00  0.00    +0.000 A 
ENDROOT
BRANCH   6   8
ATOM      8  C   UNL     1      -9.264   5.080 131.592  0.00  0.00    +0.000 C 
ATOM      9  N   UNL     1      -9.292   5.392 132.979  0.00  0.00    +0.000 N 
ATOM     10  C   UNL     1      -8.875   4.321 133.753  0.00  0.00    +0.000 C 
ATOM     11  O   UNL     1      -8.658   4.340 134.948  0.00  0.00    +0.000 OA
ATOM     12  C   UNL     1      -8.792   3.148 132.845  0.00  0.00    +0.000 A 
ATOM     13  C   UNL     1      -8.298   1.868 133.027  0.00  0.00    +0.000 A 
ATOM     14  C   UNL     1      -8.219   1.039 131.893  0.00  0.00    +0.000 A 
ATOM     15  C   UNL     1      -8.625   1.493 130.625  0.00  0.00    +0.000 A 
ATOM     16  C   UNL     1      -9.129   2.777 130.464  0.00  0.00    +0.000 A 
ATOM     17  C   UNL     1      -9.194   3.594 131.580  0.00  0.00    +0.000 A 
ATOM     18  H   UNL     1      -9.414   6.320 133.354  0.00  0.00    +0.000 HD
BRANCH   8  19
ATOM     19  O   UNL     1      -7.948   5.387 131.114  0.00  0.00    +0.000 OA
ATOM     20  H   UNL     1      -7.389   4.640 131.395  0.00  0.00    +0.000 HD
ENDBRANCH   8  19
ENDBRANCH   6   8
BRANCH   1  21
ATOM     21  S   UNL     1     -10.819   7.198 126.936  0.00  0.00    +0.000 S 
ATOM     22  O   UNL     1      -9.777   6.352 126.396  0.00  0.00    +0.000 OA
ATOM     23  O   UNL     1     -10.845   8.614 126.677  0.00  0.00    +0.000 OA
BRANCH  21  24
ATOM     24  N   UNL     1     -12.253   6.589 126.287  0.00  0.00    +0.000 NA
ATOM     25  H   UNL     1     -12.330   5.606 126.568  0.00  0.00    +0.000 HD
ATOM     26  H   UNL     1     -12.287   6.677 125.273  0.00  0.00    +0.000 HD
ENDBRANCH  21  24
ENDBRANCH   1  21
TORSDOF 4
ENDMDL
MODEL 5
REMARK VINA RESULT:      -7.7      3.641      6.393
REMARK  Name = Chlorthalidone
REMARK  4 active torsions:
REMARK  status: ('A' for Active; 'I' for Inactive)
REMARK    1  A    between atoms: N_1  and  S_2
REMARK    2  A    between atoms: S_2  and  C_5
REMARK    3  A    between atoms: C_10  and  C_12
REMARK    4  A    between atoms: C_12  and  O_13
REMARK                            x       y       z     vdW  Elec       q    Type
REMARK                         _______ _______ _______ _____ _____    ______ ____
ROOT
ATOM      1  C   UNL     1      -7.801   3.472 132.001  0.00  0.00    +0.000 A 
ATOM      2  C   UNL     1      -6.969   4.466 132.527  0.00  0.00    +0.000 A 
ATOM      3 CL   UNL     1      -5.468   4.222 133.333  0.00  0.00    +0.000 Cl
ATOM      4  C   UNL     1      -7.342   5.802 132.406  0.00  0.00    +0.000 A 
ATOM      5  C   UNL     1      -8.518   6.147 131.762  0.00  0.00    +0.000 A 
ATOM      6  C   UNL     1      -9.410   5.179 131.261  0.00  0.00    +0.000 A 
ATOM      7  C   UNL     1      -9.015   3.831 131.344  0.00  0.00    +0.000 A 
ENDROOT
BRANCH   6   8
ATOM      8  C   UNL     1     -10.738   5.700 130.751  0.00  0.00    +0.000 C 
ATOM      9  N   UNL     1     -11.669   6.099 131.748  0.00  0.00    +0.000 N 
ATOM     10  C   UNL     1     -12.536   7.072 131.280  0.00  0.00    +0.000 C 
ATOM     11  O   UNL     1     -13.520   7.494 131.854  0.00  0.00    +0.000 OA
ATOM     12  C   UNL     1     -12.003   7.520 129.968  0.00  0.00    +0.000 A 
ATOM     13  C   UNL     1     -12.523   8.351 128.990  0.00  0.00    +0.000 A 
ATOM     14  C   UNL     1     -11.820   8.437 127.775  0.00  0.00    +0.000 A 
ATOM     15  C   UNL     1     -10.635   7.708 127.562  0.00  0.00    +0.000 A 
ATOM     16  C   UNL     1     -10.123   6.889 128.559  0.00  0.00    +0.000 A 
ATOM     17  C   UNL     1     -10.824   6.796 129.749  0.00  0.00    +0.000 A 
ATOM     18  H   UNL     1     -11.812   5.616 132.622  0.00  0.00    +0.000 HD
BRANCH   8  19
ATOM     19  O   UNL     1     -11.347   4.641 130.001  0.00  0.00    +0.000 OA
ATOM     20  H   UNL     1     -11.404   3.888 130.616  0.00  0.00    +0.000 HD
ENDBRANCH   8  19
ENDBRANCH   6   8
BRANCH   1  21
ATOM     21  S   UNL     1      -7.398   1.743 132.077  0.00  0.00    +0.000 S 
ATOM     22  O   UNL     1      -7.530   1.208 133.415  0.00  0.00    +0.000 OA
ATOM     23  O   UNL     1      -6.205   1.529 131.299  0.00  0.00    +0.000 OA
BRANCH  21  24
ATOM     24  N   UNL     1      -8.649   1.029 131.198  0.00  0.00    +0.000 NA
ATOM     25  H   UNL     1      -8.578   0.013 131.323  0.00  0.00    +0.000 HD
ATOM     26  H   UNL     1      -8.616   1.273 130.210  0.00  0.00    +0.000 HD
ENDBRANCH  21  24
ENDBRANCH   1  21
TORSDOF 4
ENDMDL
MODEL 6
REMARK VINA RESULT:      -7.6      7.786      8.887
REMARK  Name = Chlorthalidone
REMARK  4 active torsions:
REMARK  status: ('A' for Active; 'I' for Inactive)
REMARK    1  A    between atoms: N_1  and  S_2
REMARK    2  A    between atoms: S_2  and  C_5
REMARK    3  A    between atoms: C_10  and  C_12
REMARK    4  A    between atoms: C_12  and  O_13
REMARK                            x       y       z     vdW  Elec       q    Type
REMARK                         _______ _______ _______ _____ _____    ______ ____
ROOT
ATOM      1  C   UNL     1      -7.337   3.016 125.302  0.00  0.00    +0.000 A 
ATOM      2  C   UNL     1      -6.688   3.007 124.063  0.00  0.00    +0.000 A 
ATOM      3 CL   UNL     1      -5.859   4.325 123.331  0.00  0.00    +0.000 Cl
ATOM      4  C   UNL     1      -6.676   1.835 123.309  0.00  0.00    +0.000 A 
ATOM      5  C   UNL     1      -7.289   0.688 123.784  0.00  0.00    +0.000 A 
ATOM      6  C   UNL     1      -7.995   0.665 125.002  0.00  0.00    +0.000 A 
ATOM      7  C   UNL     1      -7.972   1.834 125.786  0.00  0.00    +0.000 A 
ENDROOT
BRANCH   6   8
ATOM      8  C   UNL     1      -8.766  -0.605 125.300  0.00  0.00    +0.000 C 
ATOM      9  N   UNL     1      -9.020  -1.447 124.183  0.00  0.00    +0.000 N 
ATOM     10  C   UNL     1      -9.152  -2.773 124.562  0.00  0.00    +0.000 C 
ATOM     11  O   UNL     1      -9.514  -3.691 123.853  0.00  0.00    +0.000 OA
ATOM     12  C   UNL     1      -8.726  -2.853 125.983  0.00  0.00    +0.000 A 
ATOM     13  C   UNL     1      -8.786  -3.877 126.913  0.00  0.00    +0.000 A 
ATOM     14  C   UNL     1      -8.442  -3.565 128.240  0.00  0.00    +0.000 A 
ATOM     15  C   UNL     1      -8.051  -2.264 128.608  0.00  0.00    +0.000 A 
ATOM     16  C   UNL     1      -7.985  -1.253 127.659  0.00  0.00    +0.000 A 
ATOM     17  C   UNL     1      -8.338  -1.561 126.356  0.00  0.00    +0.000 A 
ATOM     18  H   UNL     1      -9.260  -1.117 123.261  0.00  0.00    +0.000 HD
BRANCH   8  19
ATOM     19  O   UNL     1     -10.038  -0.212 125.833  0.00  0.00    +0.000 OA
ATOM     20  H   UNL     1      -9.856   0.569 126.386  0.00  0.00    +0.000 HD
ENDBRANCH   8  19
ENDBRANCH   6   8
BRANCH   1  21
ATOM     21  S   UNL     1      -7.380   4.450 126.351  0.00  0.00    +0.000 S 
ATOM     22  O   UNL     1      -6.075   5.055 126.505  0.00  0.00    +0.000 OA
ATOM     23  O   UNL     1      -8.204   4.143 127.492  0.00  0.00    +0.000 OA
BRANCH  21  24
ATOM     24  N   UNL     1      -8.266   5.556 125.434  0.00  0.00    +0.000 NA
ATOM     25  H   UNL     1      -7.735   6.433 125.404  0.00  0.00    +0.000 HD
ATOM     26  H   UNL     1      -9.199   5.713 125.811  0.00  0.00    +0.000 HD
ENDBRANCH  21  24
ENDBRANCH   1  21
TORSDOF 4
ENDMDL
MODEL 7
REMARK VINA RESULT:      -7.5      8.784      9.953
REMARK  Name = Chlorthalidone
REMARK  4 active torsions:
REMARK  status: ('A' for Active; 'I' for Inactive)
REMARK    1  A    between atoms: N_1  and  S_2
REMARK    2  A    between atoms: S_2  and  C_5
REMARK    3  A    between atoms: C_10  and  C_12
REMARK    4  A    between atoms: C_12  and  O_13
REMARK                            x       y       z     vdW  Elec       q    Type
REMARK                         _______ _______ _______ _____ _____    ______ ____
ROOT
ATOM      1  C   UNL     1      -7.253  -2.340 126.114  0.00  0.00    +0.000 A 
ATOM      2  C   UNL     1      -8.431  -3.082 125.981  0.00  0.00    +0.000 A 
ATOM      3 CL   UNL     1      -9.273  -3.413 124.518  0.00  0.00    +0.000 Cl
ATOM      4  C   UNL     1      -9.016  -3.639 127.116  0.00  0.00    +0.000 A 
ATOM      5  C   UNL     1      -8.436  -3.470 128.361  0.00  0.00    +0.000 A 
ATOM      6  C   UNL     1      -7.278  -2.689 128.549  0.00  0.00    +0.000 A 
ATOM      7  C   UNL     1      -6.660  -2.163 127.399  0.00  0.00    +0.000 A 
ENDROOT
BRANCH   6   8
ATOM      8  C   UNL     1      -6.867  -2.444 129.986  0.00  0.00    +0.000 C 
ATOM      9  N   UNL     1      -7.728  -1.599 130.738  0.00  0.00    +0.000 N 
ATOM     10  C   UNL     1      -7.673  -1.886 132.091  0.00  0.00    +0.000 C 
ATOM     11  O   UNL     1      -8.183  -1.239 132.985  0.00  0.00    +0.000 OA
ATOM     12  C   UNL     1      -6.912  -3.155 132.226  0.00  0.00    +0.000 A 
ATOM     13  C   UNL     1      -6.426  -3.832 133.331  0.00  0.00    +0.000 A 
ATOM     14  C   UNL     1      -5.591  -4.938 133.095  0.00  0.00    +0.000 A 
ATOM     15  C   UNL     1      -5.263  -5.341 131.787  0.00  0.00    +0.000 A 
ATOM     16  C   UNL     1      -5.769  -4.657 130.691  0.00  0.00    +0.000 A 
ATOM     17  C   UNL     1      -6.581  -3.560 130.927  0.00  0.00    +0.000 A 
ATOM     18  H   UNL     1      -8.180  -0.774 130.373  0.00  0.00    +0.000 HD
BRANCH   8  19
ATOM     19  O   UNL     1      -5.578  -1.819 129.956  0.00  0.00    +0.000 OA
ATOM     20  H   UNL     1      -5.099  -2.176 130.725  0.00  0.00    +0.000 HD
ENDBRANCH   8  19
ENDBRANCH   6   8
BRANCH   1  21
ATOM     21  S   UNL     1      -6.413  -1.618 124.724  0.00  0.00    +0.000 S 
ATOM     22  O   UNL     1      -7.250  -0.684 124.003  0.00  0.00    +0.000 OA
ATOM     23  O   UNL     1      -5.698  -2.666 124.042  0.00  0.00    +0.000 OA
BRANCH  21  24
ATOM     24  N   UNL     1      -5.230  -0.663 125.458  0.00  0.00    +0.000 NA
ATOM     25  H   UNL     1      -4.449  -1.277 125.713  0.00  0.00    +0.000 HD
ATOM     26  H   UNL     1      -5.583  -0.171 126.277  0.00  0.00    +0.000 HD
ENDBRANCH  21  24
ENDBRANCH   1  21
TORSDOF 4
ENDMDL
MODEL 8
REMARK VINA RESULT:      -7.5      9.464     11.180
REMARK  Name = Chlorthalidone
REMARK  4 active torsions:
REMARK  status: ('A' for Active; 'I' for Inactive)
REMARK    1  A    between atoms: N_1  and  S_2
REMARK    2  A    between atoms: S_2  and  C_5
REMARK    3  A    between atoms: C_10  and  C_12
REMARK    4  A    between atoms: C_12  and  O_13
REMARK                            x       y       z     vdW  Elec       q    Type
REMARK                         _______ _______ _______ _____ _____    ______ ____
ROOT
ATOM      1  C   UNL     1      -6.367  -1.977 129.382  0.00  0.00    +0.000 A 
ATOM      2  C   UNL     1      -7.172  -2.837 130.137  0.00  0.00    +0.000 A 
ATOM      3 CL   UNL     1      -7.012  -3.177 131.816  0.00  0.00    +0.000 Cl
ATOM      4  C   UNL     1      -8.228  -3.501 129.516  0.00  0.00    +0.000 A 
ATOM      5  C   UNL     1      -8.487  -3.307 128.171  0.00  0.00    +0.000 A 
ATOM      6  C   UNL     1      -7.673  -2.490 127.361  0.00  0.00    +0.000 A 
ATOM      7  C   UNL     1      -6.633  -1.784 127.994  0.00  0.00    +0.000 A 
ENDROOT
BRANCH   6   8
ATOM      8  C   UNL     1      -7.970  -2.521 125.876  0.00  0.00    +0.000 C 
ATOM      9  N   UNL     1      -8.998  -1.646 125.434  0.00  0.00    +0.000 N 
ATOM     10  C   UNL     1      -8.820  -1.271 124.113  0.00  0.00    +0.000 C 
ATOM     11  O   UNL     1      -9.611  -0.654 123.427  0.00  0.00    +0.000 OA
ATOM     12  C   UNL     1      -7.464  -1.732 123.720  0.00  0.00    +0.000 A 
ATOM     13  C   UNL     1      -6.813  -1.767 122.499  0.00  0.00    +0.000 A 
ATOM     14  C   UNL     1      -5.574  -2.430 122.446  0.00  0.00    +0.000 A 
ATOM     15  C   UNL     1      -5.017  -3.034 123.589  0.00  0.00    +0.000 A 
ATOM     16  C   UNL     1      -5.679  -2.978 124.807  0.00  0.00    +0.000 A 
ATOM     17  C   UNL     1      -6.905  -2.336 124.853  0.00  0.00    +0.000 A 
ATOM     18  H   UNL     1      -9.851  -1.463 125.942  0.00  0.00    +0.000 HD
BRANCH   8  19
ATOM     19  O   UNL     1      -8.381  -3.856 125.555  0.00  0.00    +0.000 OA
ATOM     20  H   UNL     1      -8.572  -4.281 126.411  0.00  0.00    +0.000 HD
ENDBRANCH   8  19
ENDBRANCH   6   8
BRANCH   1  21
ATOM     21  S   UNL     1      -5.017  -1.060 130.087  0.00  0.00    +0.000 S 
ATOM     22  O   UNL     1      -3.872  -1.899 130.363  0.00  0.00    +0.000 OA
ATOM     23  O   UNL     1      -5.555  -0.173 131.085  0.00  0.00    +0.000 OA
BRANCH  21  24
ATOM     24  N   UNL     1      -4.532  -0.069 128.809  0.00  0.00    +0.000 NA
ATOM     25  H   UNL     1      -4.551   0.900 129.143  0.00  0.00    +0.000 HD
ATOM     26  H   UNL     1      -5.125  -0.178 127.988  0.00  0.00    +0.000 HD
ENDBRANCH  21  24
ENDBRANCH   1  21
TORSDOF 4
ENDMDL
MODEL 9
REMARK VINA RESULT:      -7.3      8.083      9.172
REMARK  Name = Chlorthalidone
REMARK  4 active torsions:
REMARK  status: ('A' for Active; 'I' for Inactive)
REMARK    1  A    between atoms: N_1  and  S_2
REMARK    2  A    between atoms: S_2  and  C_5
REMARK    3  A    between atoms: C_10  and  C_12
REMARK    4  A    between atoms: C_12  and  O_13
REMARK                            x       y       z     vdW  Elec       q    Type
REMARK                         _______ _______ _______ _____ _____    ______ ____
ROOT
ATOM      1  C   UNL     1      -6.630   2.924 126.194  0.00  0.00    +0.000 A 
ATOM      2  C   UNL     1      -5.241   3.056 126.294  0.00  0.00    +0.000 A 
ATOM      3 CL   UNL     1      -4.353   4.529 126.333  0.00  0.00    +0.000 Cl
ATOM      4  C   UNL     1      -4.453   1.911 126.382  0.00  0.00    +0.000 A 
ATOM      5  C   UNL     1      -5.035   0.655 126.381  0.00  0.00    +0.000 A 
ATOM      6  C   UNL     1      -6.424   0.473 126.232  0.00  0.00    +0.000 A 
ATOM      7  C   UNL     1      -7.226   1.628 126.188  0.00  0.00    +0.000 A 
ENDROOT
BRANCH   6   8
ATOM      8  C   UNL     1      -6.892  -0.958 126.065  0.00  0.00    +0.000 C 
ATOM      9  N   UNL     1      -7.427  -1.572 127.230  0.00  0.00    +0.000 N 
ATOM     10  C   UNL     1      -8.343  -2.562 126.912  0.00  0.00    +0.000 C 
ATOM     11  O   UNL     1      -8.847  -3.350 127.688  0.00  0.00    +0.000 OA
ATOM     12  C   UNL     1      -8.613  -2.439 125.457  0.00  0.00    +0.000 A 
ATOM     13  C   UNL     1      -9.319  -3.238 124.574  0.00  0.00    +0.000 A 
ATOM     14  C   UNL     1      -9.241  -2.916 123.207  0.00  0.00    +0.000 A 
ATOM     15  C   UNL     1      -8.476  -1.825 122.755  0.00  0.00    +0.000 A 
ATOM     16  C   UNL     1      -7.784  -1.028 123.657  0.00  0.00    +0.000 A 
ATOM     17  C   UNL     1      -7.853  -1.355 125.001  0.00  0.00    +0.000 A 
ATOM     18  H   UNL     1      -7.061  -1.447 128.161  0.00  0.00    +0.000 HD
BRANCH   8  19
ATOM     19  O   UNL     1      -5.754  -1.730 125.661  0.00  0.00    +0.000 OA
ATOM     20  H   UNL     1      -5.830  -1.818 124.694  0.00  0.00    +0.000 HD
ENDBRANCH   8  19
ENDBRANCH   6   8
BRANCH   1  21
ATOM     21  S   UNL     1      -7.723   4.323 126.110  0.00  0.00    +0.000 S 
ATOM     22  O   UNL     1      -7.159   5.412 125.343  0.00  0.00    +0.000 OA
ATOM     23  O   UNL     1      -8.274   4.537 127.422  0.00  0.00    +0.000 OA
BRANCH  21  24
ATOM     24  N   UNL     1      -8.999   3.743 125.168  0.00  0.00    +0.000 NA
ATOM     25  H   UNL     1      -8.596   3.186 124.407  0.00  0.00    +0.000 HD
ATOM     26  H   UNL     1      -9.578   4.493 124.797  0.00  0.00    +0.000 HD
ENDBRANCH  21  24
ENDBRANCH   1  21
TORSDOF 4
ENDMDL
