MODEL 1
REMARK VINA RESULT:      -5.9      0.000      0.000
REMARK  Name = Chlorphenesin carbamate
REMARK  7 active torsions:
REMARK  status: ('A' for Active; 'I' for Inactive)
REMARK    1  A    between atoms: C_2  and  O_4
REMARK    2  A    between atoms: O_4  and  C_5
REMARK    3  A    between atoms: C_5  and  C_6
REMARK    4  A    between atoms: C_6  and  O_7
REMARK    5  A    between atoms: C_6  and  C_8
REMARK    6  A    between atoms: C_8  and  O_9
REMARK    7  A    between atoms: O_9  and  C_10
REMARK                            x       y       z     vdW  Elec       q    Type
REMARK                         _______ _______ _______ _____ _____    ______ ____
ROOT
ATOM      1  C   UNL     1      -9.884   1.079 124.054  0.00  0.00    +0.000 C 
ENDROOT
BRANCH   1   2
ATOM      2  O   UNL     1     -11.281   1.406 124.120  0.00  0.00    +0.000 OA
ATOM      3  H   UNL     1     -11.484   2.024 123.399  0.00  0.00    +0.000 HD
ENDBRANCH   1   2
BRANCH   1   4
ATOM      4  C   UNL     1      -9.056   2.381 123.981  0.00  0.00    +0.000 C 
BRANCH   4   5
ATOM      5  O   UNL     1      -9.082   2.931 122.642  0.00  0.00    +0.000 OA
BRANCH   5   7
ATOM      6  N   UNL     1      -7.939   3.891 120.962  0.00  0.00    +0.000 N 
ATOM      7  C   UNL     1      -7.858   3.165 122.104  0.00  0.00    +0.000 C 
ATOM      8  O   UNL     1      -6.791   2.785 122.567  0.00  0.00    +0.000 OA
ATOM      9  H   UNL     1      -7.084   4.126 120.477  0.00  0.00    +0.000 HD
ATOM     10  H   UNL     1      -8.825   4.189 120.583  0.00  0.00    +0.000 HD
ENDBRANCH   5   7
ENDBRANCH   4   5
ENDBRANCH   1   4
BRANCH   1  11
ATOM     11  C   UNL     1      -9.613   0.154 122.841  0.00  0.00    +0.000 C 
BRANCH  11  12
ATOM     12  O   UNL     1      -9.767  -1.223 123.237  0.00  0.00    +0.000 OA
BRANCH  12  13
ATOM     13  C   UNL     1      -8.602  -1.902 123.487  0.00  0.00    +0.000 A 
ATOM     14  C   UNL     1      -8.534  -3.076 124.237  0.00  0.00    +0.000 A 
ATOM     15  C   UNL     1      -7.312  -3.738 124.404  0.00  0.00    +0.000 A 
ATOM     16  C   UNL     1      -6.157  -3.232 123.810  0.00  0.00    +0.000 A 
ATOM     17 CL   UNL     1      -4.654  -4.038 124.042  0.00  0.00    +0.000 Cl
ATOM     18  C   UNL     1      -6.219  -2.080 123.030  0.00  0.00    +0.000 A 
ATOM     19  C   UNL     1      -7.444  -1.422 122.862  0.00  0.00    +0.000 A 
ENDBRANCH  12  13
ENDBRANCH  11  12
ENDBRANCH   1  11
TORSDOF 7
ENDMDL
MODEL 2
REMARK VINA RESULT:      -5.9      1.644      1.831
REMARK  Name = Chlorphenesin carbamate
REMARK  7 active torsions:
REMARK  status: ('A' for Active; 'I' for Inactive)
REMARK    1  A    between atoms: C_2  and  O_4
REMARK    2  A    between atoms: O_4  and  C_5
REMARK    3  A    between atoms: C_5  and  C_6
REMARK    4  A    between atoms: C_6  and  O_7
REMARK    5  A    between atoms: C_6  and  C_8
REMARK    6  A    between atoms: C_8  and  O_9
REMARK    7  A    between atoms: O_9  and  C_10
REMARK                            x       y       z     vdW  Elec       q    Type
REMARK                         _______ _______ _______ _____ _____    ______ ____
ROOT
ATOM      1  C   UNL     1      -9.727   1.063 124.212  0.00  0.00    +0.000 C 
ENDROOT
BRANCH   1   2
ATOM      2  O   UNL     1     -11.049   1.601 124.369  0.00  0.00    +0.000 OA
ATOM      3  H   UNL     1     -11.592   0.944 124.835  0.00  0.00    +0.000 HD
ENDBRANCH   1   2
BRANCH   1   4
ATOM      4  C   UNL     1      -8.697   2.213 124.253  0.00  0.00    +0.000 C 
BRANCH   4   5
ATOM      5  O   UNL     1      -8.935   3.076 125.391  0.00  0.00    +0.000 OA
BRANCH   5   7
ATOM      6  N   UNL     1      -7.306   4.291 124.432  0.00  0.00    +0.000 N 
ATOM      7  C   UNL     1      -8.337   4.292 125.312  0.00  0.00    +0.000 C 
ATOM      8  O   UNL     1      -8.664   5.290 125.940  0.00  0.00    +0.000 OA
ATOM      9  H   UNL     1      -6.790   5.148 124.291  0.00  0.00    +0.000 HD
ATOM     10  H   UNL     1      -7.038   3.460 123.927  0.00  0.00    +0.000 HD
ENDBRANCH   5   7
ENDBRANCH   4   5
ENDBRANCH   1   4
BRANCH   1  11
ATOM     11  C   UNL     1      -9.638   0.254 122.894  0.00  0.00    +0.000 C 
BRANCH  11  12
ATOM     12  O   UNL     1      -9.796  -1.151 123.175  0.00  0.00    +0.000 OA
BRANCH  12  13
ATOM     13  C   UNL     1      -8.638  -1.835 123.446  0.00  0.00    +0.000 A 
ATOM     14  C   UNL     1      -8.586  -2.988 124.229  0.00  0.00    +0.000 A 
ATOM     15  C   UNL     1      -7.371  -3.658 124.418  0.00  0.00    +0.000 A 
ATOM     16  C   UNL     1      -6.209  -3.182 123.814  0.00  0.00    +0.000 A 
ATOM     17 CL   UNL     1      -4.716  -3.998 124.072  0.00  0.00    +0.000 Cl
ATOM     18  C   UNL     1      -6.257  -2.052 123.001  0.00  0.00    +0.000 A 
ATOM     19  C   UNL     1      -7.474  -1.386 122.811  0.00  0.00    +0.000 A 
ENDBRANCH  12  13
ENDBRANCH  11  12
ENDBRANCH   1  11
TORSDOF 7
ENDMDL
MODEL 3
REMARK VINA RESULT:      -5.6      9.734     11.780
REMARK  Name = Chlorphenesin carbamate
REMARK  7 active torsions:
REMARK  status: ('A' for Active; 'I' for Inactive)
REMARK    1  A    between atoms: C_2  and  O_4
REMARK    2  A    between atoms: O_4  and  C_5
REMARK    3  A    between atoms: C_5  and  C_6
REMARK    4  A    between atoms: C_6  and  O_7
REMARK    5  A    between atoms: C_6  and  C_8
REMARK    6  A    between atoms: C_8  and  O_9
REMARK    7  A    between atoms: O_9  and  C_10
REMARK                            x       y       z     vdW  Elec       q    Type
REMARK                         _______ _______ _______ _____ _____    ______ ____
ROOT
ATOM      1  C   UNL     1      -9.355   4.641 130.223  0.00  0.00    +0.000 C 
ENDROOT
BRANCH   1   2
ATOM      2  O   UNL     1      -9.151   4.348 128.832  0.00  0.00    +0.000 OA
ATOM      3  H   UNL     1      -8.660   3.513 128.765  0.00  0.00    +0.000 HD
ENDBRANCH   1   2
BRANCH   1   4
ATOM      4  C   UNL     1      -8.645   3.571 131.082  0.00  0.00    +0.000 C 
BRANCH   4   5
ATOM      5  O   UNL     1      -9.471   3.182 132.206  0.00  0.00    +0.000 OA
BRANCH   5   7
ATOM      6  N   UNL     1      -9.193   4.099 134.238  0.00  0.00    +0.000 N 
ATOM      7  C   UNL     1      -8.814   3.110 133.391  0.00  0.00    +0.000 C 
ATOM      8  O   UNL     1      -7.978   2.270 133.694  0.00  0.00    +0.000 OA
ATOM      9  H   UNL     1      -8.768   4.140 135.154  0.00  0.00    +0.000 HD
ATOM     10  H   UNL     1      -9.875   4.794 133.974  0.00  0.00    +0.000 HD
ENDBRANCH   5   7
ENDBRANCH   4   5
ENDBRANCH   1   4
BRANCH   1  11
ATOM     11  C   UNL     1     -10.872   4.714 130.532  0.00  0.00    +0.000 C 
BRANCH  11  12
ATOM     12  O   UNL     1     -11.575   5.237 129.387  0.00  0.00    +0.000 OA
BRANCH  12  13
ATOM     13  C   UNL     1     -11.946   6.555 129.470  0.00  0.00    +0.000 A 
ATOM     14  C   UNL     1     -11.882   7.446 128.399  0.00  0.00    +0.000 A 
ATOM     15  C   UNL     1     -12.328   8.765 128.551  0.00  0.00    +0.000 A 
ATOM     16  C   UNL     1     -12.848   9.190 129.772  0.00  0.00    +0.000 A 
ATOM     17 CL   UNL     1     -13.370  10.819 129.957  0.00  0.00    +0.000 Cl
ATOM     18  C   UNL     1     -12.949   8.298 130.837  0.00  0.00    +0.000 A 
ATOM     19  C   UNL     1     -12.506   6.979 130.681  0.00  0.00    +0.000 A 
ENDBRANCH  12  13
ENDBRANCH  11  12
ENDBRANCH   1  11
TORSDOF 7
ENDMDL
MODEL 4
REMARK VINA RESULT:      -5.6      2.588      3.682
REMARK  Name = Chlorphenesin carbamate
REMARK  7 active torsions:
REMARK  status: ('A' for Active; 'I' for Inactive)
REMARK    1  A    between atoms: C_2  and  O_4
REMARK    2  A    between atoms: O_4  and  C_5
REMARK    3  A    between atoms: C_5  and  C_6
REMARK    4  A    between atoms: C_6  and  O_7
REMARK    5  A    between atoms: C_6  and  C_8
REMARK    6  A    between atoms: C_8  and  O_9
REMARK    7  A    between atoms: O_9  and  C_10
REMARK                            x       y       z     vdW  Elec       q    Type
REMARK                         _______ _______ _______ _____ _____    ______ ____
ROOT
ATOM      1  C   UNL     1      -6.961   3.509 122.267  0.00  0.00    +0.000 C 
ENDROOT
BRANCH   1   2
ATOM      2  O   UNL     1      -8.112   3.729 121.436  0.00  0.00    +0.000 OA
ATOM      3  H   UNL     1      -7.862   3.548 120.515  0.00  0.00    +0.000 HD
ENDBRANCH   1   2
BRANCH   1   4
ATOM      4  C   UNL     1      -5.689   3.943 121.506  0.00  0.00    +0.000 C 
BRANCH   4   5
ATOM      5  O   UNL     1      -6.006   4.312 120.142  0.00  0.00    +0.000 OA
BRANCH   5   7
ATOM      6  N   UNL     1      -5.740   5.742 118.430  0.00  0.00    +0.000 N 
ATOM      7  C   UNL     1      -5.412   5.454 119.713  0.00  0.00    +0.000 C 
ATOM      8  O   UNL     1      -4.667   6.163 120.376  0.00  0.00    +0.000 OA
ATOM      9  H   UNL     1      -5.355   6.575 118.008  0.00  0.00    +0.000 HD
ATOM     10  H   UNL     1      -6.346   5.144 117.889  0.00  0.00    +0.000 HD
ENDBRANCH   5   7
ENDBRANCH   4   5
ENDBRANCH   1   4
BRANCH   1  11
ATOM     11  C   UNL     1      -6.897   2.023 122.698  0.00  0.00    +0.000 C 
BRANCH  11  12
ATOM     12  O   UNL     1      -8.110   1.666 123.391  0.00  0.00    +0.000 OA
BRANCH  12  13
ATOM     13  C   UNL     1      -8.182   0.368 123.830  0.00  0.00    +0.000 A 
ATOM     14  C   UNL     1      -7.499  -0.691 123.232  0.00  0.00    +0.000 A 
ATOM     15  C   UNL     1      -7.585  -1.980 123.772  0.00  0.00    +0.000 A 
ATOM     16  C   UNL     1      -8.344  -2.208 124.918  0.00  0.00    +0.000 A 
ATOM     17 CL   UNL     1      -8.463  -3.801 125.560  0.00  0.00    +0.000 Cl
ATOM     18  C   UNL     1      -9.000  -1.152 125.544  0.00  0.00    +0.000 A 
ATOM     19  C   UNL     1      -8.910   0.137 125.003  0.00  0.00    +0.000 A 
ENDBRANCH  12  13
ENDBRANCH  11  12
ENDBRANCH   1  11
TORSDOF 7
ENDMDL
MODEL 5
REMARK VINA RESULT:      -5.6      7.831     10.119
REMARK  Name = Chlorphenesin carbamate
REMARK  7 active torsions:
REMARK  status: ('A' for Active; 'I' for Inactive)
REMARK    1  A    between atoms: C_2  and  O_4
REMARK    2  A    between atoms: O_4  and  C_5
REMARK    3  A    between atoms: C_5  and  C_6
REMARK    4  A    between atoms: C_6  and  O_7
REMARK    5  A    between atoms: C_6  and  C_8
REMARK    6  A    between atoms: C_8  and  O_9
REMARK    7  A    between atoms: O_9  and  C_10
REMARK                            x       y       z     vdW  Elec       q    Type
REMARK                         _______ _______ _______ _____ _____    ______ ____
ROOT
ATOM      1  C   UNL     1      -8.506   3.943 129.247  0.00  0.00    +0.000 C 
ENDROOT
BRANCH   1   2
ATOM      2  O   UNL     1      -7.627   3.561 130.317  0.00  0.00    +0.000 OA
ATOM      3  H   UNL     1      -6.802   3.228 129.929  0.00  0.00    +0.000 HD
ENDBRANCH   1   2
BRANCH   1   4
ATOM      4  C   UNL     1      -7.720   3.952 127.917  0.00  0.00    +0.000 C 
BRANCH   4   5
ATOM      5  O   UNL     1      -8.265   4.937 127.005  0.00  0.00    +0.000 OA
BRANCH   5   7
ATOM      6  N   UNL     1      -7.219   5.305 125.052  0.00  0.00    +0.000 N 
ATOM      7  C   UNL     1      -8.182   4.599 125.694  0.00  0.00    +0.000 C 
ATOM      8  O   UNL     1      -8.872   3.763 125.127  0.00  0.00    +0.000 OA
ATOM      9  H   UNL     1      -7.068   5.131 124.068  0.00  0.00    +0.000 HD
ATOM     10  H   UNL     1      -6.663   6.000 125.526  0.00  0.00    +0.000 HD
ENDBRANCH   5   7
ENDBRANCH   4   5
ENDBRANCH   1   4
BRANCH   1  11
ATOM     11  C   UNL     1      -9.141   5.323 129.551  0.00  0.00    +0.000 C 
BRANCH  11  12
ATOM     12  O   UNL     1     -10.578   5.202 129.567  0.00  0.00    +0.000 OA
BRANCH  12  13
ATOM     13  C   UNL     1     -11.271   6.385 129.610  0.00  0.00    +0.000 A 
ATOM     14  C   UNL     1     -12.155   6.728 130.633  0.00  0.00    +0.000 A 
ATOM     15  C   UNL     1     -12.788   7.977 130.630  0.00  0.00    +0.000 A 
ATOM     16  C   UNL     1     -12.527   8.890 129.610  0.00  0.00    +0.000 A 
ATOM     17 CL   UNL     1     -13.327  10.413 129.601  0.00  0.00    +0.000 Cl
ATOM     18  C   UNL     1     -11.619   8.571 128.603  0.00  0.00    +0.000 A 
ATOM     19  C   UNL     1     -10.986   7.322 128.610  0.00  0.00    +0.000 A 
ENDBRANCH  12  13
ENDBRANCH  11  12
ENDBRANCH   1  11
TORSDOF 7
ENDMDL
MODEL 6
REMARK VINA RESULT:      -5.4     10.498     11.031
REMARK  Name = Chlorphenesin carbamate
REMARK  7 active torsions:
REMARK  status: ('A' for Active; 'I' for Inactive)
REMARK    1  A    between atoms: C_2  and  O_4
REMARK    2  A    between atoms: O_4  and  C_5
REMARK    3  A    between atoms: C_5  and  C_6
REMARK    4  A    between atoms: C_6  and  O_7
REMARK    5  A    between atoms: C_6  and  C_8
REMARK    6  A    between atoms: C_8  and  O_9
REMARK    7  A    between atoms: O_9  and  C_10
REMARK                            x       y       z     vdW  Elec       q    Type
REMARK                         _______ _______ _______ _____ _____    ______ ____
ROOT
ATOM      1  C   UNL     1     -11.721   6.852 130.744  0.00  0.00    +0.000 C 
ENDROOT
BRANCH   1   2
ATOM      2  O   UNL     1     -12.498   6.401 131.865  0.00  0.00    +0.000 OA
ATOM      3  H   UNL     1     -12.392   5.439 131.941  0.00  0.00    +0.000 HD
ENDBRANCH   1   2
BRANCH   1   4
ATOM      4  C   UNL     1     -12.493   6.564 129.437  0.00  0.00    +0.000 C 
BRANCH   4   5
ATOM      5  O   UNL     1     -13.267   7.719 129.032  0.00  0.00    +0.000 OA
BRANCH   5   7
ATOM      6  N   UNL     1     -12.963   9.943 128.950  0.00  0.00    +0.000 N 
ATOM      7  C   UNL     1     -12.533   8.735 128.511  0.00  0.00    +0.000 C 
ATOM      8  O   UNL     1     -11.592   8.613 127.739  0.00  0.00    +0.000 OA
ATOM      9  H   UNL     1     -12.485  10.773 128.626  0.00  0.00    +0.000 HD
ATOM     10  H   UNL     1     -13.748  10.033 129.577  0.00  0.00    +0.000 HD
ENDBRANCH   5   7
ENDBRANCH   4   5
ENDBRANCH   1   4
BRANCH   1  11
ATOM     11  C   UNL     1     -10.330   6.169 130.755  0.00  0.00    +0.000 C 
BRANCH  11  12
ATOM     12  O   UNL     1      -9.694   6.386 132.030  0.00  0.00    +0.000 OA
BRANCH  12  13
ATOM     13  C   UNL     1      -8.323   6.331 132.025  0.00  0.00    +0.000 A 
ATOM     14  C   UNL     1      -7.528   6.926 131.046  0.00  0.00    +0.000 A 
ATOM     15  C   UNL     1      -6.131   6.868 131.140  0.00  0.00    +0.000 A 
ATOM     16  C   UNL     1      -5.530   6.225 132.220  0.00  0.00    +0.000 A 
ATOM     17 CL   UNL     1      -3.814   6.137 132.314  0.00  0.00    +0.000 Cl
ATOM     18  C   UNL     1      -6.315   5.658 133.221  0.00  0.00    +0.000 A 
ATOM     19  C   UNL     1      -7.711   5.721 133.126  0.00  0.00    +0.000 A 
ENDBRANCH  12  13
ENDBRANCH  11  12
ENDBRANCH   1  11
TORSDOF 7
ENDMDL
MODEL 7
REMARK VINA RESULT:      -5.2     10.360     11.003
REMARK  Name = Chlorphenesin carbamate
REMARK  7 active torsions:
REMARK  status: ('A' for Active; 'I' for Inactive)
REMARK    1  A    between atoms: C_2  and  O_4
REMARK    2  A    between atoms: O_4  and  C_5
REMARK    3  A    between atoms: C_5  and  C_6
REMARK    4  A    between atoms: C_6  and  O_7
REMARK    5  A    between atoms: C_6  and  C_8
REMARK    6  A    between atoms: C_8  and  O_9
REMARK    7  A    between atoms: O_9  and  C_10
REMARK                            x       y       z     vdW  Elec       q    Type
REMARK                         _______ _______ _______ _____ _____    ______ ____
ROOT
ATOM      1  C   UNL     1     -11.500   6.913 130.938  0.00  0.00    +0.000 C 
ENDROOT
BRANCH   1   2
ATOM      2  O   UNL     1     -12.331   6.230 131.889  0.00  0.00    +0.000 OA
ATOM      3  H   UNL     1     -11.832   6.135 132.717  0.00  0.00    +0.000 HD
ENDBRANCH   1   2
BRANCH   1   4
ATOM      4  C   UNL     1     -11.987   6.592 129.507  0.00  0.00    +0.000 C 
BRANCH   4   5
ATOM      5  O   UNL     1     -12.980   7.553 129.075  0.00  0.00    +0.000 OA
BRANCH   5   7
ATOM      6  N   UNL     1     -11.479   8.897 128.081  0.00  0.00    +0.000 N 
ATOM      7  C   UNL     1     -12.519   8.822 128.948  0.00  0.00    +0.000 C 
ATOM      8  O   UNL     1     -12.962   9.804 129.527  0.00  0.00    +0.000 OA
ATOM      9  H   UNL     1     -11.058   9.799 127.907  0.00  0.00    +0.000 HD
ATOM     10  H   UNL     1     -11.113   8.079 127.617  0.00  0.00    +0.000 HD
ENDBRANCH   5   7
ENDBRANCH   4   5
ENDBRANCH   1   4
BRANCH   1  11
ATOM     11  C   UNL     1     -10.018   6.513 131.146  0.00  0.00    +0.000 C 
BRANCH  11  12
ATOM     12  O   UNL     1      -9.713   6.498 132.555  0.00  0.00    +0.000 OA
BRANCH  12  13
ATOM     13  C   UNL     1      -8.821   5.537 132.958  0.00  0.00    +0.000 A 
ATOM     14  C   UNL     1      -7.455   5.767 133.120  0.00  0.00    +0.000 A 
ATOM     15  C   UNL     1      -6.617   4.745 133.584  0.00  0.00    +0.000 A 
ATOM     16  C   UNL     1      -7.148   3.496 133.899  0.00  0.00    +0.000 A 
ATOM     17 CL   UNL     1      -6.107   2.239 134.445  0.00  0.00    +0.000 Cl
ATOM     18  C   UNL     1      -8.516   3.266 133.775  0.00  0.00    +0.000 A 
ATOM     19  C   UNL     1      -9.351   4.291 133.313  0.00  0.00    +0.000 A 
ENDBRANCH  12  13
ENDBRANCH  11  12
ENDBRANCH   1  11
TORSDOF 7
ENDMDL
MODEL 8
REMARK VINA RESULT:      -5.1      9.257     11.455
REMARK  Name = Chlorphenesin carbamate
REMARK  7 active torsions:
REMARK  status: ('A' for Active; 'I' for Inactive)
REMARK    1  A    between atoms: C_2  and  O_4
REMARK    2  A    between atoms: O_4  and  C_5
REMARK    3  A    between atoms: C_5  and  C_6
REMARK    4  A    between atoms: C_6  and  O_7
REMARK    5  A    between atoms: C_6  and  C_8
REMARK    6  A    between atoms: C_8  and  O_9
REMARK    7  A    between atoms: O_9  and  C_10
REMARK                            x       y       z     vdW  Elec       q    Type
REMARK                         _______ _______ _______ _____ _____    ______ ____
ROOT
ATOM      1  C   UNL     1      -9.326   4.504 133.314  0.00  0.00    +0.000 C 
ENDROOT
BRANCH   1   2
ATOM      2  O   UNL     1      -8.593   4.488 134.549  0.00  0.00    +0.000 OA
ATOM      3  H   UNL     1      -8.708   3.616 134.960  0.00  0.00    +0.000 HD
ENDBRANCH   1   2
BRANCH   1   4
ATOM      4  C   UNL     1      -8.482   3.833 132.208  0.00  0.00    +0.000 C 
BRANCH   4   5
ATOM      5  O   UNL     1      -9.241   2.795 131.542  0.00  0.00    +0.000 OA
BRANCH   5   7
ATOM      6  N   UNL     1      -8.788   3.163 129.372  0.00  0.00    +0.000 N 
ATOM      7  C   UNL     1      -9.744   3.152 130.333  0.00  0.00    +0.000 C 
ATOM      8  O   UNL     1     -10.912   3.434 130.102  0.00  0.00    +0.000 OA
ATOM      9  H   UNL     1      -9.054   3.413 128.430  0.00  0.00    +0.000 HD
ATOM     10  H   UNL     1      -7.826   2.940 129.576  0.00  0.00    +0.000 HD
ENDBRANCH   5   7
ENDBRANCH   4   5
ENDBRANCH   1   4
BRANCH   1  11
ATOM     11  C   UNL     1      -9.708   5.960 132.945  0.00  0.00    +0.000 C 
BRANCH  11  12
ATOM     12  O   UNL     1      -9.413   6.201 131.555  0.00  0.00    +0.000 OA
BRANCH  12  13
ATOM     13  C   UNL     1     -10.402   6.826 130.839  0.00  0.00    +0.000 A 
ATOM     14  C   UNL     1     -11.723   6.933 131.272  0.00  0.00    +0.000 A 
ATOM     15  C   UNL     1     -12.663   7.632 130.505  0.00  0.00    +0.000 A 
ATOM     16  C   UNL     1     -12.280   8.235 129.309  0.00  0.00    +0.000 A 
ATOM     17 CL   UNL     1     -13.447   9.070 128.361  0.00  0.00    +0.000 Cl
ATOM     18  C   UNL     1     -10.955   8.165 128.885  0.00  0.00    +0.000 A 
ATOM     19  C   UNL     1     -10.016   7.468 129.656  0.00  0.00    +0.000 A 
ENDBRANCH  12  13
ENDBRANCH  11  12
ENDBRANCH   1  11
TORSDOF 7
ENDMDL
MODEL 9
REMARK VINA RESULT:      -5.0      5.164      6.741
REMARK  Name = Chlorphenesin carbamate
REMARK  7 active torsions:
REMARK  status: ('A' for Active; 'I' for Inactive)
REMARK    1  A    between atoms: C_2  and  O_4
REMARK    2  A    between atoms: O_4  and  C_5
REMARK    3  A    between atoms: C_5  and  C_6
REMARK    4  A    between atoms: C_6  and  O_7
REMARK    5  A    between atoms: C_6  and  C_8
REMARK    6  A    between atoms: C_8  and  O_9
REMARK    7  A    between atoms: O_9  and  C_10
REMARK                            x       y       z     vdW  Elec       q    Type
REMARK                         _______ _______ _______ _____ _____    ______ ____
ROOT
ATOM      1  C   UNL     1      -7.722   2.995 125.021  0.00  0.00    +0.000 C 
ENDROOT
BRANCH   1   2
ATOM      2  O   UNL     1      -8.624   4.103 124.875  0.00  0.00    +0.000 OA
ATOM      3  H   UNL     1      -8.124   4.859 124.528  0.00  0.00    +0.000 HD
ENDBRANCH   1   2
BRANCH   1   4
ATOM      4  C   UNL     1      -6.506   3.432 125.867  0.00  0.00    +0.000 C 
BRANCH   4   5
ATOM      5  O   UNL     1      -6.305   2.529 126.981  0.00  0.00    +0.000 OA
BRANCH   5   7
ATOM      6  N   UNL     1      -4.797   1.002 126.317  0.00  0.00    +0.000 N 
ATOM      7  C   UNL     1      -5.034   2.072 127.115  0.00  0.00    +0.000 C 
ATOM      8  O   UNL     1      -4.180   2.543 127.853  0.00  0.00    +0.000 OA
ATOM      9  H   UNL     1      -3.878   0.581 126.334  0.00  0.00    +0.000 HD
ATOM     10  H   UNL     1      -5.512   0.614 125.720  0.00  0.00    +0.000 HD
ENDBRANCH   5   7
ENDBRANCH   4   5
ENDBRANCH   1   4
BRANCH   1  11
ATOM     11  C   UNL     1      -7.296   2.473 123.626  0.00  0.00    +0.000 C 
BRANCH  11  12
ATOM     12  O   UNL     1      -6.062   3.102 123.229  0.00  0.00    +0.000 OA
BRANCH  12  13
ATOM     13  C   UNL     1      -6.064   3.680 121.985  0.00  0.00    +0.000 A 
ATOM     14  C   UNL     1      -7.122   3.572 121.082  0.00  0.00    +0.000 A 
ATOM     15  C   UNL     1      -7.069   4.235 119.850  0.00  0.00    +0.000 A 
ATOM     16  C   UNL     1      -5.963   5.017 119.524  0.00  0.00    +0.000 A 
ATOM     17 CL   UNL     1      -5.896   5.808 117.998  0.00  0.00    +0.000 Cl
ATOM     18  C   UNL     1      -4.917   5.161 120.433  0.00  0.00    +0.000 A 
ATOM     19  C   UNL     1      -4.974   4.499 121.666  0.00  0.00    +0.000 A 
ENDBRANCH  12  13
ENDBRANCH  11  12
ENDBRANCH   1  11
TORSDOF 7
ENDMDL
