MODEL 1
REMARK VINA RESULT:      -7.4      0.000      0.000
REMARK  Name = Chlorcyclizine
REMARK  4 active torsions:
REMARK  status: ('A' for Active; 'I' for Inactive)
REMARK    1  A    between atoms: C_1  and  N_2
REMARK    2  A    between atoms: N_5  and  C_8
REMARK    3  A    between atoms: C_8  and  C_9
REMARK    4  A    between atoms: C_8  and  C_15
REMARK                            x       y       z     vdW  Elec       q    Type
REMARK                         _______ _______ _______ _____ _____    ______ ____
ROOT
ATOM      1  C   UNL     1      -7.417   1.958 123.815  0.00  0.00    +0.000 C 
ENDROOT
BRANCH   1   6
ATOM      2  C   UNL     1      -5.609   3.906 127.884  0.00  0.00    +0.000 C 
ATOM      3  N   UNL     1      -6.812   3.584 127.134  0.00  0.00    +0.000 NA
ATOM      4  C   UNL     1      -6.961   2.132 126.931  0.00  0.00    +0.000 C 
ATOM      5  C   UNL     1      -8.251   1.803 126.135  0.00  0.00    +0.000 C 
ATOM      6  N   UNL     1      -8.374   2.517 124.824  0.00  0.00    +0.000 NA
ATOM      7  C   UNL     1      -8.188   3.951 125.135  0.00  0.00    +0.000 C 
ATOM      8  C   UNL     1      -6.839   4.257 125.829  0.00  0.00    +0.000 C 
ENDBRANCH   1   6
BRANCH   1   9
ATOM      9  C   UNL     1      -7.302   2.750 122.476  0.00  0.00    +0.000 A 
ATOM     10  C   UNL     1      -6.070   3.125 121.909  0.00  0.00    +0.000 A 
ATOM     11  C   UNL     1      -5.991   3.842 120.711  0.00  0.00    +0.000 A 
ATOM     12  C   UNL     1      -7.151   4.139 120.010  0.00  0.00    +0.000 A 
ATOM     13 CL   UNL     1      -7.060   4.931 118.491  0.00  0.00    +0.000 Cl
ATOM     14  C   UNL     1      -8.383   3.816 120.547  0.00  0.00    +0.000 A 
ATOM     15  C   UNL     1      -8.452   3.204 121.800  0.00  0.00    +0.000 A 
ENDBRANCH   1   9
BRANCH   1  16
ATOM     16  C   UNL     1      -7.770   0.481 123.560  0.00  0.00    +0.000 A 
ATOM     17  C   UNL     1      -6.779  -0.510 123.577  0.00  0.00    +0.000 A 
ATOM     18  C   UNL     1      -7.089  -1.810 123.181  0.00  0.00    +0.000 A 
ATOM     19  C   UNL     1      -8.392  -2.137 122.800  0.00  0.00    +0.000 A 
ATOM     20  C   UNL     1      -9.401  -1.177 122.847  0.00  0.00    +0.000 A 
ATOM     21  C   UNL     1      -9.097   0.117 123.253  0.00  0.00    +0.000 A 
ENDBRANCH   1  16
TORSDOF 3
ENDMDL
MODEL 2
REMARK VINA RESULT:      -7.1      2.501      4.737
REMARK  Name = Chlorcyclizine
REMARK  4 active torsions:
REMARK  status: ('A' for Active; 'I' for Inactive)
REMARK    1  A    between atoms: C_1  and  N_2
REMARK    2  A    between atoms: N_5  and  C_8
REMARK    3  A    between atoms: C_8  and  C_9
REMARK    4  A    between atoms: C_8  and  C_15
REMARK                            x       y       z     vdW  Elec       q    Type
REMARK                         _______ _______ _______ _____ _____    ______ ____
ROOT
ATOM      1  C   UNL     1      -7.411   2.423 123.787  0.00  0.00    +0.000 C 
ENDROOT
BRANCH   1   6
ATOM      2  C   UNL     1      -7.792   4.193 128.297  0.00  0.00    +0.000 C 
ATOM      3  N   UNL     1      -6.901   3.920 127.182  0.00  0.00    +0.000 NA
ATOM      4  C   UNL     1      -7.275   4.686 125.980  0.00  0.00    +0.000 C 
ATOM      5  C   UNL     1      -6.312   4.389 124.800  0.00  0.00    +0.000 C 
ATOM      6  N   UNL     1      -6.173   2.938 124.458  0.00  0.00    +0.000 NA
ATOM      7  C   UNL     1      -5.823   2.263 125.727  0.00  0.00    +0.000 C 
ATOM      8  C   UNL     1      -6.865   2.490 126.849  0.00  0.00    +0.000 C 
ENDBRANCH   1   6
BRANCH   1   9
ATOM      9  C   UNL     1      -7.620   0.878 123.841  0.00  0.00    +0.000 A 
ATOM     10  C   UNL     1      -6.802  -0.032 123.147  0.00  0.00    +0.000 A 
ATOM     11  C   UNL     1      -7.012  -1.413 123.204  0.00  0.00    +0.000 A 
ATOM     12  C   UNL     1      -8.009  -1.924 124.023  0.00  0.00    +0.000 A 
ATOM     13 CL   UNL     1      -8.212  -3.621 124.177  0.00  0.00    +0.000 Cl
ATOM     14  C   UNL     1      -8.855  -1.063 124.697  0.00  0.00    +0.000 A 
ATOM     15  C   UNL     1      -8.707   0.316 124.539  0.00  0.00    +0.000 A 
ENDBRANCH   1   9
BRANCH   1  16
ATOM     16  C   UNL     1      -7.442   2.939 122.338  0.00  0.00    +0.000 A 
ATOM     17  C   UNL     1      -6.254   3.194 121.638  0.00  0.00    +0.000 A 
ATOM     18  C   UNL     1      -6.301   3.818 120.392  0.00  0.00    +0.000 A 
ATOM     19  C   UNL     1      -7.530   4.158 119.822  0.00  0.00    +0.000 A 
ATOM     20  C   UNL     1      -8.719   3.846 120.477  0.00  0.00    +0.000 A 
ATOM     21  C   UNL     1      -8.676   3.214 121.714  0.00  0.00    +0.000 A 
ENDBRANCH   1  16
TORSDOF 3
ENDMDL
MODEL 3
REMARK VINA RESULT:      -6.9      2.622      5.256
REMARK  Name = Chlorcyclizine
REMARK  4 active torsions:
REMARK  status: ('A' for Active; 'I' for Inactive)
REMARK    1  A    between atoms: C_1  and  N_2
REMARK    2  A    between atoms: N_5  and  C_8
REMARK    3  A    between atoms: C_8  and  C_9
REMARK    4  A    between atoms: C_8  and  C_15
REMARK                            x       y       z     vdW  Elec       q    Type
REMARK                         _______ _______ _______ _____ _____    ______ ____
ROOT
ATOM      1  C   UNL     1      -7.517   2.343 123.436  0.00  0.00    +0.000 C 
ENDROOT
BRANCH   1   6
ATOM      2  C   UNL     1      -8.902  -2.078 124.903  0.00  0.00    +0.000 C 
ATOM      3  N   UNL     1      -9.320  -0.712 124.639  0.00  0.00    +0.000 NA
ATOM      4  C   UNL     1      -9.147  -0.349 123.221  0.00  0.00    +0.000 C 
ATOM      5  C   UNL     1      -9.603   1.110 122.953  0.00  0.00    +0.000 C 
ATOM      6  N   UNL     1      -8.950   2.137 123.825  0.00  0.00    +0.000 NA
ATOM      7  C   UNL     1      -9.160   1.669 125.213  0.00  0.00    +0.000 C 
ATOM      8  C   UNL     1      -8.593   0.253 125.474  0.00  0.00    +0.000 C 
ENDBRANCH   1   6
BRANCH   1   9
ATOM      9  C   UNL     1      -6.614   3.028 124.507  0.00  0.00    +0.000 A 
ATOM     10  C   UNL     1      -5.655   2.330 125.263  0.00  0.00    +0.000 A 
ATOM     11  C   UNL     1      -4.860   2.963 126.224  0.00  0.00    +0.000 A 
ATOM     12  C   UNL     1      -4.958   4.337 126.399  0.00  0.00    +0.000 A 
ATOM     13 CL   UNL     1      -3.920   5.139 127.504  0.00  0.00    +0.000 Cl
ATOM     14  C   UNL     1      -5.909   5.055 125.699  0.00  0.00    +0.000 A 
ATOM     15  C   UNL     1      -6.774   4.391 124.828  0.00  0.00    +0.000 A 
ENDBRANCH   1   9
BRANCH   1  16
ATOM     16  C   UNL     1      -7.471   3.103 122.098  0.00  0.00    +0.000 A 
ATOM     17  C   UNL     1      -8.651   3.470 121.436  0.00  0.00    +0.000 A 
ATOM     18  C   UNL     1      -8.589   4.006 120.151  0.00  0.00    +0.000 A 
ATOM     19  C   UNL     1      -7.354   4.212 119.534  0.00  0.00    +0.000 A 
ATOM     20  C   UNL     1      -6.172   3.917 120.210  0.00  0.00    +0.000 A 
ATOM     21  C   UNL     1      -6.229   3.393 121.496  0.00  0.00    +0.000 A 
ENDBRANCH   1  16
TORSDOF 3
ENDMDL
MODEL 4
REMARK VINA RESULT:      -6.8      3.896      6.218
REMARK  Name = Chlorcyclizine
REMARK  4 active torsions:
REMARK  status: ('A' for Active; 'I' for Inactive)
REMARK    1  A    between atoms: C_1  and  N_2
REMARK    2  A    between atoms: N_5  and  C_8
REMARK    3  A    between atoms: C_8  and  C_9
REMARK    4  A    between atoms: C_8  and  C_15
REMARK                            x       y       z     vdW  Elec       q    Type
REMARK                         _______ _______ _______ _____ _____    ______ ____
ROOT
ATOM      1  C   UNL     1      -7.743  -0.997 125.877  0.00  0.00    +0.000 C 
ENDROOT
BRANCH   1   6
ATOM      2  C   UNL     1      -8.445   2.954 123.135  0.00  0.00    +0.000 C 
ATOM      3  N   UNL     1      -9.045   1.754 123.694  0.00  0.00    +0.000 NA
ATOM      4  C   UNL     1      -9.057   1.781 125.168  0.00  0.00    +0.000 C 
ATOM      5  C   UNL     1      -9.706   0.497 125.750  0.00  0.00    +0.000 C 
ATOM      6  N   UNL     1      -9.096  -0.783 125.268  0.00  0.00    +0.000 NA
ATOM      7  C   UNL     1      -9.110  -0.698 123.792  0.00  0.00    +0.000 C 
ATOM      8  C   UNL     1      -8.357   0.538 123.242  0.00  0.00    +0.000 C 
ENDBRANCH   1   6
BRANCH   1   9
ATOM      9  C   UNL     1      -6.823  -2.022 125.145  0.00  0.00    +0.000 A 
ATOM     10  C   UNL     1      -5.531  -1.704 124.687  0.00  0.00    +0.000 A 
ATOM     11  C   UNL     1      -4.726  -2.636 124.026  0.00  0.00    +0.000 A 
ATOM     12  C   UNL     1      -5.171  -3.942 123.873  0.00  0.00    +0.000 A 
ATOM     13 CL   UNL     1      -4.153  -5.120 123.151  0.00  0.00    +0.000 Cl
ATOM     14  C   UNL     1      -6.446  -4.288 124.280  0.00  0.00    +0.000 A 
ATOM     15  C   UNL     1      -7.282  -3.317 124.833  0.00  0.00    +0.000 A 
ENDBRANCH   1   9
BRANCH   1  16
ATOM     16  C   UNL     1      -7.919  -1.367 127.361  0.00  0.00    +0.000 A 
ATOM     17  C   UNL     1      -7.599  -0.452 128.374  0.00  0.00    +0.000 A 
ATOM     18  C   UNL     1      -7.606  -0.861 129.707  0.00  0.00    +0.000 A 
ATOM     19  C   UNL     1      -7.964  -2.169 130.039  0.00  0.00    +0.000 A 
ATOM     20  C   UNL     1      -8.351  -3.066 129.047  0.00  0.00    +0.000 A 
ATOM     21  C   UNL     1      -8.357  -2.659 127.718  0.00  0.00    +0.000 A 
ENDBRANCH   1  16
TORSDOF 3
ENDMDL
MODEL 5
REMARK VINA RESULT:      -6.5      4.774      6.714
REMARK  Name = Chlorcyclizine
REMARK  4 active torsions:
REMARK  status: ('A' for Active; 'I' for Inactive)
REMARK    1  A    between atoms: C_1  and  N_2
REMARK    2  A    between atoms: N_5  and  C_8
REMARK    3  A    between atoms: C_8  and  C_9
REMARK    4  A    between atoms: C_8  and  C_15
REMARK                            x       y       z     vdW  Elec       q    Type
REMARK                         _______ _______ _______ _____ _____    ______ ____
ROOT
ATOM      1  C   UNL     1      -6.406  -1.462 127.824  0.00  0.00    +0.000 C 
ENDROOT
BRANCH   1   6
ATOM      2  C   UNL     1      -4.830   3.125 127.522  0.00  0.00    +0.000 C 
ATOM      3  N   UNL     1      -5.757   2.211 128.166  0.00  0.00    +0.000 NA
ATOM      4  C   UNL     1      -5.056   1.164 128.931  0.00  0.00    +0.000 C 
ATOM      5  C   UNL     1      -6.058   0.200 129.618  0.00  0.00    +0.000 C 
ATOM      6  N   UNL     1      -7.055  -0.427 128.693  0.00  0.00    +0.000 NA
ATOM      7  C   UNL     1      -7.680   0.698 127.963  0.00  0.00    +0.000 C 
ATOM      8  C   UNL     1      -6.659   1.574 127.198  0.00  0.00    +0.000 C 
ENDBRANCH   1   6
BRANCH   1   9
ATOM      9  C   UNL     1      -7.292  -2.037 126.676  0.00  0.00    +0.000 A 
ATOM     10  C   UNL     1      -8.624  -2.445 126.865  0.00  0.00    +0.000 A 
ATOM     11  C   UNL     1      -9.398  -2.965 125.823  0.00  0.00    +0.000 A 
ATOM     12  C   UNL     1      -8.873  -3.020 124.539  0.00  0.00    +0.000 A 
ATOM     13 CL   UNL     1      -9.845  -3.563 123.233  0.00  0.00    +0.000 Cl
ATOM     14  C   UNL     1      -7.558  -2.657 124.316  0.00  0.00    +0.000 A 
ATOM     15  C   UNL     1      -6.762  -2.251 125.388  0.00  0.00    +0.000 A 
ENDBRANCH   1   9
BRANCH   1  16
ATOM     16  C   UNL     1      -5.855  -2.587 128.720  0.00  0.00    +0.000 A 
ATOM     17  C   UNL     1      -6.698  -3.295 129.588  0.00  0.00    +0.000 A 
ATOM     18  C   UNL     1      -6.154  -4.190 130.507  0.00  0.00    +0.000 A 
ATOM     19  C   UNL     1      -4.776  -4.410 130.544  0.00  0.00    +0.000 A 
ATOM     20  C   UNL     1      -3.936  -3.765 129.639  0.00  0.00    +0.000 A 
ATOM     21  C   UNL     1      -4.476  -2.880 128.713  0.00  0.00    +0.000 A 
ENDBRANCH   1  16
TORSDOF 3
ENDMDL
MODEL 6
REMARK VINA RESULT:      -6.5      6.056      8.587
REMARK  Name = Chlorcyclizine
REMARK  4 active torsions:
REMARK  status: ('A' for Active; 'I' for Inactive)
REMARK    1  A    between atoms: C_1  and  N_2
REMARK    2  A    between atoms: N_5  and  C_8
REMARK    3  A    between atoms: C_8  and  C_9
REMARK    4  A    between atoms: C_8  and  C_15
REMARK                            x       y       z     vdW  Elec       q    Type
REMARK                         _______ _______ _______ _____ _____    ______ ____
ROOT
ATOM      1  C   UNL     1      -7.265  -1.730 130.042  0.00  0.00    +0.000 C 
ENDROOT
BRANCH   1   6
ATOM      2  C   UNL     1      -5.009  -5.210 132.575  0.00  0.00    +0.000 C 
ATOM      3  N   UNL     1      -4.851  -3.992 131.797  0.00  0.00    +0.000 NA
ATOM      4  C   UNL     1      -5.530  -2.846 132.427  0.00  0.00    +0.000 C 
ATOM      5  C   UNL     1      -5.348  -1.553 131.590  0.00  0.00    +0.000 C 
ATOM      6  N   UNL     1      -5.772  -1.672 130.159  0.00  0.00    +0.000 NA
ATOM      7  C   UNL     1      -5.058  -2.856 129.632  0.00  0.00    +0.000 C 
ATOM      8  C   UNL     1      -5.351  -4.151 130.426  0.00  0.00    +0.000 C 
ENDBRANCH   1   6
BRANCH   1   9
ATOM      9  C   UNL     1      -7.822  -2.136 128.643  0.00  0.00    +0.000 A 
ATOM     10  C   UNL     1      -7.729  -1.309 127.510  0.00  0.00    +0.000 A 
ATOM     11  C   UNL     1      -8.242  -1.690 126.266  0.00  0.00    +0.000 A 
ATOM     12  C   UNL     1      -8.800  -2.952 126.111  0.00  0.00    +0.000 A 
ATOM     13 CL   UNL     1      -9.343  -3.469 124.567  0.00  0.00    +0.000 Cl
ATOM     14  C   UNL     1      -8.938  -3.784 127.206  0.00  0.00    +0.000 A 
ATOM     15  C   UNL     1      -8.528  -3.343 128.465  0.00  0.00    +0.000 A 
ENDBRANCH   1   9
BRANCH   1  16
ATOM     16  C   UNL     1      -7.851  -0.384 130.506  0.00  0.00    +0.000 A 
ATOM     17  C   UNL     1      -8.797  -0.328 131.540  0.00  0.00    +0.000 A 
ATOM     18  C   UNL     1      -9.438   0.875 131.831  0.00  0.00    +0.000 A 
ATOM     19  C   UNL     1      -9.116   2.033 131.120  0.00  0.00    +0.000 A 
ATOM     20  C   UNL     1      -8.128   2.004 130.139  0.00  0.00    +0.000 A 
ATOM     21  C   UNL     1      -7.479   0.809 129.853  0.00  0.00    +0.000 A 
ENDBRANCH   1  16
TORSDOF 3
ENDMDL
MODEL 7
REMARK VINA RESULT:      -6.3      5.525      7.601
REMARK  Name = Chlorcyclizine
REMARK  4 active torsions:
REMARK  status: ('A' for Active; 'I' for Inactive)
REMARK    1  A    between atoms: C_1  and  N_2
REMARK    2  A    between atoms: N_5  and  C_8
REMARK    3  A    between atoms: C_8  and  C_9
REMARK    4  A    between atoms: C_8  and  C_15
REMARK                            x       y       z     vdW  Elec       q    Type
REMARK                         _______ _______ _______ _____ _____    ______ ____
ROOT
ATOM      1  C   UNL     1      -7.407  -1.437 127.792  0.00  0.00    +0.000 C 
ENDROOT
BRANCH   1   6
ATOM      2  C   UNL     1      -9.026   2.786 129.571  0.00  0.00    +0.000 C 
ATOM      3  N   UNL     1      -8.010   2.129 128.765  0.00  0.00    +0.000 NA
ATOM      4  C   UNL     1      -8.589   1.479 127.575  0.00  0.00    +0.000 C 
ATOM      5  C   UNL     1      -7.493   0.788 126.722  0.00  0.00    +0.000 C 
ATOM      6  N   UNL     1      -6.642  -0.188 127.473  0.00  0.00    +0.000 NA
ATOM      7  C   UNL     1      -6.134   0.551 128.649  0.00  0.00    +0.000 C 
ATOM      8  C   UNL     1      -7.259   1.133 129.539  0.00  0.00    +0.000 C 
ENDBRANCH   1   6
BRANCH   1   9
ATOM      9  C   UNL     1      -6.773  -2.365 128.873  0.00  0.00    +0.000 A 
ATOM     10  C   UNL     1      -5.453  -2.845 128.794  0.00  0.00    +0.000 A 
ATOM     11  C   UNL     1      -4.907  -3.683 129.771  0.00  0.00    +0.000 A 
ATOM     12  C   UNL     1      -5.653  -4.003 130.897  0.00  0.00    +0.000 A 
ATOM     13 CL   UNL     1      -4.959  -4.949 132.149  0.00  0.00    +0.000 Cl
ATOM     14  C   UNL     1      -6.964  -3.578 130.999  0.00  0.00    +0.000 A 
ATOM     15  C   UNL     1      -7.533  -2.839 129.961  0.00  0.00    +0.000 A 
ENDBRANCH   1   9
BRANCH   1  16
ATOM     16  C   UNL     1      -7.673  -2.204 126.485  0.00  0.00    +0.000 A 
ATOM     17  C   UNL     1      -6.636  -2.463 125.578  0.00  0.00    +0.000 A 
ATOM     18  C   UNL     1      -6.926  -3.008 124.328  0.00  0.00    +0.000 A 
ATOM     19  C   UNL     1      -8.242  -3.330 123.989  0.00  0.00    +0.000 A 
ATOM     20  C   UNL     1      -9.271  -3.142 124.909  0.00  0.00    +0.000 A 
ATOM     21  C   UNL     1      -8.984  -2.609 126.160  0.00  0.00    +0.000 A 
ENDBRANCH   1  16
TORSDOF 3
ENDMDL
MODEL 8
REMARK VINA RESULT:      -6.2      3.482      6.841
REMARK  Name = Chlorcyclizine
REMARK  4 active torsions:
REMARK  status: ('A' for Active; 'I' for Inactive)
REMARK    1  A    between atoms: C_1  and  N_2
REMARK    2  A    between atoms: N_5  and  C_8
REMARK    3  A    between atoms: C_8  and  C_9
REMARK    4  A    between atoms: C_8  and  C_15
REMARK                            x       y       z     vdW  Elec       q    Type
REMARK                         _______ _______ _______ _____ _____    ______ ____
ROOT
ATOM      1  C   UNL     1      -5.508   2.413 125.616  0.00  0.00    +0.000 C 
ENDROOT
BRANCH   1   6
ATOM      2  C   UNL     1      -5.876   3.453 120.883  0.00  0.00    +0.000 C 
ATOM      3  N   UNL     1      -6.376   3.731 122.219  0.00  0.00    +0.000 NA
ATOM      4  C   UNL     1      -5.329   4.295 123.091  0.00  0.00    +0.000 C 
ATOM      5  C   UNL     1      -5.878   4.592 124.511  0.00  0.00    +0.000 C 
ATOM      6  N   UNL     1      -6.528   3.423 125.185  0.00  0.00    +0.000 NA
ATOM      7  C   UNL     1      -7.536   2.922 124.225  0.00  0.00    +0.000 C 
ATOM      8  C   UNL     1      -6.934   2.531 122.854  0.00  0.00    +0.000 C 
ENDBRANCH   1   6
BRANCH   1   9
ATOM      9  C   UNL     1      -6.073   1.085 126.207  0.00  0.00    +0.000 A 
ATOM     10  C   UNL     1      -7.165   1.043 127.092  0.00  0.00    +0.000 A 
ATOM     11  C   UNL     1      -7.651  -0.160 127.616  0.00  0.00    +0.000 A 
ATOM     12  C   UNL     1      -7.096  -1.363 127.203  0.00  0.00    +0.000 A 
ATOM     13 CL   UNL     1      -7.748  -2.849 127.763  0.00  0.00    +0.000 Cl
ATOM     14  C   UNL     1      -6.002  -1.364 126.358  0.00  0.00    +0.000 A 
ATOM     15  C   UNL     1      -5.454  -0.152 125.936  0.00  0.00    +0.000 A 
ENDBRANCH   1   9
BRANCH   1  16
ATOM     16  C   UNL     1      -4.527   3.086 126.594  0.00  0.00    +0.000 A 
ATOM     17  C   UNL     1      -4.993   3.891 127.643  0.00  0.00    +0.000 A 
ATOM     18  C   UNL     1      -4.089   4.623 128.411  0.00  0.00    +0.000 A 
ATOM     19  C   UNL     1      -2.718   4.530 128.163  0.00  0.00    +0.000 A 
ATOM     20  C   UNL     1      -2.239   3.679 127.170  0.00  0.00    +0.000 A 
ATOM     21  C   UNL     1      -3.136   2.939 126.409  0.00  0.00    +0.000 A 
ENDBRANCH   1  16
TORSDOF 3
ENDMDL
MODEL 9
REMARK VINA RESULT:      -6.1      8.210     10.654
REMARK  Name = Chlorcyclizine
REMARK  4 active torsions:
REMARK  status: ('A' for Active; 'I' for Inactive)
REMARK    1  A    between atoms: C_1  and  N_2
REMARK    2  A    between atoms: N_5  and  C_8
REMARK    3  A    between atoms: C_8  and  C_9
REMARK    4  A    between atoms: C_8  and  C_15
REMARK                            x       y       z     vdW  Elec       q    Type
REMARK                         _______ _______ _______ _____ _____    ______ ____
ROOT
ATOM      1  C   UNL     1      -3.547   6.237 131.741  0.00  0.00    +0.000 C 
ENDROOT
BRANCH   1   6
ATOM      2  C   UNL     1      -0.008   8.718 133.964  0.00  0.00    +0.000 C 
ATOM      3  N   UNL     1      -0.705   7.448 133.860  0.00  0.00    +0.000 NA
ATOM      4  C   UNL     1      -0.552   6.845 132.524  0.00  0.00    +0.000 C 
ATOM      5  C   UNL     1      -1.296   5.486 132.429  0.00  0.00    +0.000 C 
ATOM      6  N   UNL     1      -2.745   5.542 132.801  0.00  0.00    +0.000 NA
ATOM      7  C   UNL     1      -2.788   6.179 134.135  0.00  0.00    +0.000 C 
ATOM      8  C   UNL     1      -2.135   7.582 134.165  0.00  0.00    +0.000 C 
ENDBRANCH   1   6
BRANCH   1   9
ATOM      9  C   UNL     1      -5.096   6.170 131.908  0.00  0.00    +0.000 A 
ATOM     10  C   UNL     1      -5.729   5.388 132.891  0.00  0.00    +0.000 A 
ATOM     11  C   UNL     1      -7.121   5.338 133.017  0.00  0.00    +0.000 A 
ATOM     12  C   UNL     1      -7.915   6.134 132.203  0.00  0.00    +0.000 A 
ATOM     13 CL   UNL     1      -9.618   6.155 132.415  0.00  0.00    +0.000 Cl
ATOM     14  C   UNL     1      -7.334   6.893 131.205  0.00  0.00    +0.000 A 
ATOM     15  C   UNL     1      -5.952   6.844 131.014  0.00  0.00    +0.000 A 
ENDBRANCH   1   9
BRANCH   1  16
ATOM     16  C   UNL     1      -3.111   5.708 130.363  0.00  0.00    +0.000 A 
ATOM     17  C   UNL     1      -2.536   6.563 129.412  0.00  0.00    +0.000 A 
ATOM     18  C   UNL     1      -2.304   6.106 128.116  0.00  0.00    +0.000 A 
ATOM     19  C   UNL     1      -2.608   4.788 127.771  0.00  0.00    +0.000 A 
ATOM     20  C   UNL     1      -3.114   3.909 128.726  0.00  0.00    +0.000 A 
ATOM     21  C   UNL     1      -3.337   4.359 130.022  0.00  0.00    +0.000 A 
ENDBRANCH   1  16
TORSDOF 3
ENDMDL
