MODEL 1
REMARK VINA RESULT:      -6.7      0.000      0.000
REMARK  Name = Chlormezanone
REMARK  2 active torsions:
REMARK  status: ('A' for Active; 'I' for Inactive)
REMARK    1  A    between atoms: C_1  and  N_2
REMARK    2  A    between atoms: C_3  and  C_4
REMARK                            x       y       z     vdW  Elec       q    Type
REMARK                         _______ _______ _______ _____ _____    ______ ____
ROOT
ATOM      1  C   UNL     1     -12.958   7.620 131.739  0.00  0.00    +0.000 C 
ATOM      2  N   UNL     1     -12.287   8.128 130.546  0.00  0.00    +0.000 N 
ATOM      3  C   UNL     1     -11.083   7.498 129.986  0.00  0.00    +0.000 C 
ATOM      4  S   UNL     1     -11.263   7.014 128.245  0.00  0.00    +0.000 S 
ATOM      5  O   UNL     1     -12.379   6.106 128.087  0.00  0.00    +0.000 OA
ATOM      6  O   UNL     1      -9.956   6.720 127.677  0.00  0.00    +0.000 OA
ATOM      7  C   UNL     1     -11.790   8.568 127.620  0.00  0.00    +0.000 C 
ATOM      8  C   UNL     1     -13.023   9.023 128.375  0.00  0.00    +0.000 C 
ATOM      9  C   UNL     1     -12.807   9.229 129.875  0.00  0.00    +0.000 C 
ATOM     10  O   UNL     1     -13.199  10.242 130.446  0.00  0.00    +0.000 OA
ENDROOT
BRANCH   3  11
ATOM     11  C   UNL     1     -10.563   6.268 130.680  0.00  0.00    +0.000 A 
ATOM     12  C   UNL     1     -11.066   5.002 130.324  0.00  0.00    +0.000 A 
ATOM     13  C   UNL     1     -10.596   3.852 130.930  0.00  0.00    +0.000 A 
ATOM     14  C   UNL     1      -9.610   3.957 131.901  0.00  0.00    +0.000 A 
ATOM     15 CL   UNL     1      -9.071   2.534 132.695  0.00  0.00    +0.000 Cl
ATOM     16  C   UNL     1      -9.071   5.199 132.245  0.00  0.00    +0.000 A 
ATOM     17  C   UNL     1      -9.545   6.360 131.635  0.00  0.00    +0.000 A 
ENDBRANCH   3  11
TORSDOF 1
ENDMDL
MODEL 2
REMARK VINA RESULT:      -6.7      3.658      5.663
REMARK  Name = Chlormezanone
REMARK  2 active torsions:
REMARK  status: ('A' for Active; 'I' for Inactive)
REMARK    1  A    between atoms: C_1  and  N_2
REMARK    2  A    between atoms: C_3  and  C_4
REMARK                            x       y       z     vdW  Elec       q    Type
REMARK                         _______ _______ _______ _____ _____    ______ ____
ROOT
ATOM      1  C   UNL     1     -11.258   4.000 130.304  0.00  0.00    +0.000 C 
ATOM      2  N   UNL     1      -9.842   4.342 130.209  0.00  0.00    +0.000 N 
ATOM      3  C   UNL     1      -9.376   5.687 129.840  0.00  0.00    +0.000 C 
ATOM      4  S   UNL     1      -8.264   6.429 131.068  0.00  0.00    +0.000 S 
ATOM      5  O   UNL     1      -8.915   6.500 132.359  0.00  0.00    +0.000 OA
ATOM      6  O   UNL     1      -7.589   7.582 130.491  0.00  0.00    +0.000 OA
ATOM      7  C   UNL     1      -7.105   5.113 131.165  0.00  0.00    +0.000 C 
ATOM      8  C   UNL     1      -7.827   3.831 131.525  0.00  0.00    +0.000 C 
ATOM      9  C   UNL     1      -8.877   3.387 130.505  0.00  0.00    +0.000 C 
ATOM     10  O   UNL     1      -8.927   2.230 130.099  0.00  0.00    +0.000 OA
ENDROOT
BRANCH   3  11
ATOM     11  C   UNL     1     -10.426   6.733 129.583  0.00  0.00    +0.000 A 
ATOM     12  C   UNL     1     -10.458   7.399 128.343  0.00  0.00    +0.000 A 
ATOM     13  C   UNL     1     -11.420   8.352 128.069  0.00  0.00    +0.000 A 
ATOM     14  C   UNL     1     -12.368   8.649 129.038  0.00  0.00    +0.000 A 
ATOM     15 CL   UNL     1     -13.527   9.876 128.720  0.00  0.00    +0.000 Cl
ATOM     16  C   UNL     1     -12.379   7.976 130.262  0.00  0.00    +0.000 A 
ATOM     17  C   UNL     1     -11.408   7.015 130.540  0.00  0.00    +0.000 A 
ENDBRANCH   3  11
TORSDOF 1
ENDMDL
MODEL 3
REMARK VINA RESULT:      -6.6      8.574     10.245
REMARK  Name = Chlormezanone
REMARK  2 active torsions:
REMARK  status: ('A' for Active; 'I' for Inactive)
REMARK    1  A    between atoms: C_1  and  N_2
REMARK    2  A    between atoms: C_3  and  C_4
REMARK                            x       y       z     vdW  Elec       q    Type
REMARK                         _______ _______ _______ _____ _____    ______ ____
ROOT
ATOM      1  C   UNL     1      -6.836  -0.082 123.125  0.00  0.00    +0.000 C 
ATOM      2  N   UNL     1      -6.938   0.775 124.303  0.00  0.00    +0.000 N 
ATOM      3  C   UNL     1      -7.139   2.228 124.209  0.00  0.00    +0.000 C 
ATOM      4  S   UNL     1      -8.603   2.815 125.109  0.00  0.00    +0.000 S 
ATOM      5  O   UNL     1      -9.793   2.148 124.625  0.00  0.00    +0.000 OA
ATOM      6  O   UNL     1      -8.546   4.261 125.255  0.00  0.00    +0.000 OA
ATOM      7  C   UNL     1      -8.227   2.097 126.667  0.00  0.00    +0.000 C 
ATOM      8  C   UNL     1      -8.031   0.604 126.500  0.00  0.00    +0.000 C 
ATOM      9  C   UNL     1      -6.877   0.215 125.574  0.00  0.00    +0.000 C 
ATOM     10  O   UNL     1      -6.053  -0.633 125.899  0.00  0.00    +0.000 OA
ENDROOT
BRANCH   3  11
ATOM     11  C   UNL     1      -7.267   2.818 122.831  0.00  0.00    +0.000 A 
ATOM     12  C   UNL     1      -8.542   2.969 122.254  0.00  0.00    +0.000 A 
ATOM     13  C   UNL     1      -8.695   3.524 120.997  0.00  0.00    +0.000 A 
ATOM     14  C   UNL     1      -7.568   3.939 120.303  0.00  0.00    +0.000 A 
ATOM     15 CL   UNL     1      -7.754   4.573 118.718  0.00  0.00    +0.000 Cl
ATOM     16  C   UNL     1      -6.296   3.832 120.870  0.00  0.00    +0.000 A 
ATOM     17  C   UNL     1      -6.140   3.272 122.137  0.00  0.00    +0.000 A 
ENDBRANCH   3  11
TORSDOF 1
ENDMDL
MODEL 4
REMARK VINA RESULT:      -6.4      9.188     10.421
REMARK  Name = Chlormezanone
REMARK  2 active torsions:
REMARK  status: ('A' for Active; 'I' for Inactive)
REMARK    1  A    between atoms: C_1  and  N_2
REMARK    2  A    between atoms: C_3  and  C_4
REMARK                            x       y       z     vdW  Elec       q    Type
REMARK                         _______ _______ _______ _____ _____    ______ ____
ROOT
ATOM      1  C   UNL     1      -9.480  -0.884 122.759  0.00  0.00    +0.000 C 
ATOM      2  N   UNL     1      -9.125   0.135 123.743  0.00  0.00    +0.000 N 
ATOM      3  C   UNL     1      -7.870   0.092 124.508  0.00  0.00    +0.000 C 
ATOM      4  S   UNL     1      -6.863   1.592 124.331  0.00  0.00    +0.000 S 
ATOM      5  O   UNL     1      -6.550   1.826 122.937  0.00  0.00    +0.000 OA
ATOM      6  O   UNL     1      -5.833   1.620 125.358  0.00  0.00    +0.000 OA
ATOM      7  C   UNL     1      -8.099   2.760 124.768  0.00  0.00    +0.000 C 
ATOM      8  C   UNL     1      -9.301   2.586 123.864  0.00  0.00    +0.000 C 
ATOM      9  C   UNL     1      -9.973   1.214 123.960  0.00  0.00    +0.000 C 
ATOM     10  O   UNL     1     -11.189   1.103 124.079  0.00  0.00    +0.000 OA
ENDROOT
BRANCH   3  11
ATOM     11  C   UNL     1      -6.928  -1.046 124.223  0.00  0.00    +0.000 A 
ATOM     12  C   UNL     1      -6.485  -1.865 125.278  0.00  0.00    +0.000 A 
ATOM     13  C   UNL     1      -5.633  -2.929 125.046  0.00  0.00    +0.000 A 
ATOM     14  C   UNL     1      -5.216  -3.186 123.748  0.00  0.00    +0.000 A 
ATOM     15 CL   UNL     1      -4.110  -4.470 123.470  0.00  0.00    +0.000 Cl
ATOM     16  C   UNL     1      -5.670  -2.409 122.681  0.00  0.00    +0.000 A 
ATOM     17  C   UNL     1      -6.529  -1.335 122.913  0.00  0.00    +0.000 A 
ENDBRANCH   3  11
TORSDOF 1
ENDMDL
MODEL 5
REMARK VINA RESULT:      -6.4      9.277     10.403
REMARK  Name = Chlormezanone
REMARK  2 active torsions:
REMARK  status: ('A' for Active; 'I' for Inactive)
REMARK    1  A    between atoms: C_1  and  N_2
REMARK    2  A    between atoms: C_3  and  C_4
REMARK                            x       y       z     vdW  Elec       q    Type
REMARK                         _______ _______ _______ _____ _____    ______ ____
ROOT
ATOM      1  C   UNL     1      -5.960   1.331 125.342  0.00  0.00    +0.000 C 
ATOM      2  N   UNL     1      -7.113   1.410 124.449  0.00  0.00    +0.000 N 
ATOM      3  C   UNL     1      -7.530   0.288 123.596  0.00  0.00    +0.000 C 
ATOM      4  S   UNL     1      -9.254  -0.219 123.859  0.00  0.00    +0.000 S 
ATOM      5  O   UNL     1      -9.466  -0.584 125.243  0.00  0.00    +0.000 OA
ATOM      6  O   UNL     1      -9.688  -1.080 122.769  0.00  0.00    +0.000 OA
ATOM      7  C   UNL     1     -10.000   1.355 123.638  0.00  0.00    +0.000 C 
ATOM      8  C   UNL     1      -9.383   2.347 124.603  0.00  0.00    +0.000 C 
ATOM      9  C   UNL     1      -7.881   2.568 124.410  0.00  0.00    +0.000 C 
ATOM     10  O   UNL     1      -7.400   3.695 124.368  0.00  0.00    +0.000 OA
ENDROOT
BRANCH   3  11
ATOM     11  C   UNL     1      -6.732  -0.984 123.690  0.00  0.00    +0.000 A 
ATOM     12  C   UNL     1      -6.237  -1.584 122.517  0.00  0.00    +0.000 A 
ATOM     13  C   UNL     1      -5.486  -2.743 122.572  0.00  0.00    +0.000 A 
ATOM     14  C   UNL     1      -5.218  -3.314 123.808  0.00  0.00    +0.000 A 
ATOM     15 CL   UNL     1      -4.335  -4.786 123.870  0.00  0.00    +0.000 Cl
ATOM     16  C   UNL     1      -5.668  -2.717 124.987  0.00  0.00    +0.000 A 
ATOM     17  C   UNL     1      -6.427  -1.548 124.934  0.00  0.00    +0.000 A 
ENDBRANCH   3  11
TORSDOF 1
ENDMDL
MODEL 6
REMARK VINA RESULT:      -6.4      3.520      5.584
REMARK  Name = Chlormezanone
REMARK  2 active torsions:
REMARK  status: ('A' for Active; 'I' for Inactive)
REMARK    1  A    between atoms: C_1  and  N_2
REMARK    2  A    between atoms: C_3  and  C_4
REMARK                            x       y       z     vdW  Elec       q    Type
REMARK                         _______ _______ _______ _____ _____    ______ ____
ROOT
ATOM      1  C   UNL     1      -7.863   6.809 131.456  0.00  0.00    +0.000 C 
ATOM      2  N   UNL     1      -8.465   5.499 131.688  0.00  0.00    +0.000 N 
ATOM      3  C   UNL     1      -9.869   5.206 131.365  0.00  0.00    +0.000 C 
ATOM      4  S   UNL     1     -10.074   3.794 130.242  0.00  0.00    +0.000 S 
ATOM      5  O   UNL     1      -9.351   4.022 129.009  0.00  0.00    +0.000 OA
ATOM      6  O   UNL     1     -11.463   3.360 130.242  0.00  0.00    +0.000 OA
ATOM      7  C   UNL     1      -9.139   2.624 131.159  0.00  0.00    +0.000 C 
ATOM      8  C   UNL     1      -7.743   3.165 131.393  0.00  0.00    +0.000 C 
ATOM      9  C   UNL     1      -7.694   4.463 132.202  0.00  0.00    +0.000 C 
ATOM     10  O   UNL     1      -6.921   4.601 133.145  0.00  0.00    +0.000 OA
ENDROOT
BRANCH   3  11
ATOM     11  C   UNL     1     -10.681   6.313 130.750  0.00  0.00    +0.000 A 
ATOM     12  C   UNL     1     -11.881   6.720 131.362  0.00  0.00    +0.000 A 
ATOM     13  C   UNL     1     -12.641   7.746 130.831  0.00  0.00    +0.000 A 
ATOM     14  C   UNL     1     -12.202   8.381 129.678  0.00  0.00    +0.000 A 
ATOM     15 CL   UNL     1     -13.175   9.615 128.987  0.00  0.00    +0.000 Cl
ATOM     16  C   UNL     1     -10.996   8.019 129.073  0.00  0.00    +0.000 A 
ATOM     17  C   UNL     1     -10.230   6.983 129.607  0.00  0.00    +0.000 A 
ENDBRANCH   3  11
TORSDOF 1
ENDMDL
MODEL 7
REMARK VINA RESULT:      -6.2      8.792     10.315
REMARK  Name = Chlormezanone
REMARK  2 active torsions:
REMARK  status: ('A' for Active; 'I' for Inactive)
REMARK    1  A    between atoms: C_1  and  N_2
REMARK    2  A    between atoms: C_3  and  C_4
REMARK                            x       y       z     vdW  Elec       q    Type
REMARK                         _______ _______ _______ _____ _____    ______ ____
ROOT
ATOM      1  C   UNL     1      -8.378   0.483 126.561  0.00  0.00    +0.000 C 
ATOM      2  N   UNL     1      -8.053  -0.303 125.374  0.00  0.00    +0.000 N 
ATOM      3  C   UNL     1      -7.461  -1.646 125.453  0.00  0.00    +0.000 C 
ATOM      4  S   UNL     1      -8.427  -2.914 124.585  0.00  0.00    +0.000 S 
ATOM      5  O   UNL     1      -9.775  -2.968 125.111  0.00  0.00    +0.000 OA
ATOM      6  O   UNL     1      -7.627  -4.118 124.418  0.00  0.00    +0.000 OA
ATOM      7  C   UNL     1      -8.531  -2.110 123.028  0.00  0.00    +0.000 C 
ATOM      8  C   UNL     1      -9.141  -0.735 123.210  0.00  0.00    +0.000 C 
ATOM      9  C   UNL     1      -8.333   0.203 124.110  0.00  0.00    +0.000 C 
ATOM     10  O   UNL     1      -8.085   1.356 123.775  0.00  0.00    +0.000 OA
ENDROOT
BRANCH   3  11
ATOM     11  C   UNL     1      -7.218  -2.213 126.825  0.00  0.00    +0.000 A 
ATOM     12  C   UNL     1      -5.936  -2.125 127.399  0.00  0.00    +0.000 A 
ATOM     13  C   UNL     1      -5.685  -2.620 128.665  0.00  0.00    +0.000 A 
ATOM     14  C   UNL     1      -6.722  -3.208 129.375  0.00  0.00    +0.000 A 
ATOM     15 CL   UNL     1      -6.396  -3.876 130.923  0.00  0.00    +0.000 Cl
ATOM     16  C   UNL     1      -8.011  -3.275 128.841  0.00  0.00    +0.000 A 
ATOM     17  C   UNL     1      -8.265  -2.777 127.564  0.00  0.00    +0.000 A 
ENDBRANCH   3  11
TORSDOF 1
ENDMDL
MODEL 8
REMARK VINA RESULT:      -6.0      8.845     10.711
REMARK  Name = Chlormezanone
REMARK  2 active torsions:
REMARK  status: ('A' for Active; 'I' for Inactive)
REMARK    1  A    between atoms: C_1  and  N_2
REMARK    2  A    between atoms: C_3  and  C_4
REMARK                            x       y       z     vdW  Elec       q    Type
REMARK                         _______ _______ _______ _____ _____    ______ ____
ROOT
ATOM      1  C   UNL     1      -5.405  -1.113 125.777  0.00  0.00    +0.000 C 
ATOM      2  N   UNL     1      -6.394  -2.017 125.196  0.00  0.00    +0.000 N 
ATOM      3  C   UNL     1      -7.512  -2.571 125.974  0.00  0.00    +0.000 C 
ATOM      4  S   UNL     1      -9.140  -2.219 125.253  0.00  0.00    +0.000 S 
ATOM      5  O   UNL     1      -9.332  -0.791 125.116  0.00  0.00    +0.000 OA
ATOM      6  O   UNL     1     -10.148  -3.067 125.870  0.00  0.00    +0.000 OA
ATOM      7  C   UNL     1      -8.824  -2.837 123.640  0.00  0.00    +0.000 C 
ATOM      8  C   UNL     1      -7.610  -2.139 123.061  0.00  0.00    +0.000 C 
ATOM      9  C   UNL     1      -6.318  -2.355 123.850  0.00  0.00    +0.000 C 
ATOM     10  O   UNL     1      -5.271  -2.669 123.292  0.00  0.00    +0.000 OA
ENDROOT
BRANCH   3  11
ATOM     11  C   UNL     1      -7.625  -2.150 127.414  0.00  0.00    +0.000 A 
ATOM     12  C   UNL     1      -7.634  -0.781 127.741  0.00  0.00    +0.000 A 
ATOM     13  C   UNL     1      -7.755  -0.362 129.052  0.00  0.00    +0.000 A 
ATOM     14  C   UNL     1      -7.871  -1.314 130.055  0.00  0.00    +0.000 A 
ATOM     15 CL   UNL     1      -7.960  -0.793 131.689  0.00  0.00    +0.000 Cl
ATOM     16  C   UNL     1      -7.900  -2.676 129.752  0.00  0.00    +0.000 A 
ATOM     17  C   UNL     1      -7.778  -3.101 128.429  0.00  0.00    +0.000 A 
ENDBRANCH   3  11
TORSDOF 1
ENDMDL
MODEL 9
REMARK VINA RESULT:      -6.0      9.233     10.505
REMARK  Name = Chlormezanone
REMARK  2 active torsions:
REMARK  status: ('A' for Active; 'I' for Inactive)
REMARK    1  A    between atoms: C_1  and  N_2
REMARK    2  A    between atoms: C_3  and  C_4
REMARK                            x       y       z     vdW  Elec       q    Type
REMARK                         _______ _______ _______ _____ _____    ______ ____
ROOT
ATOM      1  C   UNL     1      -7.765  -3.953 124.810  0.00  0.00    +0.000 C 
ATOM      2  N   UNL     1      -8.535  -2.718 124.933  0.00  0.00    +0.000 N 
ATOM      3  C   UNL     1      -8.563  -1.924 126.170  0.00  0.00    +0.000 C 
ATOM      4  S   UNL     1      -8.054  -0.197 125.933  0.00  0.00    +0.000 S 
ATOM      5  O   UNL     1      -6.721  -0.138 125.372  0.00  0.00    +0.000 OA
ATOM      6  O   UNL     1      -8.427   0.592 127.097  0.00  0.00    +0.000 OA
ATOM      7  C   UNL     1      -9.162   0.199 124.629  0.00  0.00    +0.000 C 
ATOM      8  C   UNL     1      -8.966  -0.776 123.486  0.00  0.00    +0.000 C 
ATOM      9  C   UNL     1      -9.250  -2.236 123.843  0.00  0.00    +0.000 C 
ATOM     10  O   UNL     1      -9.948  -2.947 123.128  0.00  0.00    +0.000 OA
ENDROOT
BRANCH   3  11
ATOM     11  C   UNL     1      -7.736  -2.418 127.326  0.00  0.00    +0.000 A 
ATOM     12  C   UNL     1      -6.357  -2.137 127.366  0.00  0.00    +0.000 A 
ATOM     13  C   UNL     1      -5.573  -2.561 128.422  0.00  0.00    +0.000 A 
ATOM     14  C   UNL     1      -6.165  -3.272 129.456  0.00  0.00    +0.000 A 
ATOM     15 CL   UNL     1      -5.179  -3.850 130.738  0.00  0.00    +0.000 Cl
ATOM     16  C   UNL     1      -7.537  -3.533 129.456  0.00  0.00    +0.000 A 
ATOM     17  C   UNL     1      -8.329  -3.106 128.390  0.00  0.00    +0.000 A 
ENDBRANCH   3  11
TORSDOF 1
ENDMDL
