MODEL 1
REMARK VINA RESULT:      -7.1      0.000      0.000
REMARK  Name = Chlorprothixene
REMARK  5 active torsions:
REMARK  status: ('A' for Active; 'I' for Inactive)
REMARK    1  A    between atoms: C_1  and  N_2
REMARK    2  A    between atoms: N_2  and  C_3
REMARK    3  A    between atoms: N_2  and  C_4
REMARK    4  A    between atoms: C_4  and  C_5
REMARK    5  A    between atoms: C_5  and  C_6
REMARK                            x       y       z     vdW  Elec       q    Type
REMARK                         _______ _______ _______ _____ _____    ______ ____
ROOT
ATOM      1  C   UNL     1      -4.982   3.781 124.827  0.00  0.00    +0.000 C 
ATOM      2  C   UNL     1      -6.093   3.399 124.130  0.00  0.00    +0.000 C 
ATOM      3  C   UNL     1      -6.111   3.798 122.673  0.00  0.00    +0.000 A 
ATOM      4  C   UNL     1      -5.059   4.530 122.068  0.00  0.00    +0.000 A 
ATOM      5  C   UNL     1      -5.068   4.889 120.722  0.00  0.00    +0.000 A 
ATOM      6  C   UNL     1      -6.137   4.530 119.926  0.00  0.00    +0.000 A 
ATOM      7  C   UNL     1      -7.190   3.818 120.485  0.00  0.00    +0.000 A 
ATOM      8  C   UNL     1      -7.189   3.450 121.843  0.00  0.00    +0.000 A 
ATOM      9  S   UNL     1      -8.625   2.545 122.344  0.00  0.00    +0.000 S 
ATOM     10  C   UNL     1      -8.359   2.224 124.061  0.00  0.00    +0.000 A 
ATOM     11  C   UNL     1      -9.406   1.498 124.683  0.00  0.00    +0.000 A 
ATOM     12  C   UNL     1      -9.375   1.153 126.030  0.00  0.00    +0.000 A 
ATOM     13  C   UNL     1      -8.288   1.534 126.769  0.00  0.00    +0.000 A 
ATOM     14 CL   UNL     1      -8.153   1.161 128.444  0.00  0.00    +0.000 Cl
ATOM     15  C   UNL     1      -7.265   2.241 126.154  0.00  0.00    +0.000 A 
ATOM     16  C   UNL     1      -7.233   2.624 124.792  0.00  0.00    +0.000 A 
ENDROOT
BRANCH   1  17
ATOM     17  C   UNL     1      -4.738   3.548 126.262  0.00  0.00    +0.000 C 
BRANCH  17  18
ATOM     18  C   UNL     1      -3.780   2.476 126.706  0.00  0.00    +0.000 C 
BRANCH  18  20
ATOM     19  C   UNL     1      -1.474   3.000 126.543  0.00  0.00    +0.000 C 
ATOM     20  N   UNL     1      -2.646   3.123 127.397  0.00  0.00    +0.000 NA
ATOM     21  C   UNL     1      -2.890   4.537 127.722  0.00  0.00    +0.000 C 
ENDBRANCH  18  20
ENDBRANCH  17  18
ENDBRANCH   1  17
TORSDOF 3
ENDMDL
MODEL 2
REMARK VINA RESULT:      -6.6      4.247      6.240
REMARK  Name = Chlorprothixene
REMARK  5 active torsions:
REMARK  status: ('A' for Active; 'I' for Inactive)
REMARK    1  A    between atoms: C_1  and  N_2
REMARK    2  A    between atoms: N_2  and  C_3
REMARK    3  A    between atoms: N_2  and  C_4
REMARK    4  A    between atoms: C_4  and  C_5
REMARK    5  A    between atoms: C_5  and  C_6
REMARK                            x       y       z     vdW  Elec       q    Type
REMARK                         _______ _______ _______ _____ _____    ______ ____
ROOT
ATOM      1  C   UNL     1      -6.151  -2.112 127.005  0.00  0.00    +0.000 C 
ATOM      2  C   UNL     1      -6.591  -1.273 126.022  0.00  0.00    +0.000 C 
ATOM      3  C   UNL     1      -7.571  -1.880 125.045  0.00  0.00    +0.000 A 
ATOM      4  C   UNL     1      -7.996  -3.229 125.128  0.00  0.00    +0.000 A 
ATOM      5  C   UNL     1      -8.908  -3.788 124.236  0.00  0.00    +0.000 A 
ATOM      6  C   UNL     1      -9.430  -3.014 123.218  0.00  0.00    +0.000 A 
ATOM      7  C   UNL     1      -9.031  -1.689 123.100  0.00  0.00    +0.000 A 
ATOM      8  C   UNL     1      -8.112  -1.116 123.998  0.00  0.00    +0.000 A 
ATOM      9  S   UNL     1      -7.748   0.583 123.667  0.00  0.00    +0.000 S 
ATOM     10  C   UNL     1      -6.589   1.032 124.923  0.00  0.00    +0.000 A 
ATOM     11  C   UNL     1      -6.148   2.377 124.850  0.00  0.00    +0.000 A 
ATOM     12  C   UNL     1      -5.234   2.911 125.753  0.00  0.00    +0.000 A 
ATOM     13  C   UNL     1      -4.753   2.098 126.742  0.00  0.00    +0.000 A 
ATOM     14 CL   UNL     1      -3.617   2.660 127.907  0.00  0.00    +0.000 Cl
ATOM     15  C   UNL     1      -5.192   0.784 126.811  0.00  0.00    +0.000 A 
ATOM     16  C   UNL     1      -6.116   0.177 125.928  0.00  0.00    +0.000 A 
ENDROOT
BRANCH   1  17
ATOM     17  C   UNL     1      -5.171  -1.778 128.055  0.00  0.00    +0.000 C 
BRANCH  17  18
ATOM     18  C   UNL     1      -5.502  -2.006 129.505  0.00  0.00    +0.000 C 
BRANCH  18  20
ATOM     19  C   UNL     1      -5.511  -4.239 130.299  0.00  0.00    +0.000 C 
ATOM     20  N   UNL     1      -6.310  -3.237 129.609  0.00  0.00    +0.000 NA
ATOM     21  C   UNL     1      -7.588  -3.039 130.310  0.00  0.00    +0.000 C 
ENDBRANCH  18  20
ENDBRANCH  17  18
ENDBRANCH   1  17
TORSDOF 3
ENDMDL
MODEL 3
REMARK VINA RESULT:      -6.6      5.102      6.653
REMARK  Name = Chlorprothixene
REMARK  5 active torsions:
REMARK  status: ('A' for Active; 'I' for Inactive)
REMARK    1  A    between atoms: C_1  and  N_2
REMARK    2  A    between atoms: N_2  and  C_3
REMARK    3  A    between atoms: N_2  and  C_4
REMARK    4  A    between atoms: C_4  and  C_5
REMARK    5  A    between atoms: C_5  and  C_6
REMARK                            x       y       z     vdW  Elec       q    Type
REMARK                         _______ _______ _______ _____ _____    ______ ____
ROOT
ATOM      1  C   UNL     1      -8.010  -3.149 128.198  0.00  0.00    +0.000 C 
ATOM      2  C   UNL     1      -8.130  -1.990 127.486  0.00  0.00    +0.000 C 
ATOM      3  C   UNL     1      -8.450  -2.160 126.020  0.00  0.00    +0.000 A 
ATOM      4  C   UNL     1      -8.602  -3.432 125.414  0.00  0.00    +0.000 A 
ATOM      5  C   UNL     1      -8.908  -3.593 124.065  0.00  0.00    +0.000 A 
ATOM      6  C   UNL     1      -9.072  -2.480 123.265  0.00  0.00    +0.000 A 
ATOM      7  C   UNL     1      -8.923  -1.216 123.821  0.00  0.00    +0.000 A 
ATOM      8  C   UNL     1      -8.616  -1.045 125.183  0.00  0.00    +0.000 A 
ATOM      9  S   UNL     1      -8.477   0.647 125.682  0.00  0.00    +0.000 S 
ATOM     10  C   UNL     1      -8.090   0.563 127.404  0.00  0.00    +0.000 A 
ATOM     11  C   UNL     1      -7.928   1.827 128.023  0.00  0.00    +0.000 A 
ATOM     12  C   UNL     1      -7.620   1.961 129.373  0.00  0.00    +0.000 A 
ATOM     13  C   UNL     1      -7.472   0.823 130.117  0.00  0.00    +0.000 A 
ATOM     14 CL   UNL     1      -7.088   0.878 131.795  0.00  0.00    +0.000 Cl
ATOM     15  C   UNL     1      -7.636  -0.412 129.507  0.00  0.00    +0.000 A 
ATOM     16  C   UNL     1      -7.948  -0.620 128.142  0.00  0.00    +0.000 A 
ENDROOT
BRANCH   1  17
ATOM     17  C   UNL     1      -7.669  -3.257 129.628  0.00  0.00    +0.000 C 
BRANCH  17  18
ATOM     18  C   UNL     1      -6.422  -3.979 130.060  0.00  0.00    +0.000 C 
BRANCH  18  20
ATOM     19  C   UNL     1      -5.085  -2.458 131.291  0.00  0.00    +0.000 C 
ATOM     20  N   UNL     1      -5.286  -3.039 129.972  0.00  0.00    +0.000 NA
ATOM     21  C   UNL     1      -4.043  -3.669 129.502  0.00  0.00    +0.000 C 
ENDBRANCH  18  20
ENDBRANCH  17  18
ENDBRANCH   1  17
TORSDOF 3
ENDMDL
MODEL 4
REMARK VINA RESULT:      -6.5      2.814      5.566
REMARK  Name = Chlorprothixene
REMARK  5 active torsions:
REMARK  status: ('A' for Active; 'I' for Inactive)
REMARK    1  A    between atoms: C_1  and  N_2
REMARK    2  A    between atoms: N_2  and  C_3
REMARK    3  A    between atoms: N_2  and  C_4
REMARK    4  A    between atoms: C_4  and  C_5
REMARK    5  A    between atoms: C_5  and  C_6
REMARK                            x       y       z     vdW  Elec       q    Type
REMARK                         _______ _______ _______ _____ _____    ______ ____
ROOT
ATOM      1  C   UNL     1      -5.664   3.670 123.737  0.00  0.00    +0.000 C 
ATOM      2  C   UNL     1      -5.898   2.878 124.825  0.00  0.00    +0.000 C 
ATOM      3  C   UNL     1      -4.909   3.026 125.957  0.00  0.00    +0.000 A 
ATOM      4  C   UNL     1      -3.805   3.912 125.896  0.00  0.00    +0.000 A 
ATOM      5  C   UNL     1      -2.898   4.060 126.943  0.00  0.00    +0.000 A 
ATOM      6  C   UNL     1      -3.060   3.319 128.097  0.00  0.00    +0.000 A 
ATOM      7  C   UNL     1      -4.127   2.433 128.190  0.00  0.00    +0.000 A 
ATOM      8  C   UNL     1      -5.048   2.280 127.139  0.00  0.00    +0.000 A 
ATOM      9  S   UNL     1      -6.328   1.105 127.470  0.00  0.00    +0.000 S 
ATOM     10  C   UNL     1      -7.319   1.115 126.007  0.00  0.00    +0.000 A 
ATOM     11  C   UNL     1      -8.423   0.229 126.049  0.00  0.00    +0.000 A 
ATOM     12  C   UNL     1      -9.314   0.098 124.988  0.00  0.00    +0.000 A 
ATOM     13  C   UNL     1      -9.105   0.860 123.872  0.00  0.00    +0.000 A 
ATOM     14 CL   UNL     1     -10.146   0.772 122.504  0.00  0.00    +0.000 Cl
ATOM     15  C   UNL     1      -8.024   1.730 123.838  0.00  0.00    +0.000 A 
ATOM     16  C   UNL     1      -7.081   1.911 124.878  0.00  0.00    +0.000 A 
ENDROOT
BRANCH   1  17
ATOM     17  C   UNL     1      -6.456   3.690 122.493  0.00  0.00    +0.000 C 
BRANCH  17  18
ATOM     18  C   UNL     1      -5.769   3.719 121.155  0.00  0.00    +0.000 C 
BRANCH  18  20
ATOM     19  C   UNL     1      -8.104   3.786 120.754  0.00  0.00    +0.000 C 
ATOM     20  N   UNL     1      -6.805   3.725 120.102  0.00  0.00    +0.000 NA
ATOM     21  C   UNL     1      -6.663   4.838 119.150  0.00  0.00    +0.000 C 
ENDBRANCH  18  20
ENDBRANCH  17  18
ENDBRANCH   1  17
TORSDOF 3
ENDMDL
MODEL 5
REMARK VINA RESULT:      -6.5      4.798      7.907
REMARK  Name = Chlorprothixene
REMARK  5 active torsions:
REMARK  status: ('A' for Active; 'I' for Inactive)
REMARK    1  A    between atoms: C_1  and  N_2
REMARK    2  A    between atoms: N_2  and  C_3
REMARK    3  A    between atoms: N_2  and  C_4
REMARK    4  A    between atoms: C_4  and  C_5
REMARK    5  A    between atoms: C_5  and  C_6
REMARK                            x       y       z     vdW  Elec       q    Type
REMARK                         _______ _______ _______ _____ _____    ______ ____
ROOT
ATOM      1  C   UNL     1      -8.087  -3.046 126.624  0.00  0.00    +0.000 C 
ATOM      2  C   UNL     1      -8.017  -1.879 127.330  0.00  0.00    +0.000 C 
ATOM      3  C   UNL     1      -7.680  -2.028 128.795  0.00  0.00    +0.000 A 
ATOM      4  C   UNL     1      -7.465  -3.289 129.405  0.00  0.00    +0.000 A 
ATOM      5  C   UNL     1      -7.142  -3.428 130.753  0.00  0.00    +0.000 A 
ATOM      6  C   UNL     1      -7.026  -2.305 131.548  0.00  0.00    +0.000 A 
ATOM      7  C   UNL     1      -7.237  -1.052 130.987  0.00  0.00    +0.000 A 
ATOM      8  C   UNL     1      -7.560  -0.902 129.626  0.00  0.00    +0.000 A 
ATOM      9  S   UNL     1      -7.782   0.779 129.121  0.00  0.00    +0.000 S 
ATOM     10  C   UNL     1      -8.175   0.669 127.402  0.00  0.00    +0.000 A 
ATOM     11  C   UNL     1      -8.400   1.922 126.778  0.00  0.00    +0.000 A 
ATOM     12  C   UNL     1      -8.722   2.035 125.429  0.00  0.00    +0.000 A 
ATOM     13  C   UNL     1      -8.822   0.887 124.691  0.00  0.00    +0.000 A 
ATOM     14 CL   UNL     1      -9.219   0.917 123.017  0.00  0.00    +0.000 Cl
ATOM     15  C   UNL     1      -8.596  -0.335 125.306  0.00  0.00    +0.000 A 
ATOM     16  C   UNL     1      -8.266  -0.522 126.670  0.00  0.00    +0.000 A 
ENDROOT
BRANCH   1  17
ATOM     17  C   UNL     1      -8.432  -3.176 125.197  0.00  0.00    +0.000 C 
BRANCH  17  18
ATOM     18  C   UNL     1      -7.436  -3.746 124.223  0.00  0.00    +0.000 C 
BRANCH  18  20
ATOM     19  C   UNL     1      -5.076  -3.589 124.083  0.00  0.00    +0.000 C 
ATOM     20  N   UNL     1      -6.302  -2.806 124.115  0.00  0.00    +0.000 NA
ATOM     21  C   UNL     1      -6.377  -1.935 122.932  0.00  0.00    +0.000 C 
ENDBRANCH  18  20
ENDBRANCH  17  18
ENDBRANCH   1  17
TORSDOF 3
ENDMDL
MODEL 6
REMARK VINA RESULT:      -6.5      6.871      8.772
REMARK  Name = Chlorprothixene
REMARK  5 active torsions:
REMARK  status: ('A' for Active; 'I' for Inactive)
REMARK    1  A    between atoms: C_1  and  N_2
REMARK    2  A    between atoms: N_2  and  C_3
REMARK    3  A    between atoms: N_2  and  C_4
REMARK    4  A    between atoms: C_4  and  C_5
REMARK    5  A    between atoms: C_5  and  C_6
REMARK                            x       y       z     vdW  Elec       q    Type
REMARK                         _______ _______ _______ _____ _____    ______ ____
ROOT
ATOM      1  C   UNL     1      -6.565   7.215 130.736  0.00  0.00    +0.000 C 
ATOM      2  C   UNL     1      -7.513   6.576 131.484  0.00  0.00    +0.000 C 
ATOM      3  C   UNL     1      -8.938   6.771 131.025  0.00  0.00    +0.000 A 
ATOM      4  C   UNL     1      -9.279   7.573 129.907  0.00  0.00    +0.000 A 
ATOM      5  C   UNL     1     -10.591   7.745 129.475  0.00  0.00    +0.000 A 
ATOM      6  C   UNL     1     -11.621   7.122 130.151  0.00  0.00    +0.000 A 
ATOM      7  C   UNL     1     -11.327   6.335 131.257  0.00  0.00    +0.000 A 
ATOM      8  C   UNL     1     -10.004   6.153 131.699  0.00  0.00    +0.000 A 
ATOM      9  S   UNL     1      -9.858   5.110 133.120  0.00  0.00    +0.000 S 
ATOM     10  C   UNL     1      -8.122   5.062 133.448  0.00  0.00    +0.000 A 
ATOM     11  C   UNL     1      -7.766   4.271 134.569  0.00  0.00    +0.000 A 
ATOM     12  C   UNL     1      -6.447   4.115 134.981  0.00  0.00    +0.000 A 
ATOM     13  C   UNL     1      -5.469   4.755 134.271  0.00  0.00    +0.000 A 
ATOM     14 CL   UNL     1      -3.806   4.631 134.701  0.00  0.00    +0.000 Cl
ATOM     15  C   UNL     1      -5.822   5.525 133.173  0.00  0.00    +0.000 A 
ATOM     16  C   UNL     1      -7.141   5.726 132.700  0.00  0.00    +0.000 A 
ENDROOT
BRANCH   1  17
ATOM     17  C   UNL     1      -5.113   7.214 130.993  0.00  0.00    +0.000 C 
BRANCH  17  18
ATOM     18  C   UNL     1      -4.148   7.596 129.903  0.00  0.00    +0.000 C 
BRANCH  18  20
ATOM     19  C   UNL     1      -3.001   6.766 128.003  0.00  0.00    +0.000 C 
ATOM     20  N   UNL     1      -4.102   6.498 128.917  0.00  0.00    +0.000 NA
ATOM     21  C   UNL     1      -3.940   5.170 129.529  0.00  0.00    +0.000 C 
ENDBRANCH  18  20
ENDBRANCH  17  18
ENDBRANCH   1  17
TORSDOF 3
ENDMDL
MODEL 7
REMARK VINA RESULT:      -6.4      4.036      5.829
REMARK  Name = Chlorprothixene
REMARK  5 active torsions:
REMARK  status: ('A' for Active; 'I' for Inactive)
REMARK    1  A    between atoms: C_1  and  N_2
REMARK    2  A    between atoms: N_2  and  C_3
REMARK    3  A    between atoms: N_2  and  C_4
REMARK    4  A    between atoms: C_4  and  C_5
REMARK    5  A    between atoms: C_5  and  C_6
REMARK                            x       y       z     vdW  Elec       q    Type
REMARK                         _______ _______ _______ _____ _____    ______ ____
ROOT
ATOM      1  C   UNL     1      -6.032  -0.106 125.656  0.00  0.00    +0.000 C 
ATOM      2  C   UNL     1      -6.871  -1.101 126.072  0.00  0.00    +0.000 C 
ATOM      3  C   UNL     1      -7.693  -1.750 124.985  0.00  0.00    +0.000 A 
ATOM      4  C   UNL     1      -7.617  -1.352 123.627  0.00  0.00    +0.000 A 
ATOM      5  C   UNL     1      -8.365  -1.957 122.621  0.00  0.00    +0.000 A 
ATOM      6  C   UNL     1      -9.227  -2.988 122.936  0.00  0.00    +0.000 A 
ATOM      7  C   UNL     1      -9.336  -3.401 124.258  0.00  0.00    +0.000 A 
ATOM      8  C   UNL     1      -8.582  -2.797 125.280  0.00  0.00    +0.000 A 
ATOM      9  S   UNL     1      -8.871  -3.481 126.886  0.00  0.00    +0.000 S 
ATOM     10  C   UNL     1      -7.815  -2.548 127.953  0.00  0.00    +0.000 A 
ATOM     11  C   UNL     1      -7.886  -2.930 129.316  0.00  0.00    +0.000 A 
ATOM     12  C   UNL     1      -7.129  -2.308 130.303  0.00  0.00    +0.000 A 
ATOM     13  C   UNL     1      -6.290  -1.294 129.931  0.00  0.00    +0.000 A 
ATOM     14 CL   UNL     1      -5.313  -0.458 131.075  0.00  0.00    +0.000 Cl
ATOM     15  C   UNL     1      -6.222  -0.927 128.595  0.00  0.00    +0.000 A 
ATOM     16  C   UNL     1      -6.962  -1.515 127.542  0.00  0.00    +0.000 A 
ENDROOT
BRANCH   1  17
ATOM     17  C   UNL     1      -5.154   0.705 126.520  0.00  0.00    +0.000 C 
BRANCH  17  18
ATOM     18  C   UNL     1      -4.874   2.144 126.182  0.00  0.00    +0.000 C 
BRANCH  18  20
ATOM     19  C   UNL     1      -6.854   3.392 126.554  0.00  0.00    +0.000 C 
ATOM     20  N   UNL     1      -6.073   2.710 125.532  0.00  0.00    +0.000 NA
ATOM     21  C   UNL     1      -5.760   3.636 124.433  0.00  0.00    +0.000 C 
ENDBRANCH  18  20
ENDBRANCH  17  18
ENDBRANCH   1  17
TORSDOF 3
ENDMDL
MODEL 8
REMARK VINA RESULT:      -6.2      3.771      4.774
REMARK  Name = Chlorprothixene
REMARK  5 active torsions:
REMARK  status: ('A' for Active; 'I' for Inactive)
REMARK    1  A    between atoms: C_1  and  N_2
REMARK    2  A    between atoms: N_2  and  C_3
REMARK    3  A    between atoms: N_2  and  C_4
REMARK    4  A    between atoms: C_4  and  C_5
REMARK    5  A    between atoms: C_5  and  C_6
REMARK                            x       y       z     vdW  Elec       q    Type
REMARK                         _______ _______ _______ _____ _____    ______ ____
ROOT
ATOM      1  C   UNL     1      -5.402  -0.021 126.580  0.00  0.00    +0.000 C 
ATOM      2  C   UNL     1      -6.179   0.441 125.556  0.00  0.00    +0.000 C 
ATOM      3  C   UNL     1      -6.024   1.910 125.239  0.00  0.00    +0.000 A 
ATOM      4  C   UNL     1      -5.147   2.759 125.960  0.00  0.00    +0.000 A 
ATOM      5  C   UNL     1      -4.994   4.111 125.663  0.00  0.00    +0.000 A 
ATOM      6  C   UNL     1      -5.719   4.670 124.630  0.00  0.00    +0.000 A 
ATOM      7  C   UNL     1      -6.595   3.871 123.906  0.00  0.00    +0.000 A 
ATOM      8  C   UNL     1      -6.754   2.505 124.197  0.00  0.00    +0.000 A 
ATOM      9  S   UNL     1      -7.915   1.677 123.150  0.00  0.00    +0.000 S 
ATOM     10  C   UNL     1      -7.916   0.009 123.734  0.00  0.00    +0.000 A 
ATOM     11  C   UNL     1      -8.793  -0.852 123.028  0.00  0.00    +0.000 A 
ATOM     12  C   UNL     1      -8.930  -2.199 123.346  0.00  0.00    +0.000 A 
ATOM     13  C   UNL     1      -8.184  -2.698 124.378  0.00  0.00    +0.000 A 
ATOM     14 CL   UNL     1      -8.281  -4.350 124.853  0.00  0.00    +0.000 Cl
ATOM     15  C   UNL     1      -7.323  -1.852 125.062  0.00  0.00    +0.000 A 
ATOM     16  C   UNL     1      -7.136  -0.476 124.793  0.00  0.00    +0.000 A 
ENDROOT
BRANCH   1  17
ATOM     17  C   UNL     1      -5.392  -1.399 127.105  0.00  0.00    +0.000 C 
BRANCH  17  18
ATOM     18  C   UNL     1      -5.731  -1.665 128.547  0.00  0.00    +0.000 C 
BRANCH  18  20
ATOM     19  C   UNL     1      -3.852  -2.924 129.257  0.00  0.00    +0.000 C 
ATOM     20  N   UNL     1      -5.258  -3.021 128.892  0.00  0.00    +0.000 NA
ATOM     21  C   UNL     1      -6.021  -3.645 129.984  0.00  0.00    +0.000 C 
ENDBRANCH  18  20
ENDBRANCH  17  18
ENDBRANCH   1  17
TORSDOF 3
ENDMDL
MODEL 9
REMARK VINA RESULT:      -6.2      3.627      6.442
REMARK  Name = Chlorprothixene
REMARK  5 active torsions:
REMARK  status: ('A' for Active; 'I' for Inactive)
REMARK    1  A    between atoms: C_1  and  N_2
REMARK    2  A    between atoms: N_2  and  C_3
REMARK    3  A    between atoms: N_2  and  C_4
REMARK    4  A    between atoms: C_4  and  C_5
REMARK    5  A    between atoms: C_5  and  C_6
REMARK                            x       y       z     vdW  Elec       q    Type
REMARK                         _______ _______ _______ _____ _____    ______ ____
ROOT
ATOM      1  C   UNL     1      -6.496   0.500 128.355  0.00  0.00    +0.000 C 
ATOM      2  C   UNL     1      -7.089  -0.087 127.273  0.00  0.00    +0.000 C 
ATOM      3  C   UNL     1      -7.737  -1.425 127.538  0.00  0.00    +0.000 A 
ATOM      4  C   UNL     1      -7.723  -2.042 128.814  0.00  0.00    +0.000 A 
ATOM      5  C   UNL     1      -8.331  -3.270 129.064  0.00  0.00    +0.000 A 
ATOM      6  C   UNL     1      -8.976  -3.934 128.040  0.00  0.00    +0.000 A 
ATOM      7  C   UNL     1      -9.004  -3.364 126.773  0.00  0.00    +0.000 A 
ATOM      8  C   UNL     1      -8.396  -2.123 126.513  0.00  0.00    +0.000 A 
ATOM      9  S   UNL     1      -8.555  -1.583 124.836  0.00  0.00    +0.000 S 
ATOM     10  C   UNL     1      -7.712  -0.030 124.797  0.00  0.00    +0.000 A 
ATOM     11  C   UNL     1      -7.711   0.596 123.526  0.00  0.00    +0.000 A 
ATOM     12  C   UNL     1      -7.095   1.824 123.301  0.00  0.00    +0.000 A 
ATOM     13  C   UNL     1      -6.473   2.436 124.355  0.00  0.00    +0.000 A 
ATOM     14 CL   UNL     1      -5.679   3.954 124.182  0.00  0.00    +0.000 Cl
ATOM     15  C   UNL     1      -6.481   1.820 125.597  0.00  0.00    +0.000 A 
ATOM     16  C   UNL     1      -7.086   0.576 125.895  0.00  0.00    +0.000 A 
ENDROOT
BRANCH   1  17
ATOM     17  C   UNL     1      -5.768   1.782 128.354  0.00  0.00    +0.000 C 
BRANCH  17  18
ATOM     18  C   UNL     1      -6.113   2.853 129.353  0.00  0.00    +0.000 C 
BRANCH  18  20
ATOM     19  C   UNL     1      -8.028   3.171 130.713  0.00  0.00    +0.000 C 
ATOM     20  N   UNL     1      -7.576   3.053 129.334  0.00  0.00    +0.000 NA
ATOM     21  C   UNL     1      -7.994   4.233 128.562  0.00  0.00    +0.000 C 
ENDBRANCH  18  20
ENDBRANCH  17  18
ENDBRANCH   1  17
TORSDOF 3
ENDMDL
