MODEL 1
REMARK VINA RESULT:      -5.2      0.000      0.000
REMARK  Name = Chloroxylenol
REMARK  3 active torsions:
REMARK  status: ('A' for Active; 'I' for Inactive)
REMARK    1  A    between atoms: C_1  and  C_2
REMARK    2  A    between atoms: C_4  and  O_5
REMARK    3  A    between atoms: C_7  and  C_8
REMARK                            x       y       z     vdW  Elec       q    Type
REMARK                         _______ _______ _______ _____ _____    ______ ____
ROOT
ATOM      1  C   UNL     1      -5.462  -2.332 123.807  0.00  0.00    +0.000 C 
ATOM      2  C   UNL     1      -6.794  -2.636 124.437  0.00  0.00    +0.000 A 
ATOM      3  C   UNL     1      -7.896  -2.934 123.620  0.00  0.00    +0.000 A 
ATOM      4  C   UNL     1      -9.134  -3.197 124.196  0.00  0.00    +0.000 A 
ATOM      5  C   UNL     1      -9.301  -3.175 125.577  0.00  0.00    +0.000 A 
ATOM      6  C   UNL     1      -8.211  -2.900 126.417  0.00  0.00    +0.000 A 
ATOM      7  C   UNL     1      -8.389  -2.925 127.908  0.00  0.00    +0.000 C 
ATOM      8  C   UNL     1      -6.959  -2.623 125.836  0.00  0.00    +0.000 A 
ATOM      9 CL   UNL     1      -5.600  -2.265 126.857  0.00  0.00    +0.000 Cl
ENDROOT
BRANCH   4  10
ATOM     10  O   UNL     1     -10.224  -3.486 123.428  0.00  0.00    +0.000 OA
ATOM     11  H   UNL     1     -10.970  -3.709 124.009  0.00  0.00    +0.000 HD
ENDBRANCH   4  10
TORSDOF 1
ENDMDL
MODEL 2
REMARK VINA RESULT:      -5.2      0.061      2.742
REMARK  Name = Chloroxylenol
REMARK  3 active torsions:
REMARK  status: ('A' for Active; 'I' for Inactive)
REMARK    1  A    between atoms: C_1  and  C_2
REMARK    2  A    between atoms: C_4  and  O_5
REMARK    3  A    between atoms: C_7  and  C_8
REMARK                            x       y       z     vdW  Elec       q    Type
REMARK                         _______ _______ _______ _____ _____    ______ ____
ROOT
ATOM      1  C   UNL     1      -8.360  -2.811 127.927  0.00  0.00    +0.000 C 
ATOM      2  C   UNL     1      -8.199  -2.854 126.433  0.00  0.00    +0.000 A 
ATOM      3  C   UNL     1      -9.311  -3.134 125.623  0.00  0.00    +0.000 A 
ATOM      4  C   UNL     1      -9.164  -3.194 124.240  0.00  0.00    +0.000 A 
ATOM      5  C   UNL     1      -7.928  -2.975 123.642  0.00  0.00    +0.000 A 
ATOM      6  C   UNL     1      -6.805  -2.673 124.427  0.00  0.00    +0.000 A 
ATOM      7  C   UNL     1      -5.483  -2.391 123.769  0.00  0.00    +0.000 C 
ATOM      8  C   UNL     1      -6.948  -2.622 125.827  0.00  0.00    +0.000 A 
ATOM      9 CL   UNL     1      -5.567  -2.265 126.819  0.00  0.00    +0.000 Cl
ENDROOT
BRANCH   4  10
ATOM     10  O   UNL     1     -10.225  -3.467 123.428  0.00  0.00    +0.000 OA
ATOM     11  H   UNL     1     -10.036  -4.274 122.922  0.00  0.00    +0.000 HD
ENDBRANCH   4  10
TORSDOF 1
ENDMDL
MODEL 3
REMARK VINA RESULT:      -5.2     11.440     12.183
REMARK  Name = Chloroxylenol
REMARK  3 active torsions:
REMARK  status: ('A' for Active; 'I' for Inactive)
REMARK    1  A    between atoms: C_1  and  C_2
REMARK    2  A    between atoms: C_4  and  O_5
REMARK    3  A    between atoms: C_7  and  C_8
REMARK                            x       y       z     vdW  Elec       q    Type
REMARK                         _______ _______ _______ _____ _____    ______ ____
ROOT
ATOM      1  C   UNL     1     -10.815   6.362 131.725  0.00  0.00    +0.000 C 
ATOM      2  C   UNL     1     -11.072   6.929 130.356  0.00  0.00    +0.000 A 
ATOM      3  C   UNL     1     -10.311   6.480 129.265  0.00  0.00    +0.000 A 
ATOM      4  C   UNL     1     -10.531   7.016 128.000  0.00  0.00    +0.000 A 
ATOM      5  C   UNL     1     -11.504   7.989 127.794  0.00  0.00    +0.000 A 
ATOM      6  C   UNL     1     -12.293   8.439 128.863  0.00  0.00    +0.000 A 
ATOM      7  C   UNL     1     -13.372   9.456 128.623  0.00  0.00    +0.000 C 
ATOM      8  C   UNL     1     -12.064   7.907 130.147  0.00  0.00    +0.000 A 
ATOM      9 CL   UNL     1     -13.019   8.462 131.488  0.00  0.00    +0.000 Cl
ENDROOT
BRANCH   4  10
ATOM     10  O   UNL     1      -9.805   6.602 126.922  0.00  0.00    +0.000 OA
ATOM     11  H   UNL     1     -10.309   5.923 126.444  0.00  0.00    +0.000 HD
ENDBRANCH   4  10
TORSDOF 1
ENDMDL
MODEL 4
REMARK VINA RESULT:      -5.2     11.377     12.020
REMARK  Name = Chloroxylenol
REMARK  3 active torsions:
REMARK  status: ('A' for Active; 'I' for Inactive)
REMARK    1  A    between atoms: C_1  and  C_2
REMARK    2  A    between atoms: C_4  and  O_5
REMARK    3  A    between atoms: C_7  and  C_8
REMARK                            x       y       z     vdW  Elec       q    Type
REMARK                         _______ _______ _______ _____ _____    ______ ____
ROOT
ATOM      1  C   UNL     1     -13.433   9.340 128.519  0.00  0.00    +0.000 C 
ATOM      2  C   UNL     1     -12.318   8.356 128.744  0.00  0.00    +0.000 A 
ATOM      3  C   UNL     1     -11.542   7.927 127.656  0.00  0.00    +0.000 A 
ATOM      4  C   UNL     1     -10.522   7.001 127.855  0.00  0.00    +0.000 A 
ATOM      5  C   UNL     1     -10.251   6.496 129.121  0.00  0.00    +0.000 A 
ATOM      6  C   UNL     1     -10.998   6.924 130.229  0.00  0.00    +0.000 A 
ATOM      7  C   UNL     1     -10.668   6.408 131.601  0.00  0.00    +0.000 C 
ATOM      8  C   UNL     1     -12.038   7.852 130.030  0.00  0.00    +0.000 A 
ATOM      9 CL   UNL     1     -12.986   8.383 131.385  0.00  0.00    +0.000 Cl
ENDROOT
BRANCH   4  10
ATOM     10  O   UNL     1      -9.754   6.563 126.816  0.00  0.00    +0.000 OA
ATOM     11  H   UNL     1      -9.155   7.278 126.544  0.00  0.00    +0.000 HD
ENDBRANCH   4  10
TORSDOF 1
ENDMDL
MODEL 5
REMARK VINA RESULT:      -4.9     11.588     12.390
REMARK  Name = Chloroxylenol
REMARK  3 active torsions:
REMARK  status: ('A' for Active; 'I' for Inactive)
REMARK    1  A    between atoms: C_1  and  C_2
REMARK    2  A    between atoms: C_4  and  O_5
REMARK    3  A    between atoms: C_7  and  C_8
REMARK                            x       y       z     vdW  Elec       q    Type
REMARK                         _______ _______ _______ _____ _____    ______ ____
ROOT
ATOM      1  C   UNL     1     -11.896   6.709 131.774  0.00  0.00    +0.000 C 
ATOM      2  C   UNL     1     -11.914   7.355 130.416  0.00  0.00    +0.000 A 
ATOM      3  C   UNL     1     -12.716   8.486 130.197  0.00  0.00    +0.000 A 
ATOM      4  C   UNL     1     -12.752   9.077 128.937  0.00  0.00    +0.000 A 
ATOM      5  C   UNL     1     -11.997   8.567 127.886  0.00  0.00    +0.000 A 
ATOM      6  C   UNL     1     -11.171   7.450 128.084  0.00  0.00    +0.000 A 
ATOM      7  C   UNL     1     -10.323   6.935 126.956  0.00  0.00    +0.000 C 
ATOM      8  C   UNL     1     -11.141   6.844 129.355  0.00  0.00    +0.000 A 
ATOM      9 CL   UNL     1     -10.138   5.451 129.618  0.00  0.00    +0.000 Cl
ENDROOT
BRANCH   4  10
ATOM     10  O   UNL     1     -13.524  10.174 128.693  0.00  0.00    +0.000 OA
ATOM     11  H   UNL     1     -13.103  10.708 127.999  0.00  0.00    +0.000 HD
ENDBRANCH   4  10
TORSDOF 1
ENDMDL
MODEL 6
REMARK VINA RESULT:      -4.9     11.572     12.077
REMARK  Name = Chloroxylenol
REMARK  3 active torsions:
REMARK  status: ('A' for Active; 'I' for Inactive)
REMARK    1  A    between atoms: C_1  and  C_2
REMARK    2  A    between atoms: C_4  and  O_5
REMARK    3  A    between atoms: C_7  and  C_8
REMARK                            x       y       z     vdW  Elec       q    Type
REMARK                         _______ _______ _______ _____ _____    ______ ____
ROOT
ATOM      1  C   UNL     1     -10.315   6.953 126.898  0.00  0.00    +0.000 C 
ATOM      2  C   UNL     1     -11.135   7.467 128.049  0.00  0.00    +0.000 A 
ATOM      3  C   UNL     1     -11.961   8.588 127.866  0.00  0.00    +0.000 A 
ATOM      4  C   UNL     1     -12.707   9.079 128.933  0.00  0.00    +0.000 A 
ATOM      5  C   UNL     1     -12.655   8.473 130.183  0.00  0.00    +0.000 A 
ATOM      6  C   UNL     1     -11.854   7.339 130.387  0.00  0.00    +0.000 A 
ATOM      7  C   UNL     1     -11.840   6.662 131.728  0.00  0.00    +0.000 C 
ATOM      8  C   UNL     1     -11.089   6.845 129.312  0.00  0.00    +0.000 A 
ATOM      9 CL   UNL     1     -10.079   5.452 129.547  0.00  0.00    +0.000 Cl
ENDROOT
BRANCH   4  10
ATOM     10  O   UNL     1     -13.516  10.168 128.786  0.00  0.00    +0.000 OA
ATOM     11  H   UNL     1     -13.297  10.818 129.474  0.00  0.00    +0.000 HD
ENDBRANCH   4  10
TORSDOF 1
ENDMDL
MODEL 7
REMARK VINA RESULT:      -4.7      6.618      7.485
REMARK  Name = Chloroxylenol
REMARK  3 active torsions:
REMARK  status: ('A' for Active; 'I' for Inactive)
REMARK    1  A    between atoms: C_1  and  C_2
REMARK    2  A    between atoms: C_4  and  O_5
REMARK    3  A    between atoms: C_7  and  C_8
REMARK                            x       y       z     vdW  Elec       q    Type
REMARK                         _______ _______ _______ _____ _____    ______ ____
ROOT
ATOM      1  C   UNL     1      -5.138   4.001 124.743  0.00  0.00    +0.000 C 
ATOM      2  C   UNL     1      -6.219   3.709 123.739  0.00  0.00    +0.000 A 
ATOM      3  C   UNL     1      -7.439   3.167 124.172  0.00  0.00    +0.000 A 
ATOM      4  C   UNL     1      -8.436   2.876 123.245  0.00  0.00    +0.000 A 
ATOM      5  C   UNL     1      -8.246   3.122 121.889  0.00  0.00    +0.000 A 
ATOM      6  C   UNL     1      -7.044   3.683 121.433  0.00  0.00    +0.000 A 
ATOM      7  C   UNL     1      -6.865   3.988 119.973  0.00  0.00    +0.000 C 
ATOM      8  C   UNL     1      -6.029   3.967 122.367  0.00  0.00    +0.000 A 
ATOM      9 CL   UNL     1      -4.527   4.648 121.822  0.00  0.00    +0.000 Cl
ENDROOT
BRANCH   4  10
ATOM     10  O   UNL     1      -9.630   2.346 123.635  0.00  0.00    +0.000 OA
ATOM     11  H   UNL     1      -9.919   2.786 124.451  0.00  0.00    +0.000 HD
ENDBRANCH   4  10
TORSDOF 1
ENDMDL
MODEL 8
REMARK VINA RESULT:      -4.7     11.197     12.149
REMARK  Name = Chloroxylenol
REMARK  3 active torsions:
REMARK  status: ('A' for Active; 'I' for Inactive)
REMARK    1  A    between atoms: C_1  and  C_2
REMARK    2  A    between atoms: C_4  and  O_5
REMARK    3  A    between atoms: C_7  and  C_8
REMARK                            x       y       z     vdW  Elec       q    Type
REMARK                         _______ _______ _______ _____ _____    ______ ____
ROOT
ATOM      1  C   UNL     1     -13.070   7.903 131.552  0.00  0.00    +0.000 C 
ATOM      2  C   UNL     1     -12.025   7.426 130.582  0.00  0.00    +0.000 A 
ATOM      3  C   UNL     1     -11.092   6.459 130.990  0.00  0.00    +0.000 A 
ATOM      4  C   UNL     1     -10.110   6.027 130.103  0.00  0.00    +0.000 A 
ATOM      5  C   UNL     1     -10.040   6.534 128.810  0.00  0.00    +0.000 A 
ATOM      6  C   UNL     1     -10.973   7.486 128.371  0.00  0.00    +0.000 A 
ATOM      7  C   UNL     1     -10.919   7.994 126.958  0.00  0.00    +0.000 C 
ATOM      8  C   UNL     1     -11.961   7.933 129.270  0.00  0.00    +0.000 A 
ATOM      9 CL   UNL     1     -13.116   9.122 128.752  0.00  0.00    +0.000 Cl
ENDROOT
BRANCH   4  10
ATOM     10  O   UNL     1      -9.188   5.091 130.471  0.00  0.00    +0.000 OA
ATOM     11  H   UNL     1      -9.619   4.428 131.035  0.00  0.00    +0.000 HD
ENDBRANCH   4  10
TORSDOF 1
ENDMDL
MODEL 9
REMARK VINA RESULT:      -4.6      2.284      3.371
REMARK  Name = Chloroxylenol
REMARK  3 active torsions:
REMARK  status: ('A' for Active; 'I' for Inactive)
REMARK    1  A    between atoms: C_1  and  C_2
REMARK    2  A    between atoms: C_4  and  O_5
REMARK    3  A    between atoms: C_7  and  C_8
REMARK                            x       y       z     vdW  Elec       q    Type
REMARK                         _______ _______ _______ _____ _____    ______ ____
ROOT
ATOM      1  C   UNL     1      -9.589  -3.349 123.423  0.00  0.00    +0.000 C 
ATOM      2  C   UNL     1      -8.719  -2.977 124.592  0.00  0.00    +0.000 A 
ATOM      3  C   UNL     1      -9.113  -3.336 125.891  0.00  0.00    +0.000 A 
ATOM      4  C   UNL     1      -8.322  -2.977 126.978  0.00  0.00    +0.000 A 
ATOM      5  C   UNL     1      -7.138  -2.270 126.800  0.00  0.00    +0.000 A 
ATOM      6  C   UNL     1      -6.711  -1.917 125.511  0.00  0.00    +0.000 A 
ATOM      7  C   UNL     1      -5.407  -1.194 125.323  0.00  0.00    +0.000 C 
ATOM      8  C   UNL     1      -7.515  -2.269 124.409  0.00  0.00    +0.000 A 
ATOM      9 CL   UNL     1      -7.013  -1.828 122.805  0.00  0.00    +0.000 Cl
ENDROOT
BRANCH   4  10
ATOM     10  O   UNL     1      -8.680  -3.309 128.252  0.00  0.00    +0.000 OA
ATOM     11  H   UNL     1      -8.494  -4.252 128.396  0.00  0.00    +0.000 HD
ENDBRANCH   4  10
TORSDOF 1
ENDMDL
