MODEL 1
REMARK VINA RESULT:      -6.9      0.000      0.000
REMARK  Name = Chloramphenicol
REMARK  8 active torsions:
REMARK  status: ('A' for Active; 'I' for Inactive)
REMARK    1  A    between atoms: O_1  and  C_2
REMARK    2  A    between atoms: C_2  and  C_3
REMARK    3  A    between atoms: C_3  and  N_4
REMARK    4  A    between atoms: C_3  and  C_10
REMARK    5  A    between atoms: C_5  and  C_7
REMARK    6  A    between atoms: C_10  and  O_11
REMARK    7  A    between atoms: C_10  and  C_12
REMARK    8  A    between atoms: C_15  and  N_18
REMARK                            x       y       z     vdW  Elec       q    Type
REMARK                         _______ _______ _______ _____ _____    ______ ____
ROOT
ATOM      1  C   UNK A   1      -8.299   2.389 124.408  0.00  0.00    +0.000 C 
ENDROOT
BRANCH   1   2
ATOM      2  C   UNK A   1      -7.833   2.808 123.026  0.00  0.00    +0.000 A 
ATOM      3  C   UNK A   1      -6.479   3.113 122.812  0.00  0.00    +0.000 A 
ATOM      4  C   UNK A   1      -6.082   3.763 121.642  0.00  0.00    +0.000 A 
ATOM      5  C   UNK A   1      -7.026   4.013 120.639  0.00  0.00    +0.000 A 
ATOM      6  C   UNK A   1      -8.369   3.671 120.817  0.00  0.00    +0.000 A 
ATOM      7  C   UNK A   1      -8.765   3.080 122.011  0.00  0.00    +0.000 A 
BRANCH   5   8
ATOM      8  N   UNK A   1      -6.606   4.600 119.364  0.00  0.00    +0.000 N 
ATOM      9  O   UNK A   1      -5.534   5.228 119.345  0.00  0.00    +0.000 OA
ATOM     10  O   UNK A   1      -7.332   4.418 118.380  0.00  0.00    +0.000 OA
ENDBRANCH   5   8
ENDBRANCH   1   2
BRANCH   1  11
ATOM     11  O   UNK A   1      -9.051   3.510 124.895  0.00  0.00    +0.000 OA
ATOM     12  H   UNK A   1      -8.785   4.298 124.398  0.00  0.00    +0.000 HD
ENDBRANCH   1  11
BRANCH   1  13
ATOM     13  C   UNK A   1      -9.126   1.061 124.432  0.00  0.00    +0.000 C 
BRANCH  13  14
ATOM     14  N   UNK A   1      -8.349  -0.126 124.015  0.00  0.00    +0.000 N 
ATOM     15  C   UNK A   0      -8.883  -1.076 123.146  0.00  0.00    +0.000 C 
ATOM     16  O   UNK A   0     -10.043  -1.009 122.733  0.00  0.00    +0.000 OA
ATOM     17  H   UNK A   1      -7.483  -0.329 124.506  0.00  0.00    +0.000 HD
BRANCH  15  18
ATOM     18  C   UNK A   0      -7.960  -2.217 122.737  0.00  0.00    +0.000 C 
ATOM     19 CL   UNK A   0      -6.327  -1.556 122.514  0.00  0.00    +0.000 Cl
ATOM     20 CL   UNK A   0      -7.945  -3.485 123.987  0.00  0.00    +0.000 Cl
ENDBRANCH  15  18
ENDBRANCH  13  14
BRANCH  13  21
ATOM     21  C   UNK A   1      -9.833   0.845 125.789  0.00  0.00    +0.000 C 
BRANCH  21  22
ATOM     22  O   UNK A   1      -9.136   1.477 126.843  0.00  0.00    +0.000 OA
ATOM     23  H   UNK A   1      -9.755   1.912 127.444  0.00  0.00    +0.000 HD
ENDBRANCH  21  22
ENDBRANCH  13  21
ENDBRANCH   1  13
TORSDOF 8
ENDMDL
MODEL 2
REMARK VINA RESULT:      -6.7      1.038      1.588
REMARK  Name = Chloramphenicol
REMARK  8 active torsions:
REMARK  status: ('A' for Active; 'I' for Inactive)
REMARK    1  A    between atoms: O_1  and  C_2
REMARK    2  A    between atoms: C_2  and  C_3
REMARK    3  A    between atoms: C_3  and  N_4
REMARK    4  A    between atoms: C_3  and  C_10
REMARK    5  A    between atoms: C_5  and  C_7
REMARK    6  A    between atoms: C_10  and  O_11
REMARK    7  A    between atoms: C_10  and  C_12
REMARK    8  A    between atoms: C_15  and  N_18
REMARK                            x       y       z     vdW  Elec       q    Type
REMARK                         _______ _______ _______ _____ _____    ______ ____
ROOT
ATOM      1  C   UNK A   1      -8.190   2.333 124.112  0.00  0.00    +0.000 C 
ENDROOT
BRANCH   1   2
ATOM      2  C   UNK A   1      -7.752   2.812 122.740  0.00  0.00    +0.000 A 
ATOM      3  C   UNK A   1      -6.396   3.091 122.502  0.00  0.00    +0.000 A 
ATOM      4  C   UNK A   1      -6.014   3.791 121.356  0.00  0.00    +0.000 A 
ATOM      5  C   UNK A   1      -6.979   4.121 120.397  0.00  0.00    +0.000 A 
ATOM      6  C   UNK A   1      -8.325   3.807 120.598  0.00  0.00    +0.000 A 
ATOM      7  C   UNK A   1      -8.705   3.164 121.770  0.00  0.00    +0.000 A 
BRANCH   5   8
ATOM      8  N   UNK A   1      -6.579   4.763 119.143  0.00  0.00    +0.000 N 
ATOM      9  O   UNK A   1      -7.281   4.551 118.139  0.00  0.00    +0.000 OA
ATOM     10  O   UNK A   1      -5.582   5.493 119.162  0.00  0.00    +0.000 OA
ENDBRANCH   5   8
ENDBRANCH   1   2
BRANCH   1  11
ATOM     11  O   UNK A   1      -9.060   3.367 124.599  0.00  0.00    +0.000 OA
ATOM     12  H   UNK A   1      -9.968   3.032 124.594  0.00  0.00    +0.000 HD
ENDBRANCH   1  11
BRANCH   1  13
ATOM     13  C   UNK A   1      -8.875   0.927 124.113  0.00  0.00    +0.000 C 
BRANCH  13  14
ATOM     14  N   UNK A   1      -7.975  -0.168 124.532  0.00  0.00    +0.000 N 
ATOM     15  C   UNK A   0      -7.944  -1.384 123.850  0.00  0.00    +0.000 C 
ATOM     16  O   UNK A   0      -8.702  -1.629 122.909  0.00  0.00    +0.000 OA
ATOM     17  H   UNK A   1      -7.506  -0.086 125.428  0.00  0.00    +0.000 HD
BRANCH  15  18
ATOM     18  C   UNK A   0      -6.925  -2.408 124.335  0.00  0.00    +0.000 C 
ATOM     19 CL   UNK A   0      -7.762  -3.958 124.562  0.00  0.00    +0.000 Cl
ATOM     20 CL   UNK A   0      -5.609  -2.587 123.150  0.00  0.00    +0.000 Cl
ENDBRANCH  15  18
ENDBRANCH  13  14
BRANCH  13  21
ATOM     21  C   UNK A   1     -10.198   0.930 124.911  0.00  0.00    +0.000 C 
BRANCH  21  22
ATOM     22  O   UNK A   1     -11.281   1.377 124.120  0.00  0.00    +0.000 OA
ATOM     23  H   UNK A   1     -11.013   2.128 123.575  0.00  0.00    +0.000 HD
ENDBRANCH  21  22
ENDBRANCH  13  21
ENDBRANCH   1  13
TORSDOF 8
ENDMDL
MODEL 3
REMARK VINA RESULT:      -6.6      7.677      9.530
REMARK  Name = Chloramphenicol
REMARK  8 active torsions:
REMARK  status: ('A' for Active; 'I' for Inactive)
REMARK    1  A    between atoms: O_1  and  C_2
REMARK    2  A    between atoms: C_2  and  C_3
REMARK    3  A    between atoms: C_3  and  N_4
REMARK    4  A    between atoms: C_3  and  C_10
REMARK    5  A    between atoms: C_5  and  C_7
REMARK    6  A    between atoms: C_10  and  O_11
REMARK    7  A    between atoms: C_10  and  C_12
REMARK    8  A    between atoms: C_15  and  N_18
REMARK                            x       y       z     vdW  Elec       q    Type
REMARK                         _______ _______ _______ _____ _____    ______ ____
ROOT
ATOM      1  C   UNK A   1      -9.378   6.017 132.031  0.00  0.00    +0.000 C 
ENDROOT
BRANCH   1   2
ATOM      2  C   UNK A   1     -10.410   6.590 131.077  0.00  0.00    +0.000 A 
ATOM      3  C   UNK A   1      -9.989   7.241 129.906  0.00  0.00    +0.000 A 
ATOM      4  C   UNK A   1     -10.889   8.011 129.167  0.00  0.00    +0.000 A 
ATOM      5  C   UNK A   1     -12.237   8.045 129.544  0.00  0.00    +0.000 A 
ATOM      6  C   UNK A   1     -12.681   7.362 130.680  0.00  0.00    +0.000 A 
ATOM      7  C   UNK A   1     -11.765   6.647 131.443  0.00  0.00    +0.000 A 
BRANCH   5   8
ATOM      8  N   UNK A   1     -13.212   8.763 128.721  0.00  0.00    +0.000 N 
ATOM      9  O   UNK A   1     -13.360   9.979 128.934  0.00  0.00    +0.000 OA
ATOM     10  O   UNK A   1     -13.814   8.124 127.851  0.00  0.00    +0.000 OA
ENDBRANCH   5   8
ENDBRANCH   1   2
BRANCH   1  11
ATOM     11  O   UNK A   1      -9.773   6.496 133.325  0.00  0.00    +0.000 OA
ATOM     12  H   UNK A   1      -8.997   6.494 133.905  0.00  0.00    +0.000 HD
ENDBRANCH   1  11
BRANCH   1  13
ATOM     13  C   UNK A   1      -9.255   4.459 131.984  0.00  0.00    +0.000 C 
BRANCH  13  14
ATOM     14  N   UNK A   1      -8.404   3.967 130.879  0.00  0.00    +0.000 N 
ATOM     15  C   UNK A   0      -8.959   3.407 129.729  0.00  0.00    +0.000 C 
ATOM     16  O   UNK A   0     -10.173   3.237 129.601  0.00  0.00    +0.000 OA
ATOM     17  H   UNK A   1      -7.406   3.885 131.043  0.00  0.00    +0.000 HD
BRANCH  15  18
ATOM     18  C   UNK A   0      -7.981   3.001 128.633  0.00  0.00    +0.000 C 
ATOM     19 CL   UNK A   0      -8.599   1.528 127.856  0.00  0.00    +0.000 Cl
ATOM     20 CL   UNK A   0      -7.815   4.306 127.433  0.00  0.00    +0.000 Cl
ENDBRANCH  15  18
ENDBRANCH  13  14
BRANCH  13  21
ATOM     21  C   UNK A   1      -8.831   3.871 133.348  0.00  0.00    +0.000 C 
BRANCH  21  22
ATOM     22  O   UNK A   1      -9.905   3.868 134.267  0.00  0.00    +0.000 OA
ATOM     23  H   UNK A   1     -10.263   2.976 134.364  0.00  0.00    +0.000 HD
ENDBRANCH  21  22
ENDBRANCH  13  21
ENDBRANCH   1  13
TORSDOF 8
ENDMDL
MODEL 4
REMARK VINA RESULT:      -6.4      1.387      1.631
REMARK  Name = Chloramphenicol
REMARK  8 active torsions:
REMARK  status: ('A' for Active; 'I' for Inactive)
REMARK    1  A    between atoms: O_1  and  C_2
REMARK    2  A    between atoms: C_2  and  C_3
REMARK    3  A    between atoms: C_3  and  N_4
REMARK    4  A    between atoms: C_3  and  C_10
REMARK    5  A    between atoms: C_5  and  C_7
REMARK    6  A    between atoms: C_10  and  O_11
REMARK    7  A    between atoms: C_10  and  C_12
REMARK    8  A    between atoms: C_15  and  N_18
REMARK                            x       y       z     vdW  Elec       q    Type
REMARK                         _______ _______ _______ _____ _____    ______ ____
ROOT
ATOM      1  C   UNK A   1      -8.171   2.563 124.800  0.00  0.00    +0.000 C 
ENDROOT
BRANCH   1   2
ATOM      2  C   UNK A   1      -7.695   2.903 123.399  0.00  0.00    +0.000 A 
ATOM      3  C   UNK A   1      -6.363   3.302 123.196  0.00  0.00    +0.000 A 
ATOM      4  C   UNK A   1      -5.982   3.883 121.985  0.00  0.00    +0.000 A 
ATOM      5  C   UNK A   1      -6.909   3.968 120.940  0.00  0.00    +0.000 A 
ATOM      6  C   UNK A   1      -8.225   3.530 121.111  0.00  0.00    +0.000 A 
ATOM      7  C   UNK A   1      -8.611   3.009 122.340  0.00  0.00    +0.000 A 
BRANCH   5   8
ATOM      8  N   UNK A   1      -6.496   4.479 119.631  0.00  0.00    +0.000 N 
ATOM      9  O   UNK A   1      -7.297   4.361 118.688  0.00  0.00    +0.000 OA
ATOM     10  O   UNK A   1      -5.386   5.016 119.546  0.00  0.00    +0.000 OA
ENDBRANCH   5   8
ENDBRANCH   1   2
BRANCH   1  11
ATOM     11  O   UNK A   1      -9.604   2.594 124.715  0.00  0.00    +0.000 OA
ATOM     12  H   UNK A   1      -9.948   1.735 125.001  0.00  0.00    +0.000 HD
ENDBRANCH   1  11
BRANCH   1  13
ATOM     13  C   UNK A   1      -7.636   1.199 125.347  0.00  0.00    +0.000 C 
BRANCH  13  14
ATOM     14  N   UNK A   1      -7.528   0.149 124.311  0.00  0.00    +0.000 N 
ATOM     15  C   UNK A   0      -8.606  -0.677 124.000  0.00  0.00    +0.000 C 
ATOM     16  O   UNK A   0      -9.676  -0.618 124.609  0.00  0.00    +0.000 OA
ATOM     17  H   UNK A   1      -6.605  -0.076 123.952  0.00  0.00    +0.000 HD
BRANCH  15  18
ATOM     18  C   UNK A   0      -8.392  -1.674 122.867  0.00  0.00    +0.000 C 
ATOM     19 CL   UNK A   0      -6.644  -1.930 122.677  0.00  0.00    +0.000 Cl
ATOM     20 CL   UNK A   0      -9.203  -3.216 123.233  0.00  0.00    +0.000 Cl
ENDBRANCH  15  18
ENDBRANCH  13  14
BRANCH  13  21
ATOM     21  C   UNK A   1      -6.320   1.371 126.139  0.00  0.00    +0.000 C 
BRANCH  21  22
ATOM     22  O   UNK A   1      -5.351   0.420 125.746  0.00  0.00    +0.000 OA
ATOM     23  H   UNK A   1      -5.562   0.062 124.874  0.00  0.00    +0.000 HD
ENDBRANCH  21  22
ENDBRANCH  13  21
ENDBRANCH   1  13
TORSDOF 8
ENDMDL
MODEL 5
REMARK VINA RESULT:      -6.1      8.883     10.060
REMARK  Name = Chloramphenicol
REMARK  8 active torsions:
REMARK  status: ('A' for Active; 'I' for Inactive)
REMARK    1  A    between atoms: O_1  and  C_2
REMARK    2  A    between atoms: C_2  and  C_3
REMARK    3  A    between atoms: C_3  and  N_4
REMARK    4  A    between atoms: C_3  and  C_10
REMARK    5  A    between atoms: C_5  and  C_7
REMARK    6  A    between atoms: C_10  and  O_11
REMARK    7  A    between atoms: C_10  and  C_12
REMARK    8  A    between atoms: C_15  and  N_18
REMARK                            x       y       z     vdW  Elec       q    Type
REMARK                         _______ _______ _______ _____ _____    ______ ____
ROOT
ATOM      1  C   UNK A   1      -9.663   5.827 132.087  0.00  0.00    +0.000 C 
ENDROOT
BRANCH   1   2
ATOM      2  C   UNK A   1     -10.583   6.683 131.236  0.00  0.00    +0.000 A 
ATOM      3  C   UNK A   1     -11.953   6.748 131.543  0.00  0.00    +0.000 A 
ATOM      4  C   UNK A   1     -12.853   7.290 130.625  0.00  0.00    +0.000 A 
ATOM      5  C   UNK A   1     -12.370   7.863 129.443  0.00  0.00    +0.000 A 
ATOM      6  C   UNK A   1     -11.005   7.850 129.146  0.00  0.00    +0.000 A 
ATOM      7  C   UNK A   1     -10.122   7.253 130.038  0.00  0.00    +0.000 A 
BRANCH   5   8
ATOM      8  N   UNK A   1     -13.291   8.528 128.518  0.00  0.00    +0.000 N 
ATOM      9  O   UNK A   1     -13.873   7.821 127.678  0.00  0.00    +0.000 OA
ATOM     10  O   UNK A   1     -13.451   9.748 128.642  0.00  0.00    +0.000 OA
ENDBRANCH   5   8
ENDBRANCH   1   2
BRANCH   1  11
ATOM     11  O   UNK A   1     -10.522   5.237 133.074  0.00  0.00    +0.000 OA
ATOM     12  H   UNK A   1     -10.040   5.185 133.912  0.00  0.00    +0.000 HD
ENDBRANCH   1  11
BRANCH   1  13
ATOM     13  C   UNK A   1      -8.856   4.756 131.282  0.00  0.00    +0.000 C 
BRANCH  13  14
ATOM     14  N   UNK A   1      -7.390   4.919 131.389  0.00  0.00    +0.000 N 
ATOM     15  C   UNK A   0      -6.604   5.179 130.267  0.00  0.00    +0.000 C 
ATOM     16  O   UNK A   0      -7.078   5.226 129.130  0.00  0.00    +0.000 OA
ATOM     17  H   UNK A   1      -6.942   4.665 132.264  0.00  0.00    +0.000 HD
BRANCH  15  18
ATOM     18  C   UNK A   0      -5.116   5.394 130.516  0.00  0.00    +0.000 C 
ATOM     19 CL   UNK A   0      -4.222   4.755 129.121  0.00  0.00    +0.000 Cl
ATOM     20 CL   UNK A   0      -4.765   7.127 130.731  0.00  0.00    +0.000 Cl
ENDBRANCH  15  18
ENDBRANCH  13  14
BRANCH  13  21
ATOM     21  C   UNK A   1      -9.307   3.318 131.620  0.00  0.00    +0.000 C 
BRANCH  21  22
ATOM     22  O   UNK A   1     -10.643   3.086 131.220  0.00  0.00    +0.000 OA
ATOM     23  H   UNK A   1     -11.153   2.710 131.949  0.00  0.00    +0.000 HD
ENDBRANCH  21  22
ENDBRANCH  13  21
ENDBRANCH   1  13
TORSDOF 8
ENDMDL
MODEL 6
REMARK VINA RESULT:      -5.8      3.673      4.850
REMARK  Name = Chloramphenicol
REMARK  8 active torsions:
REMARK  status: ('A' for Active; 'I' for Inactive)
REMARK    1  A    between atoms: O_1  and  C_2
REMARK    2  A    between atoms: C_2  and  C_3
REMARK    3  A    between atoms: C_3  and  N_4
REMARK    4  A    between atoms: C_3  and  C_10
REMARK    5  A    between atoms: C_5  and  C_7
REMARK    6  A    between atoms: C_10  and  O_11
REMARK    7  A    between atoms: C_10  and  C_12
REMARK    8  A    between atoms: C_15  and  N_18
REMARK                            x       y       z     vdW  Elec       q    Type
REMARK                         _______ _______ _______ _____ _____    ______ ____
ROOT
ATOM      1  C   UNK A   1      -7.989   2.313 125.107  0.00  0.00    +0.000 C 
ENDROOT
BRANCH   1   2
ATOM      2  C   UNK A   1      -6.513   2.549 125.370  0.00  0.00    +0.000 A 
ATOM      3  C   UNK A   1      -5.775   1.594 126.089  0.00  0.00    +0.000 A 
ATOM      4  C   UNK A   1      -4.507   1.912 126.580  0.00  0.00    +0.000 A 
ATOM      5  C   UNK A   1      -3.936   3.150 126.263  0.00  0.00    +0.000 A 
ATOM      6  C   UNK A   1      -4.639   4.091 125.508  0.00  0.00    +0.000 A 
ATOM      7  C   UNK A   1      -5.925   3.789 125.074  0.00  0.00    +0.000 A 
BRANCH   5   8
ATOM      8  N   UNK A   1      -2.567   3.457 126.684  0.00  0.00    +0.000 N 
ATOM      9  O   UNK A   1      -2.396   4.461 127.397  0.00  0.00    +0.000 OA
ATOM     10  O   UNK A   1      -1.668   2.689 126.325  0.00  0.00    +0.000 OA
ENDBRANCH   5   8
ENDBRANCH   1   2
BRANCH   1  11
ATOM     11  O   UNK A   1      -8.563   3.628 125.047  0.00  0.00    +0.000 OA
ATOM     12  H   UNK A   1      -9.514   3.542 124.886  0.00  0.00    +0.000 HD
ENDBRANCH   1  11
BRANCH   1  13
ATOM     13  C   UNK A   1      -8.286   1.473 123.822  0.00  0.00    +0.000 C 
BRANCH  13  14
ATOM     14  N   UNK A   1      -8.723   0.090 124.108  0.00  0.00    +0.000 N 
ATOM     15  C   UNK A   0      -7.834  -0.982 124.041  0.00  0.00    +0.000 C 
ATOM     16  O   UNK A   0      -6.663  -0.841 123.682  0.00  0.00    +0.000 OA
ATOM     17  H   UNK A   1      -9.719  -0.091 124.186  0.00  0.00    +0.000 HD
BRANCH  15  18
ATOM     18  C   UNK A   0      -8.388  -2.348 124.425  0.00  0.00    +0.000 C 
ATOM     19 CL   UNK A   0      -9.232  -2.187 125.980  0.00  0.00    +0.000 Cl
ATOM     20 CL   UNK A   0      -9.509  -2.940 123.175  0.00  0.00    +0.000 Cl
ENDBRANCH  15  18
ENDBRANCH  13  14
BRANCH  13  21
ATOM     21  C   UNK A   1      -9.257   2.203 122.867  0.00  0.00    +0.000 C 
BRANCH  21  22
ATOM     22  O   UNK A   1      -8.683   3.384 122.345  0.00  0.00    +0.000 OA
ATOM     23  H   UNK A   1      -7.736   3.261 122.194  0.00  0.00    +0.000 HD
ENDBRANCH  21  22
ENDBRANCH  13  21
ENDBRANCH   1  13
TORSDOF 8
ENDMDL
MODEL 7
REMARK VINA RESULT:      -5.8      9.021     10.835
REMARK  Name = Chloramphenicol
REMARK  8 active torsions:
REMARK  status: ('A' for Active; 'I' for Inactive)
REMARK    1  A    between atoms: O_1  and  C_2
REMARK    2  A    between atoms: C_2  and  C_3
REMARK    3  A    between atoms: C_3  and  N_4
REMARK    4  A    between atoms: C_3  and  C_10
REMARK    5  A    between atoms: C_5  and  C_7
REMARK    6  A    between atoms: C_10  and  O_11
REMARK    7  A    between atoms: C_10  and  C_12
REMARK    8  A    between atoms: C_15  and  N_18
REMARK                            x       y       z     vdW  Elec       q    Type
REMARK                         _______ _______ _______ _____ _____    ______ ____
ROOT
ATOM      1  C   UNK A   1     -10.230   4.214 130.188  0.00  0.00    +0.000 C 
ENDROOT
BRANCH   1   2
ATOM      2  C   UNK A   1      -9.152   3.431 130.914  0.00  0.00    +0.000 A 
ATOM      3  C   UNK A   1      -9.517   2.409 131.807  0.00  0.00    +0.000 A 
ATOM      4  C   UNK A   1      -8.574   1.874 132.685  0.00  0.00    +0.000 A 
ATOM      5  C   UNK A   1      -7.239   2.288 132.599  0.00  0.00    +0.000 A 
ATOM      6  C   UNK A   1      -6.851   3.269 131.682  0.00  0.00    +0.000 A 
ATOM      7  C   UNK A   1      -7.810   3.840 130.853  0.00  0.00    +0.000 A 
BRANCH   5   8
ATOM      8  N   UNK A   1      -6.219   1.662 133.442  0.00  0.00    +0.000 N 
ATOM      9  O   UNK A   1      -5.032   1.962 133.229  0.00  0.00    +0.000 OA
ATOM     10  O   UNK A   1      -6.600   0.890 134.329  0.00  0.00    +0.000 OA
ENDBRANCH   5   8
ENDBRANCH   1   2
BRANCH   1  11
ATOM     11  O   UNK A   1     -11.458   3.562 130.547  0.00  0.00    +0.000 OA
ATOM     12  H   UNK A   1     -11.246   2.719 130.974  0.00  0.00    +0.000 HD
ENDBRANCH   1  11
BRANCH   1  13
ATOM     13  C   UNK A   1     -10.247   5.742 130.520  0.00  0.00    +0.000 C 
BRANCH  13  14
ATOM     14  N   UNK A   1     -11.034   6.546 129.560  0.00  0.00    +0.000 N 
ATOM     15  C   UNK A   0     -10.500   7.685 128.957  0.00  0.00    +0.000 C 
ATOM     16  O   UNK A   0      -9.378   8.112 129.238  0.00  0.00    +0.000 OA
ATOM     17  H   UNK A   1     -12.028   6.356 129.477  0.00  0.00    +0.000 HD
BRANCH  15  18
ATOM     18  C   UNK A   0     -11.384   8.388 127.935  0.00  0.00    +0.000 C 
ATOM     19 CL   UNK A   0     -10.997   7.738 126.327  0.00  0.00    +0.000 Cl
ATOM     20 CL   UNK A   0     -13.104   8.120 128.309  0.00  0.00    +0.000 Cl
ENDBRANCH  15  18
ENDBRANCH  13  14
BRANCH  13  21
ATOM     21  C   UNK A   1     -10.666   6.011 131.982  0.00  0.00    +0.000 C 
BRANCH  21  22
ATOM     22  O   UNK A   1     -12.071   6.081 132.115  0.00  0.00    +0.000 OA
ATOM     23  H   UNK A   1     -12.311   6.616 132.882  0.00  0.00    +0.000 HD
ENDBRANCH  21  22
ENDBRANCH  13  21
ENDBRANCH   1  13
TORSDOF 8
ENDMDL
MODEL 8
REMARK VINA RESULT:      -5.7      3.256      6.593
REMARK  Name = Chloramphenicol
REMARK  8 active torsions:
REMARK  status: ('A' for Active; 'I' for Inactive)
REMARK    1  A    between atoms: O_1  and  C_2
REMARK    2  A    between atoms: C_2  and  C_3
REMARK    3  A    between atoms: C_3  and  N_4
REMARK    4  A    between atoms: C_3  and  C_10
REMARK    5  A    between atoms: C_5  and  C_7
REMARK    6  A    between atoms: C_10  and  O_11
REMARK    7  A    between atoms: C_10  and  C_12
REMARK    8  A    between atoms: C_15  and  N_18
REMARK                            x       y       z     vdW  Elec       q    Type
REMARK                         _______ _______ _______ _____ _____    ______ ____
ROOT
ATOM      1  C   UNK A   1      -8.802   2.583 123.834  0.00  0.00    +0.000 C 
ENDROOT
BRANCH   1   2
ATOM      2  C   UNK A   1      -8.784   1.151 124.335  0.00  0.00    +0.000 A 
ATOM      3  C   UNK A   1      -9.048   0.885 125.688  0.00  0.00    +0.000 A 
ATOM      4  C   UNK A   1      -8.764  -0.372 126.225  0.00  0.00    +0.000 A 
ATOM      5  C   UNK A   1      -8.313  -1.395 125.383  0.00  0.00    +0.000 A 
ATOM      6  C   UNK A   1      -8.092  -1.159 124.023  0.00  0.00    +0.000 A 
ATOM      7  C   UNK A   1      -8.320   0.113 123.510  0.00  0.00    +0.000 A 
BRANCH   5   8
ATOM      8  N   UNK A   1      -8.109  -2.746 125.910  0.00  0.00    +0.000 N 
ATOM      9  O   UNK A   1      -7.790  -2.854 127.107  0.00  0.00    +0.000 OA
ATOM     10  O   UNK A   1      -8.287  -3.697 125.142  0.00  0.00    +0.000 OA
ENDBRANCH   5   8
ENDBRANCH   1   2
BRANCH   1  11
ATOM     11  O   UNK A   1      -9.190   3.364 124.975  0.00  0.00    +0.000 OA
ATOM     12  H   UNK A   1      -8.423   3.455 125.560  0.00  0.00    +0.000 HD
ENDBRANCH   1  11
BRANCH   1  13
ATOM     13  C   UNK A   1      -7.449   3.064 123.214  0.00  0.00    +0.000 C 
BRANCH  13  14
ATOM     14  N   UNK A   1      -7.580   3.568 121.830  0.00  0.00    +0.000 N 
ATOM     15  C   UNK A   0      -6.497   3.566 120.951  0.00  0.00    +0.000 C 
ATOM     16  O   UNK A   0      -5.371   3.206 121.298  0.00  0.00    +0.000 OA
ATOM     17  H   UNK A   1      -8.424   4.075 121.582  0.00  0.00    +0.000 HD
BRANCH  15  18
ATOM     18  C   UNK A   0      -6.775   4.046 119.532  0.00  0.00    +0.000 C 
ATOM     19 CL   UNK A   0      -8.511   4.401 119.396  0.00  0.00    +0.000 Cl
ATOM     20 CL   UNK A   0      -5.819   5.504 119.169  0.00  0.00    +0.000 Cl
ENDBRANCH  15  18
ENDBRANCH  13  14
BRANCH  13  21
ATOM     21  C   UNK A   1      -6.719   4.070 124.132  0.00  0.00    +0.000 C 
BRANCH  21  22
ATOM     22  O   UNK A   1      -5.411   3.633 124.443  0.00  0.00    +0.000 OA
ATOM     23  H   UNK A   1      -4.878   3.565 123.640  0.00  0.00    +0.000 HD
ENDBRANCH  21  22
ENDBRANCH  13  21
ENDBRANCH   1  13
TORSDOF 8
ENDMDL
MODEL 9
REMARK VINA RESULT:      -5.7      3.899      6.495
REMARK  Name = Chloramphenicol
REMARK  8 active torsions:
REMARK  status: ('A' for Active; 'I' for Inactive)
REMARK    1  A    between atoms: O_1  and  C_2
REMARK    2  A    between atoms: C_2  and  C_3
REMARK    3  A    between atoms: C_3  and  N_4
REMARK    4  A    between atoms: C_3  and  C_10
REMARK    5  A    between atoms: C_5  and  C_7
REMARK    6  A    between atoms: C_10  and  O_11
REMARK    7  A    between atoms: C_10  and  C_12
REMARK    8  A    between atoms: C_15  and  N_18
REMARK                            x       y       z     vdW  Elec       q    Type
REMARK                         _______ _______ _______ _____ _____    ______ ____
ROOT
ATOM      1  C   UNK A   1      -6.469   2.999 123.988  0.00  0.00    +0.000 C 
ENDROOT
BRANCH   1   2
ATOM      2  C   UNK A   1      -7.130   1.633 123.949  0.00  0.00    +0.000 A 
ATOM      3  C   UNK A   1      -8.321   1.459 123.223  0.00  0.00    +0.000 A 
ATOM      4  C   UNK A   1      -9.088   0.306 123.400  0.00  0.00    +0.000 A 
ATOM      5  C   UNK A   1      -8.610  -0.719 124.224  0.00  0.00    +0.000 A 
ATOM      6  C   UNK A   1      -7.403  -0.580 124.915  0.00  0.00    +0.000 A 
ATOM      7  C   UNK A   1      -6.676   0.597 124.780  0.00  0.00    +0.000 A 
BRANCH   5   8
ATOM      8  N   UNK A   1      -9.352  -1.977 124.339  0.00  0.00    +0.000 N 
ATOM      9  O   UNK A   1      -9.589  -2.403 125.482  0.00  0.00    +0.000 OA
ATOM     10  O   UNK A   1      -9.717  -2.527 123.294  0.00  0.00    +0.000 OA
ENDBRANCH   5   8
ENDBRANCH   1   2
BRANCH   1  11
ATOM     11  O   UNK A   1      -7.178   3.776 123.011  0.00  0.00    +0.000 OA
ATOM     12  H   UNK A   1      -7.317   4.666 123.367  0.00  0.00    +0.000 HD
ENDBRANCH   1  11
BRANCH   1  13
ATOM     13  C   UNK A   1      -6.470   3.672 125.400  0.00  0.00    +0.000 C 
BRANCH  13  14
ATOM     14  N   UNK A   1      -5.151   4.208 125.799  0.00  0.00    +0.000 N 
ATOM     15  C   UNK A   0      -4.203   3.407 126.435  0.00  0.00    +0.000 C 
ATOM     16  O   UNK A   0      -4.437   2.238 126.751  0.00  0.00    +0.000 OA
ATOM     17  H   UNK A   1      -5.010   5.213 125.760  0.00  0.00    +0.000 HD
BRANCH  15  18
ATOM     18  C   UNK A   0      -2.857   4.056 126.734  0.00  0.00    +0.000 C 
ATOM     19 CL   UNK A   0      -2.872   4.612 128.421  0.00  0.00    +0.000 Cl
ATOM     20 CL   UNK A   0      -1.535   2.890 126.482  0.00  0.00    +0.000 Cl
ENDBRANCH  15  18
ENDBRANCH  13  14
BRANCH  13  21
ATOM     21  C   UNK A   1      -7.591   4.726 125.537  0.00  0.00    +0.000 C 
BRANCH  21  22
ATOM     22  O   UNK A   1      -8.864   4.163 125.296  0.00  0.00    +0.000 OA
ATOM     23  H   UNK A   1      -9.112   4.272 124.369  0.00  0.00    +0.000 HD
ENDBRANCH  21  22
ENDBRANCH  13  21
ENDBRANCH   1  13
TORSDOF 8
ENDMDL
