MODEL 1
REMARK VINA RESULT:      -7.2      0.000      0.000
REMARK  Name = Chloramphenicol succinate
REMARK  13 active torsions:
REMARK  status: ('A' for Active; 'I' for Inactive)
REMARK    1  A    between atoms: O_1  and  C_2
REMARK    2  A    between atoms: C_2  and  C_3
REMARK    3  A    between atoms: C_2  and  C_19
REMARK    4  A    between atoms: C_3  and  C_4
REMARK    5  A    between atoms: C_3  and  N_13
REMARK    6  A    between atoms: C_4  and  O_5
REMARK    7  A    between atoms: O_5  and  C_6
REMARK    8  A    between atoms: C_6  and  C_8
REMARK    9  A    between atoms: C_8  and  C_9
REMARK   10  A    between atoms: C_9  and  C_10
REMARK   11  A    between atoms: C_10  and  O_11
REMARK   12  A    between atoms: C_14  and  C_16
REMARK   13  A    between atoms: C_22  and  N_25
REMARK                            x       y       z     vdW  Elec       q    Type
REMARK                         _______ _______ _______ _____ _____    ______ ____
ROOT
ATOM      1  C   UNL     1      -8.058   1.470 124.210  0.00  0.00    +0.000 C 
ENDROOT
BRANCH   1   2
ATOM      2  N   UNL     1      -7.865   0.020 124.484  0.00  0.00    +0.000 N 
ATOM      3  C   UNL     1      -8.818  -0.900 124.046  0.00  0.00    +0.000 C 
ATOM      4  O   UNL     1      -9.818  -0.509 123.446  0.00  0.00    +0.000 OA
ATOM      5  H   UNL     1      -7.069  -0.305 125.023  0.00  0.00    +0.000 HD
BRANCH   3   6
ATOM      6  C   UNL     1      -8.500  -2.382 124.289  0.00  0.00    +0.000 C 
ATOM      7 CL   UNL     1      -9.659  -3.377 123.385  0.00  0.00    +0.000 Cl
ATOM      8 CL   UNL     1      -6.837  -2.760 123.794  0.00  0.00    +0.000 Cl
ENDBRANCH   3   6
ENDBRANCH   1   2
BRANCH   1   9
ATOM      9  C   UNL     1      -7.950   2.340 125.510  0.00  0.00    +0.000 C 
BRANCH   9  10
ATOM     10  C   UNL     1      -6.548   2.717 125.970  0.00  0.00    +0.000 A 
ATOM     11  C   UNL     1      -6.010   3.998 125.816  0.00  0.00    +0.000 A 
ATOM     12  C   UNL     1      -4.651   4.234 125.944  0.00  0.00    +0.000 A 
ATOM     13  C   UNL     1      -3.855   3.270 126.533  0.00  0.00    +0.000 A 
ATOM     14  C   UNL     1      -4.397   2.036 126.894  0.00  0.00    +0.000 A 
ATOM     15  C   UNL     1      -5.731   1.750 126.570  0.00  0.00    +0.000 A 
BRANCH  13  16
ATOM     16  N   UNL     1      -2.489   3.651 126.881  0.00  0.00    +0.000 N 
ATOM     17  O   UNL     1      -1.570   3.071 126.278  0.00  0.00    +0.000 OA
ATOM     18  O   UNL     1      -2.336   4.534 127.732  0.00  0.00    +0.000 OA
ENDBRANCH  13  16
ENDBRANCH   9  10
BRANCH   9  19
ATOM     19  O   UNL     1      -8.626   3.595 125.360  0.00  0.00    +0.000 OA
ATOM     20  H   UNL     1      -9.367   3.495 124.745  0.00  0.00    +0.000 HD
ENDBRANCH   9  19
ENDBRANCH   1   9
BRANCH   1  21
ATOM     21  C   UNL     1      -7.050   1.929 123.081  0.00  0.00    +0.000 C 
BRANCH  21  22
ATOM     22  O   UNL     1      -7.266   3.278 122.629  0.00  0.00    +0.000 OA
BRANCH  22  23
ATOM     23  C   UNL     1      -7.645   3.555 121.358  0.00  0.00    +0.000 C 
ATOM     24  O   UNL     1      -8.791   3.694 120.999  0.00  0.00    +0.000 OA
BRANCH  23  25
ATOM     25  C   UNL     1      -6.405   3.665 120.466  0.00  0.00    +0.000 C 
BRANCH  25  26
ATOM     26  C   UNL     1      -6.670   4.571 119.288  0.00  0.00    +0.000 C 
BRANCH  26  27
ATOM     27  C   UNL     1      -5.726   5.728 119.055  0.00  0.00    +0.000 C 
ATOM     28  O   UNL     1      -4.978   6.113 119.944  0.00  0.00    +0.000 OA
BRANCH  27  29
ATOM     29  O   UNL     1      -5.724   6.328 117.854  0.00  0.00    +0.000 OA
ATOM     30  H   UNL     1      -4.897   6.538 117.388  0.00  0.00    +0.000 HD
ENDBRANCH  27  29
ENDBRANCH  26  27
ENDBRANCH  25  26
ENDBRANCH  23  25
ENDBRANCH  22  23
ENDBRANCH  21  22
ENDBRANCH   1  21
TORSDOF 13
ENDMDL
MODEL 2
REMARK VINA RESULT:      -7.2      2.832      5.638
REMARK  Name = Chloramphenicol succinate
REMARK  13 active torsions:
REMARK  status: ('A' for Active; 'I' for Inactive)
REMARK    1  A    between atoms: O_1  and  C_2
REMARK    2  A    between atoms: C_2  and  C_3
REMARK    3  A    between atoms: C_2  and  C_19
REMARK    4  A    between atoms: C_3  and  C_4
REMARK    5  A    between atoms: C_3  and  N_13
REMARK    6  A    between atoms: C_4  and  O_5
REMARK    7  A    between atoms: O_5  and  C_6
REMARK    8  A    between atoms: C_6  and  C_8
REMARK    9  A    between atoms: C_8  and  C_9
REMARK   10  A    between atoms: C_9  and  C_10
REMARK   11  A    between atoms: C_10  and  O_11
REMARK   12  A    between atoms: C_14  and  C_16
REMARK   13  A    between atoms: C_22  and  N_25
REMARK                            x       y       z     vdW  Elec       q    Type
REMARK                         _______ _______ _______ _____ _____    ______ ____
ROOT
ATOM      1  C   UNL     1      -8.591   0.862 124.226  0.00  0.00    +0.000 C 
ENDROOT
BRANCH   1   2
ATOM      2  N   UNL     1      -8.167  -0.445 123.652  0.00  0.00    +0.000 N 
ATOM      3  C   UNL     1      -6.947  -1.004 124.030  0.00  0.00    +0.000 C 
ATOM      4  O   UNL     1      -6.219  -0.410 124.825  0.00  0.00    +0.000 OA
ATOM      5  H   UNL     1      -8.738  -0.916 122.958  0.00  0.00    +0.000 HD
BRANCH   3   6
ATOM      6  C   UNL     1      -6.626  -2.395 123.464  0.00  0.00    +0.000 C 
ATOM      7 CL   UNL     1      -4.915  -2.758 123.759  0.00  0.00    +0.000 Cl
ATOM      8 CL   UNL     1      -7.662  -3.631 124.207  0.00  0.00    +0.000 Cl
ENDBRANCH   3   6
ENDBRANCH   1   2
BRANCH   1   9
ATOM      9  C   UNL     1      -9.278   1.783 123.160  0.00  0.00    +0.000 C 
BRANCH   9  10
ATOM     10  C   UNL     1      -8.370   2.714 122.368  0.00  0.00    +0.000 A 
ATOM     11  C   UNL     1      -8.796   3.422 121.239  0.00  0.00    +0.000 A 
ATOM     12  C   UNL     1      -7.893   3.999 120.362  0.00  0.00    +0.000 A 
ATOM     13  C   UNL     1      -6.577   4.153 120.757  0.00  0.00    +0.000 A 
ATOM     14  C   UNL     1      -6.147   3.636 121.980  0.00  0.00    +0.000 A 
ATOM     15  C   UNL     1      -7.035   2.881 122.758  0.00  0.00    +0.000 A 
BRANCH  13  16
ATOM     16  N   UNL     1      -5.719   4.988 119.921  0.00  0.00    +0.000 N 
ATOM     17  O   UNL     1      -5.964   5.006 118.702  0.00  0.00    +0.000 OA
ATOM     18  O   UNL     1      -4.825   5.634 120.477  0.00  0.00    +0.000 OA
ENDBRANCH  13  16
ENDBRANCH   9  10
BRANCH   9  19
ATOM     19  O   UNL     1      -9.958   1.012 122.160  0.00  0.00    +0.000 OA
ATOM     20  H   UNL     1     -10.564   0.389 122.585  0.00  0.00    +0.000 HD
ENDBRANCH   9  19
ENDBRANCH   1   9
BRANCH   1  21
ATOM     21  C   UNL     1      -9.500   0.609 125.494  0.00  0.00    +0.000 C 
BRANCH  21  22
ATOM     22  O   UNL     1      -9.310   1.576 126.543  0.00  0.00    +0.000 OA
BRANCH  22  23
ATOM     23  C   UNL     1      -8.313   1.457 127.453  0.00  0.00    +0.000 C 
ATOM     24  O   UNL     1      -7.951   0.412 127.942  0.00  0.00    +0.000 OA
BRANCH  23  25
ATOM     25  C   UNL     1      -7.726   2.840 127.753  0.00  0.00    +0.000 C 
BRANCH  25  26
ATOM     26  C   UNL     1      -7.031   3.404 126.537  0.00  0.00    +0.000 C 
BRANCH  26  27
ATOM     27  C   UNL     1      -7.699   4.542 125.802  0.00  0.00    +0.000 C 
ATOM     28  O   UNL     1      -7.070   5.550 125.505  0.00  0.00    +0.000 OA
BRANCH  27  29
ATOM     29  O   UNL     1      -8.998   4.430 125.481  0.00  0.00    +0.000 OA
ATOM     30  H   UNL     1      -9.589   5.202 125.464  0.00  0.00    +0.000 HD
ENDBRANCH  27  29
ENDBRANCH  26  27
ENDBRANCH  25  26
ENDBRANCH  23  25
ENDBRANCH  22  23
ENDBRANCH  21  22
ENDBRANCH   1  21
TORSDOF 13
ENDMDL
MODEL 3
REMARK VINA RESULT:      -7.0      2.273      5.603
REMARK  Name = Chloramphenicol succinate
REMARK  13 active torsions:
REMARK  status: ('A' for Active; 'I' for Inactive)
REMARK    1  A    between atoms: O_1  and  C_2
REMARK    2  A    between atoms: C_2  and  C_3
REMARK    3  A    between atoms: C_2  and  C_19
REMARK    4  A    between atoms: C_3  and  C_4
REMARK    5  A    between atoms: C_3  and  N_13
REMARK    6  A    between atoms: C_4  and  O_5
REMARK    7  A    between atoms: O_5  and  C_6
REMARK    8  A    between atoms: C_6  and  C_8
REMARK    9  A    between atoms: C_8  and  C_9
REMARK   10  A    between atoms: C_9  and  C_10
REMARK   11  A    between atoms: C_10  and  O_11
REMARK   12  A    between atoms: C_14  and  C_16
REMARK   13  A    between atoms: C_22  and  N_25
REMARK                            x       y       z     vdW  Elec       q    Type
REMARK                         _______ _______ _______ _____ _____    ______ ____
ROOT
ATOM      1  C   UNL     1      -8.256   1.293 124.152  0.00  0.00    +0.000 C 
ENDROOT
BRANCH   1   2
ATOM      2  N   UNL     1      -8.778  -0.093 124.302  0.00  0.00    +0.000 N 
ATOM      3  C   UNL     1      -7.892  -1.169 124.307  0.00  0.00    +0.000 C 
ATOM      4  O   UNL     1      -6.684  -0.971 124.174  0.00  0.00    +0.000 OA
ATOM      5  H   UNL     1      -9.776  -0.268 124.361  0.00  0.00    +0.000 HD
BRANCH   3   6
ATOM      6  C   UNL     1      -8.500  -2.557 124.557  0.00  0.00    +0.000 C 
ATOM      7 CL   UNL     1      -9.407  -2.524 126.082  0.00  0.00    +0.000 Cl
ATOM      8 CL   UNL     1      -9.559  -3.032 123.213  0.00  0.00    +0.000 Cl
ENDBRANCH   3   6
ENDBRANCH   1   2
BRANCH   1   9
ATOM      9  C   UNL     1      -8.995   2.086 123.020  0.00  0.00    +0.000 C 
BRANCH   9  10
ATOM     10  C   UNL     1      -8.123   2.842 122.028  0.00  0.00    +0.000 A 
ATOM     11  C   UNL     1      -6.746   3.019 122.199  0.00  0.00    +0.000 A 
ATOM     12  C   UNL     1      -6.040   3.963 121.470  0.00  0.00    +0.000 A 
ATOM     13  C   UNL     1      -6.625   4.519 120.348  0.00  0.00    +0.000 A 
ATOM     14  C   UNL     1      -7.946   4.212 120.018  0.00  0.00    +0.000 A 
ATOM     15  C   UNL     1      -8.701   3.410 120.885  0.00  0.00    +0.000 A 
BRANCH  13  16
ATOM     16  N   UNL     1      -5.768   5.308 119.467  0.00  0.00    +0.000 N 
ATOM     17  O   UNL     1      -5.991   5.234 118.247  0.00  0.00    +0.000 OA
ATOM     18  O   UNL     1      -4.897   6.012 119.990  0.00  0.00    +0.000 OA
ENDBRANCH  13  16
ENDBRANCH   9  10
BRANCH   9  19
ATOM     19  O   UNL     1      -9.792   1.217 122.204  0.00  0.00    +0.000 OA
ATOM     20  H   UNL     1     -10.405   1.742 121.671  0.00  0.00    +0.000 HD
ENDBRANCH   9  19
ENDBRANCH   1   9
BRANCH   1  21
ATOM     21  C   UNL     1      -8.311   2.029 125.551  0.00  0.00    +0.000 C 
BRANCH  21  22
ATOM     22  O   UNL     1      -8.933   3.326 125.497  0.00  0.00    +0.000 OA
BRANCH  22  23
ATOM     23  C   UNL     1      -8.243   4.461 125.762  0.00  0.00    +0.000 C 
ATOM     24  O   UNL     1      -8.749   5.530 126.011  0.00  0.00    +0.000 OA
BRANCH  23  25
ATOM     25  C   UNL     1      -6.740   4.173 125.700  0.00  0.00    +0.000 C 
BRANCH  25  26
ATOM     26  C   UNL     1      -6.072   4.519 127.009  0.00  0.00    +0.000 C 
BRANCH  26  27
ATOM     27  C   UNL     1      -4.623   4.946 126.977  0.00  0.00    +0.000 C 
ATOM     28  O   UNL     1      -4.253   5.947 127.577  0.00  0.00    +0.000 OA
BRANCH  27  29
ATOM     29  O   UNL     1      -3.748   4.208 126.276  0.00  0.00    +0.000 OA
ATOM     30  H   UNL     1      -2.815   4.465 126.189  0.00  0.00    +0.000 HD
ENDBRANCH  27  29
ENDBRANCH  26  27
ENDBRANCH  25  26
ENDBRANCH  23  25
ENDBRANCH  22  23
ENDBRANCH  21  22
ENDBRANCH   1  21
TORSDOF 13
ENDMDL
MODEL 4
REMARK VINA RESULT:      -7.0      2.874      6.163
REMARK  Name = Chloramphenicol succinate
REMARK  13 active torsions:
REMARK  status: ('A' for Active; 'I' for Inactive)
REMARK    1  A    between atoms: O_1  and  C_2
REMARK    2  A    between atoms: C_2  and  C_3
REMARK    3  A    between atoms: C_2  and  C_19
REMARK    4  A    between atoms: C_3  and  C_4
REMARK    5  A    between atoms: C_3  and  N_13
REMARK    6  A    between atoms: C_4  and  O_5
REMARK    7  A    between atoms: O_5  and  C_6
REMARK    8  A    between atoms: C_6  and  C_8
REMARK    9  A    between atoms: C_8  and  C_9
REMARK   10  A    between atoms: C_9  and  C_10
REMARK   11  A    between atoms: C_10  and  O_11
REMARK   12  A    between atoms: C_14  and  C_16
REMARK   13  A    between atoms: C_22  and  N_25
REMARK                            x       y       z     vdW  Elec       q    Type
REMARK                         _______ _______ _______ _____ _____    ______ ____
ROOT
ATOM      1  C   UNL     1      -8.312   1.033 123.855  0.00  0.00    +0.000 C 
ENDROOT
BRANCH   1   2
ATOM      2  N   UNL     1      -8.637  -0.399 123.610  0.00  0.00    +0.000 N 
ATOM      3  C   UNL     1      -7.609  -1.314 123.384  0.00  0.00    +0.000 C 
ATOM      4  O   UNL     1      -6.439  -0.933 123.375  0.00  0.00    +0.000 OA
ATOM      5  H   UNL     1      -9.601  -0.712 123.565  0.00  0.00    +0.000 HD
BRANCH   3   6
ATOM      6  C   UNL     1      -8.022  -2.785 123.230  0.00  0.00    +0.000 C 
ATOM      7 CL   UNL     1      -7.177  -3.753 124.453  0.00  0.00    +0.000 Cl
ATOM      8 CL   UNL     1      -9.781  -2.966 123.398  0.00  0.00    +0.000 Cl
ENDBRANCH   3   6
ENDBRANCH   1   2
BRANCH   1   9
ATOM      9  C   UNL     1      -9.080   1.991 122.882  0.00  0.00    +0.000 C 
BRANCH   9  10
ATOM     10  C   UNL     1      -8.237   2.947 122.050  0.00  0.00    +0.000 A 
ATOM     11  C   UNL     1      -8.711   3.582 120.898  0.00  0.00    +0.000 A 
ATOM     12  C   UNL     1      -7.850   4.182 119.994  0.00  0.00    +0.000 A 
ATOM     13  C   UNL     1      -6.545   4.434 120.375  0.00  0.00    +0.000 A 
ATOM     14  C   UNL     1      -6.078   3.992 121.614  0.00  0.00    +0.000 A 
ATOM     15  C   UNL     1      -6.914   3.213 122.425  0.00  0.00    +0.000 A 
BRANCH  13  16
ATOM     16  N   UNL     1      -5.745   5.288 119.502  0.00  0.00    +0.000 N 
ATOM     17  O   UNL     1      -4.889   6.007 120.046  0.00  0.00    +0.000 OA
ATOM     18  O   UNL     1      -5.954   5.226 118.286  0.00  0.00    +0.000 OA
ENDBRANCH  13  16
ENDBRANCH   9  10
BRANCH   9  19
ATOM     19  O   UNL     1      -9.844   1.256 121.917  0.00  0.00    +0.000 OA
ATOM     20  H   UNL     1      -9.264   0.952 121.205  0.00  0.00    +0.000 HD
ENDBRANCH   9  19
ENDBRANCH   1   9
BRANCH   1  21
ATOM     21  C   UNL     1      -8.565   1.375 125.378  0.00  0.00    +0.000 C 
BRANCH  21  22
ATOM     22  O   UNL     1      -7.600   2.288 125.932  0.00  0.00    +0.000 OA
BRANCH  22  23
ATOM     23  C   UNL     1      -7.858   3.612 126.057  0.00  0.00    +0.000 C 
ATOM     24  O   UNL     1      -8.704   4.209 125.432  0.00  0.00    +0.000 OA
BRANCH  23  25
ATOM     25  C   UNL     1      -6.922   4.220 127.106  0.00  0.00    +0.000 C 
BRANCH  25  26
ATOM     26  C   UNL     1      -7.459   3.996 128.499  0.00  0.00    +0.000 C 
BRANCH  26  27
ATOM     27  C   UNL     1      -8.804   4.590 128.846  0.00  0.00    +0.000 C 
ATOM     28  O   UNL     1      -9.537   4.047 129.663  0.00  0.00    +0.000 OA
BRANCH  27  29
ATOM     29  O   UNL     1      -9.183   5.727 128.240  0.00  0.00    +0.000 OA
ATOM     30  H   UNL     1     -10.104   5.880 127.970  0.00  0.00    +0.000 HD
ENDBRANCH  27  29
ENDBRANCH  26  27
ENDBRANCH  25  26
ENDBRANCH  23  25
ENDBRANCH  22  23
ENDBRANCH  21  22
ENDBRANCH   1  21
TORSDOF 13
ENDMDL
MODEL 5
REMARK VINA RESULT:      -6.9      6.823      8.162
REMARK  Name = Chloramphenicol succinate
REMARK  13 active torsions:
REMARK  status: ('A' for Active; 'I' for Inactive)
REMARK    1  A    between atoms: O_1  and  C_2
REMARK    2  A    between atoms: C_2  and  C_3
REMARK    3  A    between atoms: C_2  and  C_19
REMARK    4  A    between atoms: C_3  and  C_4
REMARK    5  A    between atoms: C_3  and  N_13
REMARK    6  A    between atoms: C_4  and  O_5
REMARK    7  A    between atoms: O_5  and  C_6
REMARK    8  A    between atoms: C_6  and  C_8
REMARK    9  A    between atoms: C_8  and  C_9
REMARK   10  A    between atoms: C_9  and  C_10
REMARK   11  A    between atoms: C_10  and  O_11
REMARK   12  A    between atoms: C_14  and  C_16
REMARK   13  A    between atoms: C_22  and  N_25
REMARK                            x       y       z     vdW  Elec       q    Type
REMARK                         _______ _______ _______ _____ _____    ______ ____
ROOT
ATOM      1  C   UNL     1     -10.155   4.584 131.295  0.00  0.00    +0.000 C 
ENDROOT
BRANCH   1   2
ATOM      2  N   UNL     1      -9.116   4.053 130.369  0.00  0.00    +0.000 N 
ATOM      3  C   UNL     1      -8.756   2.707 130.432  0.00  0.00    +0.000 C 
ATOM      4  O   UNL     1      -9.288   1.967 131.258  0.00  0.00    +0.000 OA
ATOM      5  H   UNL     1      -8.637   4.668 129.720  0.00  0.00    +0.000 HD
BRANCH   3   6
ATOM      6  C   UNL     1      -7.746   2.219 129.383  0.00  0.00    +0.000 C 
ATOM      7 CL   UNL     1      -8.625   1.692 127.935  0.00  0.00    +0.000 Cl
ATOM      8 CL   UNL     1      -6.590   3.504 128.977  0.00  0.00    +0.000 Cl
ENDBRANCH   3   6
ENDBRANCH   1   2
BRANCH   1   9
ATOM      9  C   UNL     1      -9.529   5.356 132.507  0.00  0.00    +0.000 C 
BRANCH   9  10
ATOM     10  C   UNL     1      -8.112   5.883 132.330  0.00  0.00    +0.000 A 
ATOM     11  C   UNL     1      -7.756   6.805 131.341  0.00  0.00    +0.000 A 
ATOM     12  C   UNL     1      -6.432   7.023 130.996  0.00  0.00    +0.000 A 
ATOM     13  C   UNL     1      -5.435   6.567 131.837  0.00  0.00    +0.000 A 
ATOM     14  C   UNL     1      -5.758   5.805 132.961  0.00  0.00    +0.000 A 
ATOM     15  C   UNL     1      -7.092   5.430 133.176  0.00  0.00    +0.000 A 
BRANCH  13  16
ATOM     16  N   UNL     1      -4.075   7.032 131.578  0.00  0.00    +0.000 N 
ATOM     17  O   UNL     1      -3.275   6.994 132.528  0.00  0.00    +0.000 OA
ATOM     18  O   UNL     1      -3.803   7.410 130.433  0.00  0.00    +0.000 OA
ENDBRANCH  13  16
ENDBRANCH   9  10
BRANCH   9  19
ATOM     19  O   UNL     1     -10.301   6.515 132.846  0.00  0.00    +0.000 OA
ATOM     20  H   UNL     1      -9.721   7.197 133.214  0.00  0.00    +0.000 HD
ENDBRANCH   9  19
ENDBRANCH   1   9
BRANCH   1  21
ATOM     21  C   UNL     1     -11.188   5.459 130.479  0.00  0.00    +0.000 C 
BRANCH  21  22
ATOM     22  O   UNL     1     -10.652   6.718 130.033  0.00  0.00    +0.000 OA
BRANCH  22  23
ATOM     23  C   UNL     1     -10.224   6.903 128.762  0.00  0.00    +0.000 C 
ATOM     24  O   UNL     1      -9.665   6.062 128.096  0.00  0.00    +0.000 OA
BRANCH  23  25
ATOM     25  C   UNL     1     -10.562   8.327 128.309  0.00  0.00    +0.000 C 
BRANCH  25  26
ATOM     26  C   UNL     1     -12.012   8.430 127.900  0.00  0.00    +0.000 C 
BRANCH  26  27
ATOM     27  C   UNL     1     -12.666   7.214 127.287  0.00  0.00    +0.000 C 
ATOM     28  O   UNL     1     -13.667   6.721 127.790  0.00  0.00    +0.000 OA
BRANCH  27  29
ATOM     29  O   UNL     1     -12.126   6.680 126.179  0.00  0.00    +0.000 OA
ATOM     30  H   UNL     1     -11.343   6.106 126.217  0.00  0.00    +0.000 HD
ENDBRANCH  27  29
ENDBRANCH  26  27
ENDBRANCH  25  26
ENDBRANCH  23  25
ENDBRANCH  22  23
ENDBRANCH  21  22
ENDBRANCH   1  21
TORSDOF 13
ENDMDL
MODEL 6
REMARK VINA RESULT:      -6.8      2.347      6.109
REMARK  Name = Chloramphenicol succinate
REMARK  13 active torsions:
REMARK  status: ('A' for Active; 'I' for Inactive)
REMARK    1  A    between atoms: O_1  and  C_2
REMARK    2  A    between atoms: C_2  and  C_3
REMARK    3  A    between atoms: C_2  and  C_19
REMARK    4  A    between atoms: C_3  and  C_4
REMARK    5  A    between atoms: C_3  and  N_13
REMARK    6  A    between atoms: C_4  and  O_5
REMARK    7  A    between atoms: O_5  and  C_6
REMARK    8  A    between atoms: C_6  and  C_8
REMARK    9  A    between atoms: C_8  and  C_9
REMARK   10  A    between atoms: C_9  and  C_10
REMARK   11  A    between atoms: C_10  and  O_11
REMARK   12  A    between atoms: C_14  and  C_16
REMARK   13  A    between atoms: C_22  and  N_25
REMARK                            x       y       z     vdW  Elec       q    Type
REMARK                         _______ _______ _______ _____ _____    ______ ____
ROOT
ATOM      1  C   UNL     1      -7.027   1.578 124.722  0.00  0.00    +0.000 C 
ENDROOT
BRANCH   1   2
ATOM      2  N   UNL     1      -7.832   0.339 124.901  0.00  0.00    +0.000 N 
ATOM      3  C   UNL     1      -7.715  -0.702 123.981  0.00  0.00    +0.000 C 
ATOM      4  O   UNL     1      -6.956  -0.588 123.018  0.00  0.00    +0.000 OA
ATOM      5  H   UNL     1      -8.497   0.258 125.663  0.00  0.00    +0.000 HD
BRANCH   3   6
ATOM      6  C   UNL     1      -8.509  -1.980 124.286  0.00  0.00    +0.000 C 
ATOM      7 CL   UNL     1      -7.411  -3.372 124.226  0.00  0.00    +0.000 Cl
ATOM      8 CL   UNL     1      -9.290  -1.871 125.878  0.00  0.00    +0.000 Cl
ENDBRANCH   3   6
ENDBRANCH   1   2
BRANCH   1   9
ATOM      9  C   UNL     1      -7.878   2.759 124.141  0.00  0.00    +0.000 C 
BRANCH   9  10
ATOM     10  C   UNL     1      -7.608   3.155 122.696  0.00  0.00    +0.000 A 
ATOM     11  C   UNL     1      -6.323   3.379 122.190  0.00  0.00    +0.000 A 
ATOM     12  C   UNL     1      -6.121   4.037 120.988  0.00  0.00    +0.000 A 
ATOM     13  C   UNL     1      -7.188   4.200 120.124  0.00  0.00    +0.000 A 
ATOM     14  C   UNL     1      -8.470   3.801 120.509  0.00  0.00    +0.000 A 
ATOM     15  C   UNL     1      -8.679   3.322 121.809  0.00  0.00    +0.000 A 
BRANCH  13  16
ATOM     16  N   UNL     1      -6.892   4.663 118.772  0.00  0.00    +0.000 N 
ATOM     17  O   UNL     1      -7.595   4.209 117.853  0.00  0.00    +0.000 OA
ATOM     18  O   UNL     1      -5.981   5.486 118.631  0.00  0.00    +0.000 OA
ENDBRANCH  13  16
ENDBRANCH   9  10
BRANCH   9  19
ATOM     19  O   UNL     1      -9.280   2.463 124.174  0.00  0.00    +0.000 OA
ATOM     20  H   UNL     1      -9.439   1.597 123.772  0.00  0.00    +0.000 HD
ENDBRANCH   9  19
ENDBRANCH   1   9
BRANCH   1  21
ATOM     21  C   UNL     1      -6.320   1.947 126.088  0.00  0.00    +0.000 C 
BRANCH  21  22
ATOM     22  O   UNL     1      -4.937   2.316 125.940  0.00  0.00    +0.000 OA
BRANCH  22  23
ATOM     23  C   UNL     1      -4.545   3.612 125.889  0.00  0.00    +0.000 C 
ATOM     24  O   UNL     1      -5.238   4.525 125.505  0.00  0.00    +0.000 OA
BRANCH  23  25
ATOM     25  C   UNL     1      -3.103   3.730 126.393  0.00  0.00    +0.000 C 
BRANCH  25  26
ATOM     26  C   UNL     1      -3.067   4.324 127.781  0.00  0.00    +0.000 C 
BRANCH  26  27
ATOM     27  C   UNL     1      -3.091   5.829 127.911  0.00  0.00    +0.000 C 
ATOM     28  O   UNL     1      -2.102   6.439 128.297  0.00  0.00    +0.000 OA
BRANCH  27  29
ATOM     29  O   UNL     1      -4.219   6.486 127.597  0.00  0.00    +0.000 OA
ATOM     30  H   UNL     1      -4.859   6.128 126.960  0.00  0.00    +0.000 HD
ENDBRANCH  27  29
ENDBRANCH  26  27
ENDBRANCH  25  26
ENDBRANCH  23  25
ENDBRANCH  22  23
ENDBRANCH  21  22
ENDBRANCH   1  21
TORSDOF 13
ENDMDL
MODEL 7
REMARK VINA RESULT:      -6.7      6.349      8.117
REMARK  Name = Chloramphenicol succinate
REMARK  13 active torsions:
REMARK  status: ('A' for Active; 'I' for Inactive)
REMARK    1  A    between atoms: O_1  and  C_2
REMARK    2  A    between atoms: C_2  and  C_3
REMARK    3  A    between atoms: C_2  and  C_19
REMARK    4  A    between atoms: C_3  and  C_4
REMARK    5  A    between atoms: C_3  and  N_13
REMARK    6  A    between atoms: C_4  and  O_5
REMARK    7  A    between atoms: O_5  and  C_6
REMARK    8  A    between atoms: C_6  and  C_8
REMARK    9  A    between atoms: C_8  and  C_9
REMARK   10  A    between atoms: C_9  and  C_10
REMARK   11  A    between atoms: C_10  and  O_11
REMARK   12  A    between atoms: C_14  and  C_16
REMARK   13  A    between atoms: C_22  and  N_25
REMARK                            x       y       z     vdW  Elec       q    Type
REMARK                         _______ _______ _______ _____ _____    ______ ____
ROOT
ATOM      1  C   UNL     1      -9.659   5.174 130.412  0.00  0.00    +0.000 C 
ENDROOT
BRANCH   1   2
ATOM      2  N   UNL     1      -9.029   4.863 129.100  0.00  0.00    +0.000 N 
ATOM      3  C   UNL     1      -8.032   3.891 129.024  0.00  0.00    +0.000 C 
ATOM      4  O   UNL     1      -7.668   3.304 130.042  0.00  0.00    +0.000 OA
ATOM      5  H   UNL     1      -9.287   5.379 128.265  0.00  0.00    +0.000 HD
BRANCH   3   6
ATOM      6  C   UNL     1      -7.497   3.566 127.622  0.00  0.00    +0.000 C 
ATOM      7 CL   UNL     1      -5.724   3.590 127.659  0.00  0.00    +0.000 Cl
ATOM      8 CL   UNL     1      -8.087   1.983 127.074  0.00  0.00    +0.000 Cl
ENDBRANCH   3   6
ENDBRANCH   1   2
BRANCH   1   9
ATOM      9  C   UNL     1      -9.119   6.511 131.028  0.00  0.00    +0.000 C 
BRANCH   9  10
ATOM     10  C   UNL     1      -7.727   6.472 131.641  0.00  0.00    +0.000 A 
ATOM     11  C   UNL     1      -6.604   7.041 131.030  0.00  0.00    +0.000 A 
ATOM     12  C   UNL     1      -5.319   6.723 131.436  0.00  0.00    +0.000 A 
ATOM     13  C   UNL     1      -5.135   6.087 132.649  0.00  0.00    +0.000 A 
ATOM     14  C   UNL     1      -6.238   5.676 133.400  0.00  0.00    +0.000 A 
ATOM     15  C   UNL     1      -7.526   5.832 132.871  0.00  0.00    +0.000 A 
BRANCH  13  16
ATOM     16  N   UNL     1      -3.771   5.997 133.160  0.00  0.00    +0.000 N 
ATOM     17  O   UNL     1      -2.896   6.635 132.548  0.00  0.00    +0.000 OA
ATOM     18  O   UNL     1      -3.577   5.317 134.173  0.00  0.00    +0.000 OA
ENDBRANCH  13  16
ENDBRANCH   9  10
BRANCH   9  19
ATOM     19  O   UNL     1      -9.047   7.551 130.044  0.00  0.00    +0.000 OA
ATOM     20  H   UNL     1      -9.933   7.739 129.703  0.00  0.00    +0.000 HD
ENDBRANCH   9  19
ENDBRANCH   1   9
BRANCH   1  21
ATOM     21  C   UNL     1     -11.233   5.164 130.254  0.00  0.00    +0.000 C 
BRANCH  21  22
ATOM     22  O   UNL     1     -11.725   6.138 129.316  0.00  0.00    +0.000 OA
BRANCH  22  23
ATOM     23  C   UNL     1     -12.556   7.139 129.693  0.00  0.00    +0.000 C 
ATOM     24  O   UNL     1     -13.067   7.232 130.785  0.00  0.00    +0.000 OA
BRANCH  23  25
ATOM     25  C   UNL     1     -12.736   8.121 128.532  0.00  0.00    +0.000 C 
BRANCH  25  26
ATOM     26  C   UNL     1     -11.458   8.254 127.738  0.00  0.00    +0.000 C 
BRANCH  26  27
ATOM     27  C   UNL     1     -11.386   7.576 126.390  0.00  0.00    +0.000 C 
ATOM     28  O   UNL     1     -10.747   8.074 125.472  0.00  0.00    +0.000 OA
BRANCH  27  29
ATOM     29  O   UNL     1     -12.039   6.416 126.215  0.00  0.00    +0.000 OA
ATOM     30  H   UNL     1     -11.598   5.631 125.848  0.00  0.00    +0.000 HD
ENDBRANCH  27  29
ENDBRANCH  26  27
ENDBRANCH  25  26
ENDBRANCH  23  25
ENDBRANCH  22  23
ENDBRANCH  21  22
ENDBRANCH   1  21
TORSDOF 13
ENDMDL
MODEL 8
REMARK VINA RESULT:      -6.7      2.293      5.708
REMARK  Name = Chloramphenicol succinate
REMARK  13 active torsions:
REMARK  status: ('A' for Active; 'I' for Inactive)
REMARK    1  A    between atoms: O_1  and  C_2
REMARK    2  A    between atoms: C_2  and  C_3
REMARK    3  A    between atoms: C_2  and  C_19
REMARK    4  A    between atoms: C_3  and  C_4
REMARK    5  A    between atoms: C_3  and  N_13
REMARK    6  A    between atoms: C_4  and  O_5
REMARK    7  A    between atoms: O_5  and  C_6
REMARK    8  A    between atoms: C_6  and  C_8
REMARK    9  A    between atoms: C_8  and  C_9
REMARK   10  A    between atoms: C_9  and  C_10
REMARK   11  A    between atoms: C_10  and  O_11
REMARK   12  A    between atoms: C_14  and  C_16
REMARK   13  A    between atoms: C_22  and  N_25
REMARK                            x       y       z     vdW  Elec       q    Type
REMARK                         _______ _______ _______ _____ _____    ______ ____
ROOT
ATOM      1  C   UNL     1      -7.840   1.100 125.647  0.00  0.00    +0.000 C 
ENDROOT
BRANCH   1   2
ATOM      2  N   UNL     1      -8.710  -0.103 125.745  0.00  0.00    +0.000 N 
ATOM      3  C   UNL     1      -8.418  -1.232 124.980  0.00  0.00    +0.000 C 
ATOM      4  O   UNL     1      -7.451  -1.226 124.220  0.00  0.00    +0.000 OA
ATOM      5  H   UNL     1      -9.539  -0.099 126.330  0.00  0.00    +0.000 HD
BRANCH   3   6
ATOM      6  C   UNL     1      -9.310  -2.462 125.206  0.00  0.00    +0.000 C 
ATOM      7 CL   UNL     1      -9.531  -3.307 123.662  0.00  0.00    +0.000 Cl
ATOM      8 CL   UNL     1      -8.592  -3.548 126.413  0.00  0.00    +0.000 Cl
ENDBRANCH   3   6
ENDBRANCH   1   2
BRANCH   1   9
ATOM      9  C   UNL     1      -8.598   2.334 125.048  0.00  0.00    +0.000 C 
BRANCH   9  10
ATOM     10  C   UNL     1      -8.029   2.937 123.771  0.00  0.00    +0.000 A 
ATOM     11  C   UNL     1      -8.768   3.067 122.590  0.00  0.00    +0.000 A 
ATOM     12  C   UNL     1      -8.153   3.314 121.374  0.00  0.00    +0.000 A 
ATOM     13  C   UNL     1      -6.840   3.746 121.361  0.00  0.00    +0.000 A 
ATOM     14  C   UNL     1      -6.116   3.829 122.552  0.00  0.00    +0.000 A 
ATOM     15  C   UNL     1      -6.701   3.381 123.744  0.00  0.00    +0.000 A 
BRANCH  13  16
ATOM     16  N   UNL     1      -6.309   4.238 120.093  0.00  0.00    +0.000 N 
ATOM     17  O   UNL     1      -5.143   4.671 120.098  0.00  0.00    +0.000 OA
ATOM     18  O   UNL     1      -7.039   4.173 119.098  0.00  0.00    +0.000 OA
ENDBRANCH  13  16
ENDBRANCH   9  10
BRANCH   9  19
ATOM     19  O   UNL     1      -9.953   2.007 124.715  0.00  0.00    +0.000 OA
ATOM     20  H   UNL     1     -10.217   2.483 123.915  0.00  0.00    +0.000 HD
ENDBRANCH   9  19
ENDBRANCH   1   9
BRANCH   1  21
ATOM     21  C   UNL     1      -7.201   1.402 127.062  0.00  0.00    +0.000 C 
BRANCH  21  22
ATOM     22  O   UNL     1      -7.080   2.806 127.353  0.00  0.00    +0.000 OA
BRANCH  22  23
ATOM     23  C   UNL     1      -5.889   3.448 127.292  0.00  0.00    +0.000 C 
ATOM     24  O   UNL     1      -5.759   4.645 127.179  0.00  0.00    +0.000 OA
BRANCH  23  25
ATOM     25  C   UNL     1      -4.751   2.428 127.394  0.00  0.00    +0.000 C 
BRANCH  25  26
ATOM     26  C   UNL     1      -3.641   2.763 126.427  0.00  0.00    +0.000 C 
BRANCH  26  27
ATOM     27  C   UNL     1      -2.327   3.248 126.995  0.00  0.00    +0.000 C 
ATOM     28  O   UNL     1      -2.267   4.294 127.629  0.00  0.00    +0.000 OA
BRANCH  27  29
ATOM     29  O   UNL     1      -1.223   2.512 126.789  0.00  0.00    +0.000 OA
ATOM     30  H   UNL     1      -0.915   2.291 125.894  0.00  0.00    +0.000 HD
ENDBRANCH  27  29
ENDBRANCH  26  27
ENDBRANCH  25  26
ENDBRANCH  23  25
ENDBRANCH  22  23
ENDBRANCH  21  22
ENDBRANCH   1  21
TORSDOF 13
ENDMDL
MODEL 9
REMARK VINA RESULT:      -6.6      6.990      8.802
REMARK  Name = Chloramphenicol succinate
REMARK  13 active torsions:
REMARK  status: ('A' for Active; 'I' for Inactive)
REMARK    1  A    between atoms: O_1  and  C_2
REMARK    2  A    between atoms: C_2  and  C_3
REMARK    3  A    between atoms: C_2  and  C_19
REMARK    4  A    between atoms: C_3  and  C_4
REMARK    5  A    between atoms: C_3  and  N_13
REMARK    6  A    between atoms: C_4  and  O_5
REMARK    7  A    between atoms: O_5  and  C_6
REMARK    8  A    between atoms: C_6  and  C_8
REMARK    9  A    between atoms: C_8  and  C_9
REMARK   10  A    between atoms: C_9  and  C_10
REMARK   11  A    between atoms: C_10  and  O_11
REMARK   12  A    between atoms: C_14  and  C_16
REMARK   13  A    between atoms: C_22  and  N_25
REMARK                            x       y       z     vdW  Elec       q    Type
REMARK                         _______ _______ _______ _____ _____    ______ ____
ROOT
ATOM      1  C   UNL     1     -10.194   5.067 130.955  0.00  0.00    +0.000 C 
ENDROOT
BRANCH   1   2
ATOM      2  N   UNL     1     -11.435   5.878 130.811  0.00  0.00    +0.000 N 
ATOM      3  C   UNL     1     -11.721   6.494 129.593  0.00  0.00    +0.000 C 
ATOM      4  O   UNL     1     -10.943   6.377 128.647  0.00  0.00    +0.000 OA
ATOM      5  H   UNL     1     -12.055   6.022 131.601  0.00  0.00    +0.000 HD
BRANCH   3   6
ATOM      6  C   UNL     1     -13.063   7.235 129.500  0.00  0.00    +0.000 C 
ATOM      7 CL   UNL     1     -12.776   8.976 129.689  0.00  0.00    +0.000 Cl
ATOM      8 CL   UNL     1     -13.861   6.901 127.949  0.00  0.00    +0.000 Cl
ENDBRANCH   3   6
ENDBRANCH   1   2
BRANCH   1   9
ATOM      9  C   UNL     1      -9.452   5.353 132.305  0.00  0.00    +0.000 C 
BRANCH   9  10
ATOM     10  C   UNL     1      -8.020   5.858 132.209  0.00  0.00    +0.000 A 
ATOM     11  C   UNL     1      -7.599   6.792 131.257  0.00  0.00    +0.000 A 
ATOM     12  C   UNL     1      -6.256   6.993 130.982  0.00  0.00    +0.000 A 
ATOM     13  C   UNL     1      -5.310   6.504 131.864  0.00  0.00    +0.000 A 
ATOM     14  C   UNL     1      -5.702   5.729 132.956  0.00  0.00    +0.000 A 
ATOM     15  C   UNL     1      -7.051   5.373 133.097  0.00  0.00    +0.000 A 
BRANCH  13  16
ATOM     16  N   UNL     1      -3.931   6.950 131.683  0.00  0.00    +0.000 N 
ATOM     17  O   UNL     1      -3.405   6.723 130.580  0.00  0.00    +0.000 OA
ATOM     18  O   UNL     1      -3.387   7.539 132.623  0.00  0.00    +0.000 OA
ENDBRANCH  13  16
ENDBRANCH   9  10
BRANCH   9  19
ATOM     19  O   UNL     1     -10.132   6.352 133.077  0.00  0.00    +0.000 OA
ATOM     20  H   UNL     1     -11.078   6.151 133.110  0.00  0.00    +0.000 HD
ENDBRANCH   9  19
ENDBRANCH   1   9
BRANCH   1  21
ATOM     21  C   UNL     1     -10.541   3.537 130.758  0.00  0.00    +0.000 C 
BRANCH  21  22
ATOM     22  O   UNL     1      -9.388   2.709 130.524  0.00  0.00    +0.000 OA
BRANCH  22  23
ATOM     23  C   UNL     1      -8.508   2.974 129.529  0.00  0.00    +0.000 C 
ATOM     24  O   UNL     1      -8.810   3.124 128.368  0.00  0.00    +0.000 OA
BRANCH  23  25
ATOM     25  C   UNL     1      -7.091   3.056 130.106  0.00  0.00    +0.000 C 
BRANCH  25  26
ATOM     26  C   UNL     1      -6.059   2.994 129.006  0.00  0.00    +0.000 C 
BRANCH  26  27
ATOM     27  C   UNL     1      -5.171   4.198 128.797  0.00  0.00    +0.000 C 
ATOM     28  O   UNL     1      -5.535   5.129 128.090  0.00  0.00    +0.000 OA
BRANCH  27  29
ATOM     29  O   UNL     1      -3.971   4.228 129.399  0.00  0.00    +0.000 OA
ATOM     30  H   UNL     1      -3.302   4.895 129.173  0.00  0.00    +0.000 HD
ENDBRANCH  27  29
ENDBRANCH  26  27
ENDBRANCH  25  26
ENDBRANCH  23  25
ENDBRANCH  22  23
ENDBRANCH  21  22
ENDBRANCH   1  21
TORSDOF 13
ENDMDL
