MODEL 1
REMARK VINA RESULT:      -4.3      0.000      0.000
REMARK  Name = Chlormerodrin
REMARK  6 active torsions:
REMARK  status: ('A' for Active; 'I' for Inactive)
REMARK    1  A    between atoms: C_1  and  O_2
REMARK    2  A    between atoms: O_2  and  C_3
REMARK    3  A    between atoms: C_3  and  C_4
REMARK    4  A    between atoms: C_3  and  C_9
REMARK    5  A    between atoms: C_4  and  N_5
REMARK    6  A    between atoms: C_9  and  HG_10
REMARK                            x       y       z     vdW  Elec       q    Type
REMARK                         _______ _______ _______ _____ _____    ______ ____
ROOT
ATOM      1  C   UNL     1     -12.008   6.966 130.926  0.00  0.00    +0.000 C 
ENDROOT
BRANCH   1   2
ATOM      2  N   UNL     1     -11.519   5.998 131.918  0.00  0.00    +0.000 N 
ATOM      3  C   UNL     1     -10.075   5.845 132.147  0.00  0.00    +0.000 C 
ATOM      4  N   UNL     1      -9.119   6.661 131.383  0.00  0.00    +0.000 N 
ATOM      5  O   UNL     1      -9.652   5.008 133.004  0.00  0.00    +0.000 OA
ATOM      6  H   UNL     1     -12.158   5.451 132.429  0.00  0.00    +0.000 HD
ATOM      7  H   UNL     1      -9.446   7.310 130.719  0.00  0.00    +0.000 HD
ATOM      8  H   UNL     1      -8.152   6.560 131.536  0.00  0.00    +0.000 HD
ENDBRANCH   1   2
BRANCH   1   9
ATOM      9  C   UNL     1     -12.282   6.252 129.613  0.00  0.00    +0.000 C 
BRANCH   9  11
ATOM     10  C   UNL     1     -10.810   7.490 128.317  0.00  0.00    +0.000 C 
ATOM     11  O   UNL     1     -11.089   6.202 128.843  0.00  0.00    +0.000 OA
ENDBRANCH   9  11
BRANCH   9  12
ATOM     12  C   UNL     1     -13.352   7.005 128.840  0.00  0.00    +0.000 C 
BRANCH  12  13
ATOM     13 HG   UNL     1     -13.433   8.974 129.507  0.00  0.00    +0.000 Hg
ATOM     14 CL   UNL     1     -13.523  11.188 130.258  0.00  0.00    +0.000 Cl
ENDBRANCH  12  13
ENDBRANCH   9  12
ENDBRANCH   1   9
TORSDOF 5
ENDMDL
MODEL 2
REMARK VINA RESULT:      -4.2      2.449      3.768
REMARK  Name = Chlormerodrin
REMARK  6 active torsions:
REMARK  status: ('A' for Active; 'I' for Inactive)
REMARK    1  A    between atoms: C_1  and  O_2
REMARK    2  A    between atoms: O_2  and  C_3
REMARK    3  A    between atoms: C_3  and  C_4
REMARK    4  A    between atoms: C_3  and  C_9
REMARK    5  A    between atoms: C_4  and  N_5
REMARK    6  A    between atoms: C_9  and  HG_10
REMARK                            x       y       z     vdW  Elec       q    Type
REMARK                         _______ _______ _______ _____ _____    ______ ____
ROOT
ATOM      1  C   UNL     1     -11.325   7.843 129.188  0.00  0.00    +0.000 C 
ENDROOT
BRANCH   1   2
ATOM      2  N   UNL     1     -10.288   7.314 128.290  0.00  0.00    +0.000 N 
ATOM      3  C   UNL     1     -10.624   6.972 126.900  0.00  0.00    +0.000 C 
ATOM      4  N   UNL     1     -11.998   7.158 126.408  0.00  0.00    +0.000 N 
ATOM      5  O   UNL     1      -9.728   6.515 126.124  0.00  0.00    +0.000 OA
ATOM      6  H   UNL     1      -9.369   7.189 128.619  0.00  0.00    +0.000 HD
ATOM      7  H   UNL     1     -12.692   7.512 127.010  0.00  0.00    +0.000 HD
ATOM      8  H   UNL     1     -12.223   6.929 125.478  0.00  0.00    +0.000 HD
ENDBRANCH   1   2
BRANCH   1   9
ATOM      9  C   UNL     1     -11.597   6.837 130.295  0.00  0.00    +0.000 C 
BRANCH   9  11
ATOM     10  C   UNL     1     -11.116   4.573 130.434  0.00  0.00    +0.000 C 
ATOM     11  O   UNL     1     -11.847   5.561 129.724  0.00  0.00    +0.000 OA
ENDBRANCH   9  11
BRANCH   9  12
ATOM     12  C   UNL     1     -12.810   7.282 131.096  0.00  0.00    +0.000 C 
BRANCH  12  13
ATOM     13 HG   UNL     1     -13.162   9.304 130.757  0.00  0.00    +0.000 Hg
ATOM     14 CL   UNL     1     -13.557  11.579 130.377  0.00  0.00    +0.000 Cl
ENDBRANCH  12  13
ENDBRANCH   9  12
ENDBRANCH   1   9
TORSDOF 5
ENDMDL
MODEL 3
REMARK VINA RESULT:      -4.1      4.231      4.998
REMARK  Name = Chlormerodrin
REMARK  6 active torsions:
REMARK  status: ('A' for Active; 'I' for Inactive)
REMARK    1  A    between atoms: C_1  and  O_2
REMARK    2  A    between atoms: O_2  and  C_3
REMARK    3  A    between atoms: C_3  and  C_4
REMARK    4  A    between atoms: C_3  and  C_9
REMARK    5  A    between atoms: C_4  and  N_5
REMARK    6  A    between atoms: C_9  and  HG_10
REMARK                            x       y       z     vdW  Elec       q    Type
REMARK                         _______ _______ _______ _____ _____    ______ ____
ROOT
ATOM      1  C   UNL     1     -12.845   7.205 130.071  0.00  0.00    +0.000 C 
ENDROOT
BRANCH   1   2
ATOM      2  N   UNL     1     -12.937   6.628 128.722  0.00  0.00    +0.000 N 
ATOM      3  C   UNL     1     -12.313   7.316 127.583  0.00  0.00    +0.000 C 
ATOM      4  N   UNL     1     -11.595   8.583 127.793  0.00  0.00    +0.000 N 
ATOM      5  O   UNL     1     -12.392   6.817 126.417  0.00  0.00    +0.000 OA
ATOM      6  H   UNL     1     -13.417   5.780 128.581  0.00  0.00    +0.000 HD
ATOM      7  H   UNL     1     -11.533   8.970 128.697  0.00  0.00    +0.000 HD
ATOM      8  H   UNL     1     -11.176   9.043 127.031  0.00  0.00    +0.000 HD
ENDBRANCH   1   2
BRANCH   1   9
ATOM      9  C   UNL     1     -11.673   6.581 130.810  0.00  0.00    +0.000 C 
BRANCH   9  11
ATOM     10  C   UNL     1      -9.544   6.382 129.912  0.00  0.00    +0.000 C 
ATOM     11  O   UNL     1     -10.481   7.282 130.486  0.00  0.00    +0.000 OA
ENDBRANCH   9  11
BRANCH   9  12
ATOM     12  C   UNL     1     -11.533   5.124 130.401  0.00  0.00    +0.000 C 
BRANCH  12  13
ATOM     13 HG   UNL     1     -10.452   4.097 131.852  0.00  0.00    +0.000 Hg
ATOM     14 CL   UNL     1      -9.236   2.942 133.483  0.00  0.00    +0.000 Cl
ENDBRANCH  12  13
ENDBRANCH   9  12
ENDBRANCH   1   9
TORSDOF 5
ENDMDL
MODEL 4
REMARK VINA RESULT:      -3.8      4.253      5.418
REMARK  Name = Chlormerodrin
REMARK  6 active torsions:
REMARK  status: ('A' for Active; 'I' for Inactive)
REMARK    1  A    between atoms: C_1  and  O_2
REMARK    2  A    between atoms: O_2  and  C_3
REMARK    3  A    between atoms: C_3  and  C_4
REMARK    4  A    between atoms: C_3  and  C_9
REMARK    5  A    between atoms: C_4  and  N_5
REMARK    6  A    between atoms: C_9  and  HG_10
REMARK                            x       y       z     vdW  Elec       q    Type
REMARK                         _______ _______ _______ _____ _____    ______ ____
ROOT
ATOM      1  C   UNL     1     -10.768   8.021 129.229  0.00  0.00    +0.000 C 
ENDROOT
BRANCH   1   2
ATOM      2  N   UNL     1     -10.380   8.094 127.813  0.00  0.00    +0.000 N 
ATOM      3  C   UNL     1     -11.304   7.618 126.773  0.00  0.00    +0.000 C 
ATOM      4  N   UNL     1     -12.616   7.071 127.149  0.00  0.00    +0.000 N 
ATOM      5  O   UNL     1     -10.969   7.681 125.549  0.00  0.00    +0.000 OA
ATOM      6  H   UNL     1      -9.502   8.459 127.561  0.00  0.00    +0.000 HD
ATOM      7  H   UNL     1     -12.876   7.023 128.098  0.00  0.00    +0.000 HD
ATOM      8  H   UNL     1     -13.235   6.753 126.453  0.00  0.00    +0.000 HD
ENDBRANCH   1   2
BRANCH   1   9
ATOM      9  C   UNL     1     -10.500   6.621 129.757  0.00  0.00    +0.000 C 
BRANCH   9  11
ATOM     10  C   UNL     1     -12.563   6.917 130.775  0.00  0.00    +0.000 C 
ATOM     11  O   UNL     1     -11.732   5.995 130.085  0.00  0.00    +0.000 OA
ENDBRANCH   9  11
BRANCH   9  12
ATOM     12  C   UNL     1      -9.628   6.706 130.999  0.00  0.00    +0.000 C 
BRANCH  12  13
ATOM     13 HG   UNL     1      -9.545   4.840 131.916  0.00  0.00    +0.000 Hg
ATOM     14 CL   UNL     1      -9.451   2.742 132.947  0.00  0.00    +0.000 Cl
ENDBRANCH  12  13
ENDBRANCH   9  12
ENDBRANCH   1   9
TORSDOF 5
ENDMDL
MODEL 5
REMARK VINA RESULT:      -3.8     11.492     12.095
REMARK  Name = Chlormerodrin
REMARK  6 active torsions:
REMARK  status: ('A' for Active; 'I' for Inactive)
REMARK    1  A    between atoms: C_1  and  O_2
REMARK    2  A    between atoms: O_2  and  C_3
REMARK    3  A    between atoms: C_3  and  C_4
REMARK    4  A    between atoms: C_3  and  C_9
REMARK    5  A    between atoms: C_4  and  N_5
REMARK    6  A    between atoms: C_9  and  HG_10
REMARK                            x       y       z     vdW  Elec       q    Type
REMARK                         _______ _______ _______ _____ _____    ______ ____
ROOT
ATOM      1  C   UNL     1      -8.327  -0.306 124.535  0.00  0.00    +0.000 C 
ENDROOT
BRANCH   1   2
ATOM      2  N   UNL     1      -7.964   1.033 124.047  0.00  0.00    +0.000 N 
ATOM      3  C   UNL     1      -9.011   2.039 123.815  0.00  0.00    +0.000 C 
ATOM      4  N   UNL     1     -10.420   1.706 124.071  0.00  0.00    +0.000 N 
ATOM      5  O   UNL     1      -8.697   3.196 123.393  0.00  0.00    +0.000 OA
ATOM      6  H   UNL     1      -7.021   1.255 123.876  0.00  0.00    +0.000 HD
ATOM      7  H   UNL     1     -10.663   0.809 124.397  0.00  0.00    +0.000 HD
ATOM      8  H   UNL     1     -11.121   2.380 123.915  0.00  0.00    +0.000 HD
ENDBRANCH   1   2
BRANCH   1   9
ATOM      9  C   UNL     1      -8.062  -1.332 123.445  0.00  0.00    +0.000 C 
BRANCH   9  11
ATOM     10  C   UNL     1      -9.417  -3.213 123.480  0.00  0.00    +0.000 C 
ATOM     11  O   UNL     1      -8.218  -2.639 123.977  0.00  0.00    +0.000 OA
ENDBRANCH   9  11
BRANCH   9  12
ATOM     12  C   UNL     1      -6.644  -1.162 122.923  0.00  0.00    +0.000 C 
BRANCH  12  13
ATOM     13 HG   UNL     1      -5.586  -2.931 123.204  0.00  0.00    +0.000 Hg
ATOM     14 CL   UNL     1      -4.397  -4.921 123.520  0.00  0.00    +0.000 Cl
ENDBRANCH  12  13
ENDBRANCH   9  12
ENDBRANCH   1   9
TORSDOF 5
ENDMDL
MODEL 6
REMARK VINA RESULT:      -3.7      4.235      5.188
REMARK  Name = Chlormerodrin
REMARK  6 active torsions:
REMARK  status: ('A' for Active; 'I' for Inactive)
REMARK    1  A    between atoms: C_1  and  O_2
REMARK    2  A    between atoms: O_2  and  C_3
REMARK    3  A    between atoms: C_3  and  C_4
REMARK    4  A    between atoms: C_3  and  C_9
REMARK    5  A    between atoms: C_4  and  N_5
REMARK    6  A    between atoms: C_9  and  HG_10
REMARK                            x       y       z     vdW  Elec       q    Type
REMARK                         _______ _______ _______ _____ _____    ______ ____
ROOT
ATOM      1  C   UNL     1     -10.876   7.158 129.685  0.00  0.00    +0.000 C 
ENDROOT
BRANCH   1   2
ATOM      2  N   UNL     1     -12.051   6.918 128.834  0.00  0.00    +0.000 N 
ATOM      3  C   UNL     1     -12.871   8.049 128.377  0.00  0.00    +0.000 C 
ATOM      4  N   UNL     1     -12.517   9.421 128.772  0.00  0.00    +0.000 N 
ATOM      5  O   UNL     1     -13.886   7.841 127.641  0.00  0.00    +0.000 OA
ATOM      6  H   UNL     1     -12.288   6.000 128.570  0.00  0.00    +0.000 HD
ATOM      7  H   UNL     1     -11.730   9.581 129.342  0.00  0.00    +0.000 HD
ATOM      8  H   UNL     1     -13.066  10.178 128.465  0.00  0.00    +0.000 HD
ENDBRANCH   1   2
BRANCH   1   9
ATOM      9  C   UNL     1     -10.646   5.953 130.582  0.00  0.00    +0.000 C 
BRANCH   9  11
ATOM     10  C   UNL     1     -10.720   3.636 130.488  0.00  0.00    +0.000 C 
ATOM     11  O   UNL     1     -11.353   4.835 130.065  0.00  0.00    +0.000 OA
ENDBRANCH   9  11
BRANCH   9  12
ATOM     12  C   UNL     1     -11.143   6.263 131.985  0.00  0.00    +0.000 C 
BRANCH  12  13
ATOM     13 HG   UNL     1      -9.817   5.472 133.380  0.00  0.00    +0.000 Hg
ATOM     14 CL   UNL     1      -8.326   4.582 134.948  0.00  0.00    +0.000 Cl
ENDBRANCH  12  13
ENDBRANCH   9  12
ENDBRANCH   1   9
TORSDOF 5
ENDMDL
MODEL 7
REMARK VINA RESULT:      -3.7      1.801      2.167
REMARK  Name = Chlormerodrin
REMARK  6 active torsions:
REMARK  status: ('A' for Active; 'I' for Inactive)
REMARK    1  A    between atoms: C_1  and  O_2
REMARK    2  A    between atoms: O_2  and  C_3
REMARK    3  A    between atoms: C_3  and  C_4
REMARK    4  A    between atoms: C_3  and  C_9
REMARK    5  A    between atoms: C_4  and  N_5
REMARK    6  A    between atoms: C_9  and  HG_10
REMARK                            x       y       z     vdW  Elec       q    Type
REMARK                         _______ _______ _______ _____ _____    ______ ____
ROOT
ATOM      1  C   UNL     1     -11.090   6.106 131.599  0.00  0.00    +0.000 C 
ENDROOT
BRANCH   1   2
ATOM      2  N   UNL     1     -10.885   4.716 131.167  0.00  0.00    +0.000 N 
ATOM      3  C   UNL     1      -9.927   4.413 130.094  0.00  0.00    +0.000 C 
ATOM      4  N   UNL     1      -9.174   5.501 129.452  0.00  0.00    +0.000 N 
ATOM      5  O   UNL     1      -9.750   3.211 129.721  0.00  0.00    +0.000 OA
ATOM      6  H   UNL     1     -11.389   3.988 131.597  0.00  0.00    +0.000 HD
ATOM      7  H   UNL     1      -9.312   6.432 129.740  0.00  0.00    +0.000 HD
ATOM      8  H   UNL     1      -8.533   5.298 128.733  0.00  0.00    +0.000 HD
ENDBRANCH   1   2
BRANCH   1   9
ATOM      9  C   UNL     1     -12.323   6.673 130.914  0.00  0.00    +0.000 C 
BRANCH   9  11
ATOM     10  C   UNL     1     -13.048   6.943 128.727  0.00  0.00    +0.000 C 
ATOM     11  O   UNL     1     -11.970   7.157 129.627  0.00  0.00    +0.000 OA
ENDBRANCH   9  11
BRANCH   9  12
ATOM     12  C   UNL     1     -12.888   7.812 131.747  0.00  0.00    +0.000 C 
BRANCH  12  13
ATOM     13 HG   UNL     1     -13.358   9.413 130.504  0.00  0.00    +0.000 Hg
ATOM     14 CL   UNL     1     -13.887  11.212 129.106  0.00  0.00    +0.000 Cl
ENDBRANCH  12  13
ENDBRANCH   9  12
ENDBRANCH   1   9
TORSDOF 5
ENDMDL
MODEL 8
REMARK VINA RESULT:      -3.7     10.641     11.282
REMARK  Name = Chlormerodrin
REMARK  6 active torsions:
REMARK  status: ('A' for Active; 'I' for Inactive)
REMARK    1  A    between atoms: C_1  and  O_2
REMARK    2  A    between atoms: O_2  and  C_3
REMARK    3  A    between atoms: C_3  and  C_4
REMARK    4  A    between atoms: C_3  and  C_9
REMARK    5  A    between atoms: C_4  and  N_5
REMARK    6  A    between atoms: C_9  and  HG_10
REMARK                            x       y       z     vdW  Elec       q    Type
REMARK                         _______ _______ _______ _____ _____    ______ ____
ROOT
ATOM      1  C   UNL     1      -8.153  -0.065 124.752  0.00  0.00    +0.000 C 
ENDROOT
BRANCH   1   2
ATOM      2  N   UNL     1      -7.915   1.160 123.975  0.00  0.00    +0.000 N 
ATOM      3  C   UNL     1      -9.036   2.052 123.646  0.00  0.00    +0.000 C 
ATOM      4  N   UNL     1     -10.397   1.718 124.093  0.00  0.00    +0.000 N 
ATOM      5  O   UNL     1      -8.830   3.111 122.975  0.00  0.00    +0.000 OA
ATOM      6  H   UNL     1      -7.005   1.384 123.676  0.00  0.00    +0.000 HD
ATOM      7  H   UNL     1     -10.557   0.897 124.613  0.00  0.00    +0.000 HD
ATOM      8  H   UNL     1     -11.148   2.315 123.873  0.00  0.00    +0.000 HD
ENDBRANCH   1   2
BRANCH   1   9
ATOM      9  C   UNL     1      -8.168  -1.263 123.816  0.00  0.00    +0.000 C 
BRANCH   9  11
ATOM     10  C   UNL     1      -9.447  -3.156 123.418  0.00  0.00    +0.000 C 
ATOM     11  O   UNL     1      -9.491  -1.768 123.715  0.00  0.00    +0.000 OA
ENDBRANCH   9  11
BRANCH   9  12
ATOM     12  C   UNL     1      -7.253  -2.345 124.365  0.00  0.00    +0.000 C 
BRANCH  12  13
ATOM     13 HG   UNL     1      -8.074  -3.130 126.108  0.00  0.00    +0.000 Hg
ATOM     14 CL   UNL     1      -8.997  -4.014 128.067  0.00  0.00    +0.000 Cl
ENDBRANCH  12  13
ENDBRANCH   9  12
ENDBRANCH   1   9
TORSDOF 5
ENDMDL
MODEL 9
REMARK VINA RESULT:      -3.6      9.663     10.457
REMARK  Name = Chlormerodrin
REMARK  6 active torsions:
REMARK  status: ('A' for Active; 'I' for Inactive)
REMARK    1  A    between atoms: C_1  and  O_2
REMARK    2  A    between atoms: O_2  and  C_3
REMARK    3  A    between atoms: C_3  and  C_4
REMARK    4  A    between atoms: C_3  and  C_9
REMARK    5  A    between atoms: C_4  and  N_5
REMARK    6  A    between atoms: C_9  and  HG_10
REMARK                            x       y       z     vdW  Elec       q    Type
REMARK                         _______ _______ _______ _____ _____    ______ ____
ROOT
ATOM      1  C   UNL     1      -8.645   2.745 122.765  0.00  0.00    +0.000 C 
ENDROOT
BRANCH   1   2
ATOM      2  N   UNL     1      -7.636   3.683 123.279  0.00  0.00    +0.000 N 
ATOM      3  C   UNL     1      -6.339   3.812 122.599  0.00  0.00    +0.000 C 
ATOM      4  N   UNL     1      -6.050   3.002 121.406  0.00  0.00    +0.000 N 
ATOM      5  O   UNL     1      -5.467   4.622 123.044  0.00  0.00    +0.000 OA
ATOM      6  H   UNL     1      -7.829   4.224 124.078  0.00  0.00    +0.000 HD
ATOM      7  H   UNL     1      -6.726   2.374 121.062  0.00  0.00    +0.000 HD
ATOM      8  H   UNL     1      -5.182   3.089 120.951  0.00  0.00    +0.000 HD
ENDBRANCH   1   2
BRANCH   1   9
ATOM      9  C   UNL     1      -9.020   1.756 123.856  0.00  0.00    +0.000 C 
BRANCH   9  11
ATOM     10  C   UNL     1      -8.593   1.680 126.135  0.00  0.00    +0.000 C 
ATOM     11  O   UNL     1      -9.172   2.445 125.089  0.00  0.00    +0.000 OA
ENDBRANCH   9  11
BRANCH   9  12
ATOM     12  C   UNL     1      -7.925   0.711 123.991  0.00  0.00    +0.000 C 
BRANCH  12  13
ATOM     13 HG   UNL     1      -8.735  -1.183 123.701  0.00  0.00    +0.000 Hg
ATOM     14 CL   UNL     1      -9.646  -3.313 123.373  0.00  0.00    +0.000 Cl
ENDBRANCH  12  13
ENDBRANCH   9  12
ENDBRANCH   1   9
TORSDOF 5
ENDMDL
