MODEL 1
REMARK VINA RESULT:      -6.6      0.000      0.000
REMARK  Name = Chlorothiazide
REMARK  2 active torsions:
REMARK  status: ('A' for Active; 'I' for Inactive)
REMARK    1  A    between atoms: N_1  and  S_2
REMARK    2  A    between atoms: S_2  and  C_5
REMARK                            x       y       z     vdW  Elec       q    Type
REMARK                         _______ _______ _______ _____ _____    ______ ____
ROOT
ATOM      1  C   UNL     1     -10.688   6.555 129.332  0.00  0.00    +0.000 A 
ATOM      2  C   UNL     1     -11.454   7.000 130.414  0.00  0.00    +0.000 A 
ATOM      3 CL   UNL     1     -12.703   8.191 130.306  0.00  0.00    +0.000 Cl
ATOM      4  C   UNL     1     -11.215   6.487 131.699  0.00  0.00    +0.000 A 
ATOM      5  C   UNL     1     -10.209   5.547 131.936  0.00  0.00    +0.000 A 
ATOM      6  N   UNL     1     -10.007   5.035 133.219  0.00  0.00    +0.000 N 
ATOM      7  C   UNL     1      -9.143   4.012 133.466  0.00  0.00    +0.000 C 
ATOM      8  N   UNL     1      -8.285   3.454 132.694  0.00  0.00    +0.000 NA
ATOM      9  S   UNL     1      -8.071   4.047 131.200  0.00  0.00    +0.000 S 
ATOM     10  O   UNL     1      -6.891   4.891 131.208  0.00  0.00    +0.000 OA
ATOM     11  O   UNL     1      -8.202   2.960 130.252  0.00  0.00    +0.000 OA
ATOM     12  C   UNL     1      -9.425   5.149 130.859  0.00  0.00    +0.000 A 
ATOM     13  C   UNL     1      -9.655   5.625 129.554  0.00  0.00    +0.000 A 
ATOM     14  H   UNL     1     -10.622   5.350 133.961  0.00  0.00    +0.000 HD
ENDROOT
BRANCH   1  15
ATOM     15  S   UNL     1     -10.955   7.189 127.695  0.00  0.00    +0.000 S 
ATOM     16  O   UNL     1     -10.571   8.583 127.676  0.00  0.00    +0.000 OA
ATOM     17  O   UNL     1     -12.255   6.749 127.254  0.00  0.00    +0.000 OA
BRANCH  15  18
ATOM     18  N   UNL     1      -9.826   6.398 126.722  0.00  0.00    +0.000 NA
ATOM     19  H   UNL     1     -10.316   5.750 126.098  0.00  0.00    +0.000 HD
ATOM     20  H   UNL     1      -9.156   5.877 127.294  0.00  0.00    +0.000 HD
ENDBRANCH  15  18
ENDBRANCH   1  15
TORSDOF 2
ENDMDL
MODEL 2
REMARK VINA RESULT:      -6.2      7.472      8.331
REMARK  Name = Chlorothiazide
REMARK  2 active torsions:
REMARK  status: ('A' for Active; 'I' for Inactive)
REMARK    1  A    between atoms: N_1  and  S_2
REMARK    2  A    between atoms: S_2  and  C_5
REMARK                            x       y       z     vdW  Elec       q    Type
REMARK                         _______ _______ _______ _____ _____    ______ ____
ROOT
ATOM      1  C   UNL     1      -8.145   1.957 125.262  0.00  0.00    +0.000 A 
ATOM      2  C   UNL     1      -8.019   1.502 126.577  0.00  0.00    +0.000 A 
ATOM      3 CL   UNL     1      -7.548   2.493 127.915  0.00  0.00    +0.000 Cl
ATOM      4  C   UNL     1      -8.262   0.153 126.879  0.00  0.00    +0.000 A 
ATOM      5  C   UNL     1      -8.612  -0.767 125.887  0.00  0.00    +0.000 A 
ATOM      6  N   UNL     1      -8.873  -2.098 126.216  0.00  0.00    +0.000 N 
ATOM      7  C   UNL     1      -9.361  -2.989 125.310  0.00  0.00    +0.000 C 
ATOM      8  N   UNL     1      -9.521  -2.872 124.043  0.00  0.00    +0.000 NA
ATOM      9  S   UNL     1      -9.013  -1.517 123.311  0.00  0.00    +0.000 S 
ATOM     10  O   UNL     1      -7.724  -1.782 122.701  0.00  0.00    +0.000 OA
ATOM     11  O   UNL     1     -10.110  -0.980 122.530  0.00  0.00    +0.000 OA
ATOM     12  C   UNL     1      -8.688  -0.310 124.576  0.00  0.00    +0.000 A 
ATOM     13  C   UNL     1      -8.475   1.042 124.245  0.00  0.00    +0.000 A 
ATOM     14  H   UNL     1      -8.819  -2.367 127.193  0.00  0.00    +0.000 HD
ENDROOT
BRANCH   1  15
ATOM     15  S   UNL     1      -7.834   3.654 124.841  0.00  0.00    +0.000 S 
ATOM     16  O   UNL     1      -6.420   3.914 125.003  0.00  0.00    +0.000 OA
ATOM     17  O   UNL     1      -8.837   4.463 125.487  0.00  0.00    +0.000 OA
BRANCH  15  18
ATOM     18  N   UNL     1      -8.124   3.763 123.182  0.00  0.00    +0.000 NA
ATOM     19  H   UNL     1      -7.591   4.549 122.799  0.00  0.00    +0.000 HD
ATOM     20  H   UNL     1      -9.121   3.906 122.997  0.00  0.00    +0.000 HD
ENDBRANCH  15  18
ENDBRANCH   1  15
TORSDOF 2
ENDMDL
MODEL 3
REMARK VINA RESULT:      -6.1      6.972      8.456
REMARK  Name = Chlorothiazide
REMARK  2 active torsions:
REMARK  status: ('A' for Active; 'I' for Inactive)
REMARK    1  A    between atoms: N_1  and  S_2
REMARK    2  A    between atoms: S_2  and  C_5
REMARK                            x       y       z     vdW  Elec       q    Type
REMARK                         _______ _______ _______ _____ _____    ______ ____
ROOT
ATOM      1  C   UNL     1      -7.391   3.144 125.340  0.00  0.00    +0.000 A 
ATOM      2  C   UNL     1      -6.303   2.269 125.404  0.00  0.00    +0.000 A 
ATOM      3 CL   UNL     1      -4.784   2.646 126.138  0.00  0.00    +0.000 Cl
ATOM      4  C   UNL     1      -6.397   0.991 124.829  0.00  0.00    +0.000 A 
ATOM      5  C   UNL     1      -7.554   0.570 124.168  0.00  0.00    +0.000 A 
ATOM      6  N   UNL     1      -7.631  -0.714 123.626  0.00  0.00    +0.000 N 
ATOM      7  C   UNL     1      -8.787  -1.217 123.109  0.00  0.00    +0.000 C 
ATOM      8  N   UNL     1      -9.905  -0.636 122.874  0.00  0.00    +0.000 NA
ATOM      9  S   UNL     1     -10.027   0.962 123.124  0.00  0.00    +0.000 S 
ATOM     10  O   UNL     1      -9.887   1.635 121.848  0.00  0.00    +0.000 OA
ATOM     11  O   UNL     1     -11.176   1.206 123.973  0.00  0.00    +0.000 OA
ATOM     12  C   UNL     1      -8.611   1.468 124.072  0.00  0.00    +0.000 A 
ATOM     13  C   UNL     1      -8.557   2.746 124.660  0.00  0.00    +0.000 A 
ATOM     14  H   UNL     1      -6.835  -1.331 123.744  0.00  0.00    +0.000 HD
ENDROOT
BRANCH   1  15
ATOM     15  S   UNL     1      -7.304   4.771 126.047  0.00  0.00    +0.000 S 
ATOM     16  O   UNL     1      -6.346   5.548 125.291  0.00  0.00    +0.000 OA
ATOM     17  O   UNL     1      -7.213   4.630 127.478  0.00  0.00    +0.000 OA
BRANCH  15  18
ATOM     18  N   UNL     1      -8.805   5.475 125.729  0.00  0.00    +0.000 NA
ATOM     19  H   UNL     1      -9.473   5.179 126.446  0.00  0.00    +0.000 HD
ATOM     20  H   UNL     1      -9.149   5.193 124.807  0.00  0.00    +0.000 HD
ENDBRANCH  15  18
ENDBRANCH   1  15
TORSDOF 2
ENDMDL
MODEL 4
REMARK VINA RESULT:      -6.0      3.444      5.361
REMARK  Name = Chlorothiazide
REMARK  2 active torsions:
REMARK  status: ('A' for Active; 'I' for Inactive)
REMARK    1  A    between atoms: N_1  and  S_2
REMARK    2  A    between atoms: S_2  and  C_5
REMARK                            x       y       z     vdW  Elec       q    Type
REMARK                         _______ _______ _______ _____ _____    ______ ____
ROOT
ATOM      1  C   UNL     1      -6.542   6.171 131.749  0.00  0.00    +0.000 A 
ATOM      2  C   UNL     1      -6.982   5.751 133.007  0.00  0.00    +0.000 A 
ATOM      3 CL   UNL     1      -5.941   5.233 134.287  0.00  0.00    +0.000 Cl
ATOM      4  C   UNL     1      -8.356   5.713 133.292  0.00  0.00    +0.000 A 
ATOM      5  C   UNL     1      -9.312   6.068 132.336  0.00  0.00    +0.000 A 
ATOM      6  N   UNL     1     -10.671   6.045 132.651  0.00  0.00    +0.000 N 
ATOM      7  C   UNL     1     -11.623   6.525 131.803  0.00  0.00    +0.000 C 
ATOM      8  N   UNL     1     -11.520   6.913 130.585  0.00  0.00    +0.000 NA
ATOM      9  S   UNL     1     -10.091   6.769 129.833  0.00  0.00    +0.000 S 
ATOM     10  O   UNL     1     -10.126   5.575 129.010  0.00  0.00    +0.000 OA
ATOM     11  O   UNL     1      -9.741   8.054 129.265  0.00  0.00    +0.000 OA
ATOM     12  C   UNL     1      -8.860   6.439 131.074  0.00  0.00    +0.000 A 
ATOM     13  C   UNL     1      -7.489   6.512 130.765  0.00  0.00    +0.000 A 
ATOM     14  H   UNL     1     -10.938   5.784 133.594  0.00  0.00    +0.000 HD
ENDROOT
BRANCH   1  15
ATOM     15  S   UNL     1      -4.812   6.222 131.350  0.00  0.00    +0.000 S 
ATOM     16  O   UNL     1      -4.327   4.863 131.242  0.00  0.00    +0.000 OA
ATOM     17  O   UNL     1      -4.184   7.190 132.214  0.00  0.00    +0.000 OA
BRANCH  15  18
ATOM     18  N   UNL     1      -4.733   6.852 129.787  0.00  0.00    +0.000 NA
ATOM     19  H   UNL     1      -4.123   7.675 129.787  0.00  0.00    +0.000 HD
ATOM     20  H   UNL     1      -5.665   7.121 129.457  0.00  0.00    +0.000 HD
ENDBRANCH  15  18
ENDBRANCH   1  15
TORSDOF 2
ENDMDL
MODEL 5
REMARK VINA RESULT:      -5.7      8.891     10.570
REMARK  Name = Chlorothiazide
REMARK  2 active torsions:
REMARK  status: ('A' for Active; 'I' for Inactive)
REMARK    1  A    between atoms: N_1  and  S_2
REMARK    2  A    between atoms: S_2  and  C_5
REMARK                            x       y       z     vdW  Elec       q    Type
REMARK                         _______ _______ _______ _____ _____    ______ ____
ROOT
ATOM      1  C   UNL     1      -6.941  -1.976 127.536  0.00  0.00    +0.000 A 
ATOM      2  C   UNL     1      -8.024  -2.834 127.751  0.00  0.00    +0.000 A 
ATOM      3 CL   UNL     1      -8.496  -3.445 129.299  0.00  0.00    +0.000 Cl
ATOM      4  C   UNL     1      -8.799  -3.271 126.665  0.00  0.00    +0.000 A 
ATOM      5  C   UNL     1      -8.505  -2.885 125.355  0.00  0.00    +0.000 A 
ATOM      6  N   UNL     1      -9.305  -3.314 124.295  0.00  0.00    +0.000 N 
ATOM      7  C   UNL     1      -9.146  -2.844 123.026  0.00  0.00    +0.000 C 
ATOM      8  N   UNL     1      -8.221  -2.106 122.532  0.00  0.00    +0.000 NA
ATOM      9  S   UNL     1      -6.964  -1.690 123.468  0.00  0.00    +0.000 S 
ATOM     10  O   UNL     1      -5.852  -2.567 123.157  0.00  0.00    +0.000 OA
ATOM     11  O   UNL     1      -6.813  -0.250 123.418  0.00  0.00    +0.000 OA
ATOM     12  C   UNL     1      -7.397  -2.070 125.151  0.00  0.00    +0.000 A 
ATOM     13  C   UNL     1      -6.615  -1.594 126.221  0.00  0.00    +0.000 A 
ATOM     14  H   UNL     1     -10.110  -3.893 124.508  0.00  0.00    +0.000 HD
ENDROOT
BRANCH   1  15
ATOM     15  S   UNL     1      -5.933  -1.412 128.884  0.00  0.00    +0.000 S 
ATOM     16  O   UNL     1      -5.184  -2.537 129.398  0.00  0.00    +0.000 OA
ATOM     17  O   UNL     1      -6.751  -0.586 129.736  0.00  0.00    +0.000 OA
BRANCH  15  18
ATOM     18  N   UNL     1      -4.785  -0.390 128.185  0.00  0.00    +0.000 NA
ATOM     19  H   UNL     1      -4.526   0.335 128.860  0.00  0.00    +0.000 HD
ATOM     20  H   UNL     1      -5.160   0.051 127.340  0.00  0.00    +0.000 HD
ENDBRANCH  15  18
ENDBRANCH   1  15
TORSDOF 2
ENDMDL
MODEL 6
REMARK VINA RESULT:      -5.6      2.348      5.130
REMARK  Name = Chlorothiazide
REMARK  2 active torsions:
REMARK  status: ('A' for Active; 'I' for Inactive)
REMARK    1  A    between atoms: N_1  and  S_2
REMARK    2  A    between atoms: S_2  and  C_5
REMARK                            x       y       z     vdW  Elec       q    Type
REMARK                         _______ _______ _______ _____ _____    ______ ____
ROOT
ATOM      1  C   UNL     1      -8.802   5.626 130.958  0.00  0.00    +0.000 A 
ATOM      2  C   UNL     1      -9.595   5.532 132.105  0.00  0.00    +0.000 A 
ATOM      3 CL   UNL     1      -9.167   4.635 133.520  0.00  0.00    +0.000 Cl
ATOM      4  C   UNL     1     -10.840   6.178 132.151  0.00  0.00    +0.000 A 
ATOM      5  C   UNL     1     -11.327   6.906 131.062  0.00  0.00    +0.000 A 
ATOM      6  N   UNL     1     -12.558   7.559 131.142  0.00  0.00    +0.000 N 
ATOM      7  C   UNL     1     -13.000   8.400 130.165  0.00  0.00    +0.000 C 
ATOM      8  N   UNL     1     -12.520   8.632 128.999  0.00  0.00    +0.000 NA
ATOM      9  S   UNL     1     -11.237   7.778 128.495  0.00  0.00    +0.000 S 
ATOM     10  O   UNL     1     -11.709   6.714 127.630  0.00  0.00    +0.000 OA
ATOM     11  O   UNL     1     -10.217   8.704 128.047  0.00  0.00    +0.000 OA
ATOM     12  C   UNL     1     -10.549   6.952 129.911  0.00  0.00    +0.000 A 
ATOM     13  C   UNL     1      -9.284   6.336 129.842  0.00  0.00    +0.000 A 
ATOM     14  H   UNL     1     -13.072   7.505 132.014  0.00  0.00    +0.000 HD
ENDROOT
BRANCH   1  15
ATOM     15  S   UNL     1      -7.226   4.814 130.860  0.00  0.00    +0.000 S 
ATOM     16  O   UNL     1      -6.579   5.216 129.630  0.00  0.00    +0.000 OA
ATOM     17  O   UNL     1      -7.419   3.427 131.203  0.00  0.00    +0.000 OA
BRANCH  15  18
ATOM     18  N   UNL     1      -6.298   5.490 132.097  0.00  0.00    +0.000 NA
ATOM     19  H   UNL     1      -5.616   4.798 132.421  0.00  0.00    +0.000 HD
ATOM     20  H   UNL     1      -6.892   5.774 132.881  0.00  0.00    +0.000 HD
ENDBRANCH  15  18
ENDBRANCH   1  15
TORSDOF 2
ENDMDL
MODEL 7
REMARK VINA RESULT:      -5.6      7.886      8.958
REMARK  Name = Chlorothiazide
REMARK  2 active torsions:
REMARK  status: ('A' for Active; 'I' for Inactive)
REMARK    1  A    between atoms: N_1  and  S_2
REMARK    2  A    between atoms: S_2  and  C_5
REMARK                            x       y       z     vdW  Elec       q    Type
REMARK                         _______ _______ _______ _____ _____    ______ ____
ROOT
ATOM      1  C   UNL     1      -7.661   1.462 125.140  0.00  0.00    +0.000 A 
ATOM      2  C   UNL     1      -7.105   1.321 123.866  0.00  0.00    +0.000 A 
ATOM      3 CL   UNL     1      -6.572   2.637 122.879  0.00  0.00    +0.000 Cl
ATOM      4  C   UNL     1      -6.968   0.044 123.298  0.00  0.00    +0.000 A 
ATOM      5  C   UNL     1      -7.394  -1.104 123.970  0.00  0.00    +0.000 A 
ATOM      6  N   UNL     1      -7.225  -2.364 123.395  0.00  0.00    +0.000 N 
ATOM      7  C   UNL     1      -7.486  -3.516 124.075  0.00  0.00    +0.000 C 
ATOM      8  N   UNL     1      -8.044  -3.690 125.216  0.00  0.00    +0.000 NA
ATOM      9  S   UNL     1      -8.635  -2.402 126.005  0.00  0.00    +0.000 S 
ATOM     10  O   UNL     1     -10.067  -2.347 125.781  0.00  0.00    +0.000 OA
ATOM     11  O   UNL     1      -8.091  -2.398 127.347  0.00  0.00    +0.000 OA
ATOM     12  C   UNL     1      -7.988  -0.944 125.217  0.00  0.00    +0.000 A 
ATOM     13  C   UNL     1      -8.117   0.320 125.824  0.00  0.00    +0.000 A 
ATOM     14  H   UNL     1      -6.768  -2.419 122.491  0.00  0.00    +0.000 HD
ENDROOT
BRANCH   1  15
ATOM     15  S   UNL     1      -7.860   3.062 125.885  0.00  0.00    +0.000 S 
ATOM     16  O   UNL     1      -8.877   3.785 125.152  0.00  0.00    +0.000 OA
ATOM     17  O   UNL     1      -6.548   3.613 126.113  0.00  0.00    +0.000 OA
BRANCH  15  18
ATOM     18  N   UNL     1      -8.528   2.766 127.406  0.00  0.00    +0.000 NA
ATOM     19  H   UNL     1      -9.548   2.833 127.343  0.00  0.00    +0.000 HD
ATOM     20  H   UNL     1      -8.184   3.445 128.091  0.00  0.00    +0.000 HD
ENDBRANCH  15  18
ENDBRANCH   1  15
TORSDOF 2
ENDMDL
MODEL 8
REMARK VINA RESULT:      -5.5      2.745      4.971
REMARK  Name = Chlorothiazide
REMARK  2 active torsions:
REMARK  status: ('A' for Active; 'I' for Inactive)
REMARK    1  A    between atoms: N_1  and  S_2
REMARK    2  A    between atoms: S_2  and  C_5
REMARK                            x       y       z     vdW  Elec       q    Type
REMARK                         _______ _______ _______ _____ _____    ______ ____
ROOT
ATOM      1  C   UNL     1      -8.222   4.317 129.855  0.00  0.00    +0.000 A 
ATOM      2  C   UNL     1      -8.755   3.765 131.023  0.00  0.00    +0.000 A 
ATOM      3 CL   UNL     1      -8.095   2.396 131.848  0.00  0.00    +0.000 Cl
ATOM      4  C   UNL     1      -9.915   4.314 131.592  0.00  0.00    +0.000 A 
ATOM      5  C   UNL     1     -10.574   5.399 131.006  0.00  0.00    +0.000 A 
ATOM      6  N   UNL     1     -11.712   5.941 131.604  0.00  0.00    +0.000 N 
ATOM      7  C   UNL     1     -12.295   7.087 131.153  0.00  0.00    +0.000 C 
ATOM      8  N   UNL     1     -12.061   7.767 130.091  0.00  0.00    +0.000 NA
ATOM      9  S   UNL     1     -10.977   7.206 129.023  0.00  0.00    +0.000 S 
ATOM     10  O   UNL     1     -11.694   6.554 127.944  0.00  0.00    +0.000 OA
ATOM     11  O   UNL     1     -10.017   8.256 128.751  0.00  0.00    +0.000 OA
ATOM     12  C   UNL     1     -10.059   5.908 129.819  0.00  0.00    +0.000 A 
ATOM     13  C   UNL     1      -8.883   5.396 129.238  0.00  0.00    +0.000 A 
ATOM     14  H   UNL     1     -12.030   5.539 132.480  0.00  0.00    +0.000 HD
ENDROOT
BRANCH   1  15
ATOM     15  S   UNL     1      -6.762   3.642 129.101  0.00  0.00    +0.000 S 
ATOM     16  O   UNL     1      -7.079   2.328 128.586  0.00  0.00    +0.000 OA
ATOM     17  O   UNL     1      -5.656   3.865 129.998  0.00  0.00    +0.000 OA
BRANCH  15  18
ATOM     18  N   UNL     1      -6.478   4.602 127.742  0.00  0.00    +0.000 NA
ATOM     19  H   UNL     1      -6.951   4.186 126.934  0.00  0.00    +0.000 HD
ATOM     20  H   UNL     1      -5.475   4.670 127.550  0.00  0.00    +0.000 HD
ENDBRANCH  15  18
ENDBRANCH   1  15
TORSDOF 2
ENDMDL
MODEL 9
REMARK VINA RESULT:      -5.4      9.169      9.615
REMARK  Name = Chlorothiazide
REMARK  2 active torsions:
REMARK  status: ('A' for Active; 'I' for Inactive)
REMARK    1  A    between atoms: N_1  and  S_2
REMARK    2  A    between atoms: S_2  and  C_5
REMARK                            x       y       z     vdW  Elec       q    Type
REMARK                         _______ _______ _______ _____ _____    ______ ____
ROOT
ATOM      1  C   UNL     1      -7.605  -2.231 126.026  0.00  0.00    +0.000 A 
ATOM      2  C   UNL     1      -6.395  -1.709 125.560  0.00  0.00    +0.000 A 
ATOM      3 CL   UNL     1      -6.060  -1.343 123.903  0.00  0.00    +0.000 Cl
ATOM      4  C   UNL     1      -5.343  -1.468 126.458  0.00  0.00    +0.000 A 
ATOM      5  C   UNL     1      -5.465  -1.755 127.820  0.00  0.00    +0.000 A 
ATOM      6  N   UNL     1      -4.414  -1.484 128.697  0.00  0.00    +0.000 N 
ATOM      7  C   UNL     1      -4.542  -1.607 130.048  0.00  0.00    +0.000 C 
ATOM      8  N   UNL     1      -5.498  -2.105 130.742  0.00  0.00    +0.000 NA
ATOM      9  S   UNL     1      -6.751  -2.791 129.973  0.00  0.00    +0.000 S 
ATOM     10  O   UNL     1      -6.558  -4.229 129.978  0.00  0.00    +0.000 OA
ATOM     11  O   UNL     1      -7.975  -2.203 130.477  0.00  0.00    +0.000 OA
ATOM     12  C   UNL     1      -6.657  -2.318 128.261  0.00  0.00    +0.000 A 
ATOM     13  C   UNL     1      -7.739  -2.548 127.390  0.00  0.00    +0.000 A 
ATOM     14  H   UNL     1      -3.575  -1.056 128.319  0.00  0.00    +0.000 HD
ENDROOT
BRANCH   1  15
ATOM     15  S   UNL     1      -8.952  -2.560 124.916  0.00  0.00    +0.000 S 
ATOM     16  O   UNL     1      -8.587  -3.675 124.070  0.00  0.00    +0.000 OA
ATOM     17  O   UNL     1      -9.397  -1.301 124.372  0.00  0.00    +0.000 OA
BRANCH  15  18
ATOM     18  N   UNL     1     -10.205  -3.129 125.894  0.00  0.00    +0.000 NA
ATOM     19  H   UNL     1     -11.102  -2.903 125.454  0.00  0.00    +0.000 HD
ATOM     20  H   UNL     1     -10.164  -2.699 126.822  0.00  0.00    +0.000 HD
ENDBRANCH  15  18
ENDBRANCH   1  15
TORSDOF 2
ENDMDL
