MODEL 1
REMARK VINA RESULT:      -4.5      0.000      0.000
REMARK  Name = Chlorobutanol
REMARK  4 active torsions:
REMARK  status: ('A' for Active; 'I' for Inactive)
REMARK    1  A    between atoms: C_1  and  C_2
REMARK    2  A    between atoms: C_2  and  C_3
REMARK    3  A    between atoms: C_2  and  O_4
REMARK    4  A    between atoms: C_2  and  C_5
REMARK                            x       y       z     vdW  Elec       q    Type
REMARK                         _______ _______ _______ _____ _____    ______ ____
ROOT
ATOM      1  C   UNL     1     -12.680   7.198 131.105  0.00  0.00    +0.000 C 
ATOM      2  C   UNL     1     -11.864   7.011 129.812  0.00  0.00    +0.000 C 
ATOM      3  C   UNL     1     -10.368   7.133 130.162  0.00  0.00    +0.000 C 
ENDROOT
BRANCH   2   4
ATOM      4  C   UNL     1     -12.297   8.022 128.678  0.00  0.00    +0.000 C 
ATOM      5 CL   UNL     1     -13.621   7.349 127.651  0.00  0.00    +0.000 Cl
ATOM      6 CL   UNL     1     -12.897   9.583 129.362  0.00  0.00    +0.000 Cl
ATOM      7 CL   UNL     1     -10.927   8.419 127.573  0.00  0.00    +0.000 Cl
ENDBRANCH   2   4
BRANCH   2   8
ATOM      8  O   UNL     1     -12.078   5.646 129.382  0.00  0.00    +0.000 OA
ATOM      9  H   UNL     1     -11.633   5.046 130.007  0.00  0.00    +0.000 HD
ENDBRANCH   2   8
TORSDOF 2
ENDMDL
MODEL 2
REMARK VINA RESULT:      -4.5      0.040      1.787
REMARK  Name = Chlorobutanol
REMARK  4 active torsions:
REMARK  status: ('A' for Active; 'I' for Inactive)
REMARK    1  A    between atoms: C_1  and  C_2
REMARK    2  A    between atoms: C_2  and  C_3
REMARK    3  A    between atoms: C_2  and  O_4
REMARK    4  A    between atoms: C_2  and  C_5
REMARK                            x       y       z     vdW  Elec       q    Type
REMARK                         _______ _______ _______ _____ _____    ______ ____
ROOT
ATOM      1  C   UNL     1     -12.714   7.209 131.098  0.00  0.00    +0.000 C 
ATOM      2  C   UNL     1     -11.891   7.020 129.810  0.00  0.00    +0.000 C 
ATOM      3  C   UNL     1     -10.398   7.160 130.164  0.00  0.00    +0.000 C 
ENDROOT
BRANCH   2   4
ATOM      4  C   UNL     1     -12.330   8.018 128.666  0.00  0.00    +0.000 C 
ATOM      5 CL   UNL     1     -12.911   9.591 129.337  0.00  0.00    +0.000 Cl
ATOM      6 CL   UNL     1     -10.969   8.392 127.540  0.00  0.00    +0.000 Cl
ATOM      7 CL   UNL     1     -13.675   7.345 127.668  0.00  0.00    +0.000 Cl
ENDBRANCH   2   4
BRANCH   2   8
ATOM      8  O   UNL     1     -12.089   5.650 129.390  0.00  0.00    +0.000 OA
ATOM      9  H   UNL     1     -12.922   5.320 129.773  0.00  0.00    +0.000 HD
ENDBRANCH   2   8
TORSDOF 2
ENDMDL
MODEL 3
REMARK VINA RESULT:      -4.4      1.483      2.296
REMARK  Name = Chlorobutanol
REMARK  4 active torsions:
REMARK  status: ('A' for Active; 'I' for Inactive)
REMARK    1  A    between atoms: C_1  and  C_2
REMARK    2  A    between atoms: C_2  and  C_3
REMARK    3  A    between atoms: C_2  and  O_4
REMARK    4  A    between atoms: C_2  and  C_5
REMARK                            x       y       z     vdW  Elec       q    Type
REMARK                         _______ _______ _______ _____ _____    ______ ____
ROOT
ATOM      1  C   UNL     1     -10.241   7.179 130.161  0.00  0.00    +0.000 C 
ATOM      2  C   UNL     1     -11.170   7.491 128.973  0.00  0.00    +0.000 C 
ATOM      3  C   UNL     1     -10.525   8.612 128.135  0.00  0.00    +0.000 C 
ENDROOT
BRANCH   2   4
ATOM      4  C   UNL     1     -12.635   7.859 129.438  0.00  0.00    +0.000 C 
ATOM      5 CL   UNL     1     -12.938   7.365 131.148  0.00  0.00    +0.000 Cl
ATOM      6 CL   UNL     1     -12.947   9.634 129.334  0.00  0.00    +0.000 Cl
ATOM      7 CL   UNL     1     -13.886   7.040 128.426  0.00  0.00    +0.000 Cl
ENDBRANCH   2   4
BRANCH   2   8
ATOM      8  O   UNL     1     -11.186   6.308 128.140  0.00  0.00    +0.000 OA
ATOM      9  H   UNL     1     -10.852   5.553 128.658  0.00  0.00    +0.000 HD
ENDBRANCH   2   8
TORSDOF 2
ENDMDL
MODEL 4
REMARK VINA RESULT:      -4.2      2.079      2.997
REMARK  Name = Chlorobutanol
REMARK  4 active torsions:
REMARK  status: ('A' for Active; 'I' for Inactive)
REMARK    1  A    between atoms: C_1  and  C_2
REMARK    2  A    between atoms: C_2  and  C_3
REMARK    3  A    between atoms: C_2  and  O_4
REMARK    4  A    between atoms: C_2  and  C_5
REMARK                            x       y       z     vdW  Elec       q    Type
REMARK                         _______ _______ _______ _____ _____    ______ ____
ROOT
ATOM      1  C   UNL     1     -11.351   7.303 126.720  0.00  0.00    +0.000 C 
ATOM      2  C   UNL     1     -11.215   7.812 128.168  0.00  0.00    +0.000 C 
ATOM      3  C   UNL     1     -10.256   6.871 128.923  0.00  0.00    +0.000 C 
ENDROOT
BRANCH   2   4
ATOM      4  C   UNL     1     -12.614   7.945 128.889  0.00  0.00    +0.000 C 
ATOM      5 CL   UNL     1     -13.201   9.653 128.902  0.00  0.00    +0.000 Cl
ATOM      6 CL   UNL     1     -13.887   6.953 128.079  0.00  0.00    +0.000 Cl
ATOM      7 CL   UNL     1     -12.536   7.404 130.610  0.00  0.00    +0.000 Cl
ENDBRANCH   2   4
BRANCH   2   8
ATOM      8  O   UNL     1     -10.559   9.098 128.094  0.00  0.00    +0.000 OA
ATOM      9  H   UNL     1     -11.069   9.743 128.617  0.00  0.00    +0.000 HD
ENDBRANCH   2   8
TORSDOF 2
ENDMDL
MODEL 5
REMARK VINA RESULT:      -4.1      2.337      3.168
REMARK  Name = Chlorobutanol
REMARK  4 active torsions:
REMARK  status: ('A' for Active; 'I' for Inactive)
REMARK    1  A    between atoms: C_1  and  C_2
REMARK    2  A    between atoms: C_2  and  C_3
REMARK    3  A    between atoms: C_2  and  O_4
REMARK    4  A    between atoms: C_2  and  C_5
REMARK                            x       y       z     vdW  Elec       q    Type
REMARK                         _______ _______ _______ _____ _____    ______ ____
ROOT
ATOM      1  C   UNL     1     -13.536   7.479 127.683  0.00  0.00    +0.000 C 
ATOM      2  C   UNL     1     -12.262   8.083 128.304  0.00  0.00    +0.000 C 
ATOM      3  C   UNL     1     -11.146   8.057 127.242  0.00  0.00    +0.000 C 
ENDROOT
BRANCH   2   4
ATOM      4  C   UNL     1     -11.838   7.345 129.636  0.00  0.00    +0.000 C 
ATOM      5 CL   UNL     1     -10.073   7.533 129.972  0.00  0.00    +0.000 Cl
ATOM      6 CL   UNL     1     -12.723   7.988 131.073  0.00  0.00    +0.000 Cl
ATOM      7 CL   UNL     1     -12.171   5.573 129.557  0.00  0.00    +0.000 Cl
ENDBRANCH   2   4
BRANCH   2   8
ATOM      8  O   UNL     1     -12.551   9.475 128.567  0.00  0.00    +0.000 OA
ATOM      9  H   UNL     1     -13.487   9.560 128.824  0.00  0.00    +0.000 HD
ENDBRANCH   2   8
TORSDOF 2
ENDMDL
MODEL 6
REMARK VINA RESULT:      -4.1      1.080      2.339
REMARK  Name = Chlorobutanol
REMARK  4 active torsions:
REMARK  status: ('A' for Active; 'I' for Inactive)
REMARK    1  A    between atoms: C_1  and  C_2
REMARK    2  A    between atoms: C_2  and  C_3
REMARK    3  A    between atoms: C_2  and  O_4
REMARK    4  A    between atoms: C_2  and  C_5
REMARK                            x       y       z     vdW  Elec       q    Type
REMARK                         _______ _______ _______ _____ _____    ______ ____
ROOT
ATOM      1  C   UNL     1     -12.031   5.687 129.712  0.00  0.00    +0.000 C 
ATOM      2  C   UNL     1     -11.929   7.192 130.024  0.00  0.00    +0.000 C 
ATOM      3  C   UNL     1     -12.776   7.484 131.279  0.00  0.00    +0.000 C 
ENDROOT
BRANCH   2   4
ATOM      4  C   UNL     1     -12.353   8.089 128.795  0.00  0.00    +0.000 C 
ATOM      5 CL   UNL     1     -10.961   8.411 127.690  0.00  0.00    +0.000 Cl
ATOM      6 CL   UNL     1     -13.646   7.308 127.805  0.00  0.00    +0.000 Cl
ATOM      7 CL   UNL     1     -12.985   9.695 129.322  0.00  0.00    +0.000 Cl
ENDBRANCH   2   4
BRANCH   2   8
ATOM      8  O   UNL     1     -10.552   7.446 130.387  0.00  0.00    +0.000 OA
ATOM      9  H   UNL     1     -10.101   6.594 130.528  0.00  0.00    +0.000 HD
ENDBRANCH   2   8
TORSDOF 2
ENDMDL
MODEL 7
REMARK VINA RESULT:      -4.1      2.219      3.214
REMARK  Name = Chlorobutanol
REMARK  4 active torsions:
REMARK  status: ('A' for Active; 'I' for Inactive)
REMARK    1  A    between atoms: C_1  and  C_2
REMARK    2  A    between atoms: C_2  and  C_3
REMARK    3  A    between atoms: C_2  and  O_4
REMARK    4  A    between atoms: C_2  and  C_5
REMARK                            x       y       z     vdW  Elec       q    Type
REMARK                         _______ _______ _______ _____ _____    ______ ____
ROOT
ATOM      1  C   UNL     1     -10.684   8.336 127.857  0.00  0.00    +0.000 C 
ATOM      2  C   UNL     1     -11.905   7.621 128.466  0.00  0.00    +0.000 C 
ATOM      3  C   UNL     1     -13.072   8.626 128.532  0.00  0.00    +0.000 C 
ENDROOT
BRANCH   2   4
ATOM      4  C   UNL     1     -11.585   6.982 129.875  0.00  0.00    +0.000 C 
ATOM      5 CL   UNL     1      -9.880   7.296 130.380  0.00  0.00    +0.000 Cl
ATOM      6 CL   UNL     1     -12.653   7.644 131.172  0.00  0.00    +0.000 Cl
ATOM      7 CL   UNL     1     -11.808   5.191 129.866  0.00  0.00    +0.000 Cl
ENDBRANCH   2   4
BRANCH   2   8
ATOM      8  O   UNL     1     -12.296   6.596 127.522  0.00  0.00    +0.000 OA
ATOM      9  H   UNL     1     -12.415   5.756 128.001  0.00  0.00    +0.000 HD
ENDBRANCH   2   8
TORSDOF 2
ENDMDL
MODEL 8
REMARK VINA RESULT:      -4.0      2.375      3.144
REMARK  Name = Chlorobutanol
REMARK  4 active torsions:
REMARK  status: ('A' for Active; 'I' for Inactive)
REMARK    1  A    between atoms: C_1  and  C_2
REMARK    2  A    between atoms: C_2  and  C_3
REMARK    3  A    between atoms: C_2  and  O_4
REMARK    4  A    between atoms: C_2  and  C_5
REMARK                            x       y       z     vdW  Elec       q    Type
REMARK                         _______ _______ _______ _____ _____    ______ ____
ROOT
ATOM      1  C   UNL     1      -9.223   7.206 130.318  0.00  0.00    +0.000 C 
ATOM      2  C   UNL     1     -10.301   6.973 129.243  0.00  0.00    +0.000 C 
ATOM      3  C   UNL     1     -10.583   8.316 128.541  0.00  0.00    +0.000 C 
ENDROOT
BRANCH   2   4
ATOM      4  C   UNL     1     -11.612   6.323 129.841  0.00  0.00    +0.000 C 
ATOM      5 CL   UNL     1     -12.997   6.428 128.687  0.00  0.00    +0.000 Cl
ATOM      6 CL   UNL     1     -11.378   4.575 130.232  0.00  0.00    +0.000 Cl
ATOM      7 CL   UNL     1     -12.133   7.142 131.362  0.00  0.00    +0.000 Cl
ENDBRANCH   2   4
BRANCH   2   8
ATOM      8  O   UNL     1      -9.712   6.103 128.249  0.00  0.00    +0.000 OA
ATOM      9  H   UNL     1     -10.210   5.265 128.229  0.00  0.00    +0.000 HD
ENDBRANCH   2   8
TORSDOF 2
ENDMDL
MODEL 9
REMARK VINA RESULT:      -3.9     11.131     11.658
REMARK  Name = Chlorobutanol
REMARK  4 active torsions:
REMARK  status: ('A' for Active; 'I' for Inactive)
REMARK    1  A    between atoms: C_1  and  C_2
REMARK    2  A    between atoms: C_2  and  C_3
REMARK    3  A    between atoms: C_2  and  O_4
REMARK    4  A    between atoms: C_2  and  C_5
REMARK                            x       y       z     vdW  Elec       q    Type
REMARK                         _______ _______ _______ _____ _____    ______ ____
ROOT
ATOM      1  C   UNL     1      -9.387  -2.519 125.823  0.00  0.00    +0.000 C 
ATOM      2  C   UNL     1      -8.897  -2.805 124.391  0.00  0.00    +0.000 C 
ATOM      3  C   UNL     1      -7.818  -3.904 124.459  0.00  0.00    +0.000 C 
ENDROOT
BRANCH   2   4
ATOM      4  C   UNL     1      -8.378  -1.501 123.665  0.00  0.00    +0.000 C 
ATOM      5 CL   UNL     1      -6.944  -1.842 122.621  0.00  0.00    +0.000 Cl
ATOM      6 CL   UNL     1      -9.645  -0.773 122.604  0.00  0.00    +0.000 Cl
ATOM      7 CL   UNL     1      -7.878  -0.229 124.844  0.00  0.00    +0.000 Cl
ENDBRANCH   2   4
BRANCH   2   8
ATOM      8  O   UNL     1     -10.019  -3.371 123.676  0.00  0.00    +0.000 OA
ATOM      9  H   UNL     1     -10.697  -3.646 124.319  0.00  0.00    +0.000 HD
ENDBRANCH   2   8
TORSDOF 2
ENDMDL
