MODEL 1
REMARK VINA RESULT:      -6.6      0.000      0.000
REMARK  Name = Chloramphenicol palmitate
REMARK  24 active torsions:
REMARK  status: ('A' for Active; 'I' for Inactive)
REMARK    1  A    between atoms: C_1  and  C_2
REMARK    2  A    between atoms: C_2  and  C_3
REMARK    3  A    between atoms: C_3  and  C_4
REMARK    4  A    between atoms: C_4  and  C_5
REMARK    5  A    between atoms: C_5  and  C_6
REMARK    6  A    between atoms: C_6  and  C_7
REMARK    7  A    between atoms: C_7  and  C_8
REMARK    8  A    between atoms: C_8  and  C_9
REMARK    9  A    between atoms: C_9  and  C_10
REMARK   10  A    between atoms: C_10  and  C_11
REMARK   11  A    between atoms: C_11  and  C_12
REMARK   12  A    between atoms: C_12  and  C_13
REMARK   13  A    between atoms: C_13  and  C_14
REMARK   14  A    between atoms: C_14  and  C_15
REMARK   15  A    between atoms: C_15  and  C_16
REMARK   16  A    between atoms: C_16  and  O_18
REMARK   17  A    between atoms: O_18  and  C_19
REMARK   18  A    between atoms: C_19  and  C_20
REMARK   19  A    between atoms: C_20  and  N_21
REMARK   20  A    between atoms: C_20  and  C_27
REMARK   21  A    between atoms: C_22  and  C_24
REMARK   22  A    between atoms: C_27  and  O_28
REMARK   23  A    between atoms: C_27  and  C_29
REMARK   24  A    between atoms: C_32  and  N_35
REMARK                            x       y       z     vdW  Elec       q    Type
REMARK                         _______ _______ _______ _____ _____    ______ ____
ROOT
ATOM      1  C   UNL     1      -6.909   3.805 126.970  0.00  0.00    +0.000 C 
ENDROOT
BRANCH   1   2
ATOM      2  N   UNL     1      -5.516   4.309 127.103  0.00  0.00    +0.000 N 
ATOM      3  C   UNL     1      -4.420   3.501 126.795  0.00  0.00    +0.000 C 
ATOM      4  O   UNL     1      -4.558   2.332 126.439  0.00  0.00    +0.000 OA
ATOM      5  H   UNL     1      -5.373   5.196 127.578  0.00  0.00    +0.000 HD
BRANCH   3   6
ATOM      6  C   UNL     1      -3.035   4.126 126.923  0.00  0.00    +0.000 C 
ATOM      7 CL   UNL     1      -2.833   4.680 128.598  0.00  0.00    +0.000 Cl
ATOM      8 CL   UNL     1      -1.785   2.918 126.521  0.00  0.00    +0.000 Cl
ENDBRANCH   3   6
ENDBRANCH   1   2
BRANCH   1   9
ATOM      9  C   UNL     1      -7.597   4.250 125.633  0.00  0.00    +0.000 C 
BRANCH   9  10
ATOM     10  C   UNL     1      -8.093   3.048 124.847  0.00  0.00    +0.000 A 
ATOM     11  C   UNL     1      -8.120   1.778 125.444  0.00  0.00    +0.000 A 
ATOM     12  C   UNL     1      -8.520   0.657 124.727  0.00  0.00    +0.000 A 
ATOM     13  C   UNL     1      -8.979   0.810 123.418  0.00  0.00    +0.000 A 
ATOM     14  C   UNL     1      -8.947   2.062 122.790  0.00  0.00    +0.000 A 
ATOM     15  C   UNL     1      -8.492   3.178 123.505  0.00  0.00    +0.000 A 
BRANCH  13  16
ATOM     16  N   UNL     1      -9.564  -0.350 122.737  0.00  0.00    +0.000 N 
ATOM     17  O   UNL     1     -10.763  -0.285 122.426  0.00  0.00    +0.000 OA
ATOM     18  O   UNL     1      -8.826  -1.313 122.496  0.00  0.00    +0.000 OA
ENDBRANCH  13  16
ENDBRANCH   9  10
BRANCH   9  19
ATOM     19  O   UNL     1      -8.696   5.142 125.849  0.00  0.00    +0.000 OA
ATOM     20  H   UNL     1      -8.378   6.055 125.820  0.00  0.00    +0.000 HD
ENDBRANCH   9  19
ENDBRANCH   1   9
BRANCH   1  21
ATOM     21  C   UNL     1      -7.760   4.173 128.208  0.00  0.00    +0.000 C 
BRANCH  21  22
ATOM     22  O   UNL     1      -8.698   3.123 128.459  0.00  0.00    +0.000 OA
BRANCH  22  23
ATOM     23  C   UNL     1      -8.420   2.262 129.451  0.00  0.00    +0.000 C 
ATOM     24  O   UNL     1      -8.509   2.541 130.644  0.00  0.00    +0.000 OA
BRANCH  23  25
ATOM     25  C   UNL     1      -8.021   0.916 128.883  0.00  0.00    +0.000 C 
BRANCH  25  26
ATOM     26  C   UNL     1      -6.506   0.797 128.934  0.00  0.00    +0.000 C 
BRANCH  26  27
ATOM     27  C   UNL     1      -5.995  -0.502 128.337  0.00  0.00    +0.000 C 
BRANCH  27  28
ATOM     28  C   UNL     1      -5.825  -1.537 129.442  0.00  0.00    +0.000 C 
BRANCH  28  29
ATOM     29  C   UNL     1      -5.916  -2.940 128.870  0.00  0.00    +0.000 C 
BRANCH  29  30
ATOM     30  C   UNL     1      -7.021  -3.718 129.563  0.00  0.00    +0.000 C 
BRANCH  30  31
ATOM     31  C   UNL     1      -8.376  -3.174 129.145  0.00  0.00    +0.000 C 
BRANCH  31  32
ATOM     32  C   UNL     1      -8.771  -3.748 127.797  0.00  0.00    +0.000 C 
BRANCH  32  33
ATOM     33  C   UNL     1      -8.884  -2.632 126.774  0.00  0.00    +0.000 C 
BRANCH  33  34
ATOM     34  C   UNL     1      -9.032  -3.220 125.382  0.00  0.00    +0.000 C 
BRANCH  34  35
ATOM     35  C   UNL     1      -7.665  -3.550 124.811  0.00  0.00    +0.000 C 
BRANCH  35  36
ATOM     36  C   UNL     1      -6.685  -2.436 125.133  0.00  0.00    +0.000 C 
BRANCH  36  37
ATOM     37  C   UNL     1      -5.272  -2.862 124.770  0.00  0.00    +0.000 C 
BRANCH  37  39
ATOM     38  C   UNL     1      -3.890  -4.529 123.532  0.00  0.00    +0.000 C 
ATOM     39  C   UNL     1      -5.299  -4.121 123.914  0.00  0.00    +0.000 C 
ENDBRANCH  37  39
ENDBRANCH  36  37
ENDBRANCH  35  36
ENDBRANCH  34  35
ENDBRANCH  33  34
ENDBRANCH  32  33
ENDBRANCH  31  32
ENDBRANCH  30  31
ENDBRANCH  29  30
ENDBRANCH  28  29
ENDBRANCH  27  28
ENDBRANCH  26  27
ENDBRANCH  25  26
ENDBRANCH  23  25
ENDBRANCH  22  23
ENDBRANCH  21  22
ENDBRANCH   1  21
TORSDOF 23
ENDMDL
MODEL 2
REMARK VINA RESULT:      -6.4      3.131      5.859
REMARK  Name = Chloramphenicol palmitate
REMARK  24 active torsions:
REMARK  status: ('A' for Active; 'I' for Inactive)
REMARK    1  A    between atoms: C_1  and  C_2
REMARK    2  A    between atoms: C_2  and  C_3
REMARK    3  A    between atoms: C_3  and  C_4
REMARK    4  A    between atoms: C_4  and  C_5
REMARK    5  A    between atoms: C_5  and  C_6
REMARK    6  A    between atoms: C_6  and  C_7
REMARK    7  A    between atoms: C_7  and  C_8
REMARK    8  A    between atoms: C_8  and  C_9
REMARK    9  A    between atoms: C_9  and  C_10
REMARK   10  A    between atoms: C_10  and  C_11
REMARK   11  A    between atoms: C_11  and  C_12
REMARK   12  A    between atoms: C_12  and  C_13
REMARK   13  A    between atoms: C_13  and  C_14
REMARK   14  A    between atoms: C_14  and  C_15
REMARK   15  A    between atoms: C_15  and  C_16
REMARK   16  A    between atoms: C_16  and  O_18
REMARK   17  A    between atoms: O_18  and  C_19
REMARK   18  A    between atoms: C_19  and  C_20
REMARK   19  A    between atoms: C_20  and  N_21
REMARK   20  A    between atoms: C_20  and  C_27
REMARK   21  A    between atoms: C_22  and  C_24
REMARK   22  A    between atoms: C_27  and  O_28
REMARK   23  A    between atoms: C_27  and  C_29
REMARK   24  A    between atoms: C_32  and  N_35
REMARK                            x       y       z     vdW  Elec       q    Type
REMARK                         _______ _______ _______ _____ _____    ______ ____
ROOT
ATOM      1  C   UNL     1      -7.549   1.465 124.408  0.00  0.00    +0.000 C 
ENDROOT
BRANCH   1   2
ATOM      2  N   UNL     1      -7.539   2.077 125.764  0.00  0.00    +0.000 N 
ATOM      3  C   UNL     1      -6.340   2.397 126.405  0.00  0.00    +0.000 C 
ATOM      4  O   UNL     1      -5.248   2.153 125.895  0.00  0.00    +0.000 OA
ATOM      5  H   UNL     1      -8.412   2.107 126.281  0.00  0.00    +0.000 HD
BRANCH   3   6
ATOM      6  C   UNL     1      -6.438   3.061 127.775  0.00  0.00    +0.000 C 
ATOM      7 CL   UNL     1      -5.965   1.867 129.000  0.00  0.00    +0.000 Cl
ATOM      8 CL   UNL     1      -5.351   4.474 127.843  0.00  0.00    +0.000 Cl
ENDBRANCH   3   6
ENDBRANCH   1   2
BRANCH   1   9
ATOM      9  C   UNL     1      -8.527   2.188 123.417  0.00  0.00    +0.000 C 
BRANCH   9  10
ATOM     10  C   UNL     1      -7.758   2.996 122.384  0.00  0.00    +0.000 A 
ATOM     11  C   UNL     1      -8.392   3.417 121.205  0.00  0.00    +0.000 A 
ATOM     12  C   UNL     1      -7.694   4.111 120.225  0.00  0.00    +0.000 A 
ATOM     13  C   UNL     1      -6.364   4.466 120.452  0.00  0.00    +0.000 A 
ATOM     14  C   UNL     1      -5.700   4.044 121.612  0.00  0.00    +0.000 A 
ATOM     15  C   UNL     1      -6.398   3.299 122.572  0.00  0.00    +0.000 A 
BRANCH  13  16
ATOM     16  N   UNL     1      -5.696   5.349 119.491  0.00  0.00    +0.000 N 
ATOM     17  O   UNL     1      -4.862   6.152 119.936  0.00  0.00    +0.000 OA
ATOM     18  O   UNL     1      -5.987   5.228 118.295  0.00  0.00    +0.000 OA
ENDBRANCH  13  16
ENDBRANCH   9  10
BRANCH   9  19
ATOM     19  O   UNL     1      -9.393   1.276 122.734  0.00  0.00    +0.000 OA
ATOM     20  H   UNL     1      -9.102   1.185 121.816  0.00  0.00    +0.000 HD
ENDBRANCH   9  19
ENDBRANCH   1   9
BRANCH   1  21
ATOM     21  C   UNL     1      -7.822  -0.056 124.481  0.00  0.00    +0.000 C 
BRANCH  21  22
ATOM     22  O   UNL     1      -7.403  -0.664 123.256  0.00  0.00    +0.000 OA
BRANCH  22  23
ATOM     23  C   UNL     1      -7.216  -1.993 123.252  0.00  0.00    +0.000 C 
ATOM     24  O   UNL     1      -6.113  -2.528 123.182  0.00  0.00    +0.000 OA
BRANCH  23  25
ATOM     25  C   UNL     1      -8.543  -2.712 123.378  0.00  0.00    +0.000 C 
BRANCH  25  26
ATOM     26  C   UNL     1      -8.460  -3.683 124.546  0.00  0.00    +0.000 C 
BRANCH  26  27
ATOM     27  C   UNL     1      -9.338  -3.275 125.716  0.00  0.00    +0.000 C 
BRANCH  27  28
ATOM     28  C   UNL     1      -8.461  -2.940 126.916  0.00  0.00    +0.000 C 
BRANCH  28  29
ATOM     29  C   UNL     1      -8.855  -3.790 128.110  0.00  0.00    +0.000 C 
BRANCH  29  30
ATOM     30  C   UNL     1      -8.052  -3.380 129.333  0.00  0.00    +0.000 C 
BRANCH  30  31
ATOM     31  C   UNL     1      -6.804  -2.629 128.904  0.00  0.00    +0.000 C 
BRANCH  31  32
ATOM     32  C   UNL     1      -5.571  -3.307 129.473  0.00  0.00    +0.000 C 
BRANCH  32  33
ATOM     33  C   UNL     1      -5.983  -4.437 130.398  0.00  0.00    +0.000 C 
BRANCH  33  34
ATOM     34  C   UNL     1      -5.084  -4.457 131.621  0.00  0.00    +0.000 C 
BRANCH  34  35
ATOM     35  C   UNL     1      -5.479  -3.343 132.573  0.00  0.00    +0.000 C 
BRANCH  35  36
ATOM     36  C   UNL     1      -6.896  -3.563 133.072  0.00  0.00    +0.000 C 
BRANCH  36  37
ATOM     37  C   UNL     1      -7.699  -2.280 132.948  0.00  0.00    +0.000 C 
BRANCH  37  39
ATOM     38  C   UNL     1      -7.674  -0.211 131.554  0.00  0.00    +0.000 C 
ATOM     39  C   UNL     1      -6.833  -1.162 132.382  0.00  0.00    +0.000 C 
ENDBRANCH  37  39
ENDBRANCH  36  37
ENDBRANCH  35  36
ENDBRANCH  34  35
ENDBRANCH  33  34
ENDBRANCH  32  33
ENDBRANCH  31  32
ENDBRANCH  30  31
ENDBRANCH  29  30
ENDBRANCH  28  29
ENDBRANCH  27  28
ENDBRANCH  26  27
ENDBRANCH  25  26
ENDBRANCH  23  25
ENDBRANCH  22  23
ENDBRANCH  21  22
ENDBRANCH   1  21
TORSDOF 23
ENDMDL
MODEL 3
REMARK VINA RESULT:      -6.3      3.659      6.245
REMARK  Name = Chloramphenicol palmitate
REMARK  24 active torsions:
REMARK  status: ('A' for Active; 'I' for Inactive)
REMARK    1  A    between atoms: C_1  and  C_2
REMARK    2  A    between atoms: C_2  and  C_3
REMARK    3  A    between atoms: C_3  and  C_4
REMARK    4  A    between atoms: C_4  and  C_5
REMARK    5  A    between atoms: C_5  and  C_6
REMARK    6  A    between atoms: C_6  and  C_7
REMARK    7  A    between atoms: C_7  and  C_8
REMARK    8  A    between atoms: C_8  and  C_9
REMARK    9  A    between atoms: C_9  and  C_10
REMARK   10  A    between atoms: C_10  and  C_11
REMARK   11  A    between atoms: C_11  and  C_12
REMARK   12  A    between atoms: C_12  and  C_13
REMARK   13  A    between atoms: C_13  and  C_14
REMARK   14  A    between atoms: C_14  and  C_15
REMARK   15  A    between atoms: C_15  and  C_16
REMARK   16  A    between atoms: C_16  and  O_18
REMARK   17  A    between atoms: O_18  and  C_19
REMARK   18  A    between atoms: C_19  and  C_20
REMARK   19  A    between atoms: C_20  and  N_21
REMARK   20  A    between atoms: C_20  and  C_27
REMARK   21  A    between atoms: C_22  and  C_24
REMARK   22  A    between atoms: C_27  and  O_28
REMARK   23  A    between atoms: C_27  and  C_29
REMARK   24  A    between atoms: C_32  and  N_35
REMARK                            x       y       z     vdW  Elec       q    Type
REMARK                         _______ _______ _______ _____ _____    ______ ____
ROOT
ATOM      1  C   UNL     1      -9.488   3.867 131.011  0.00  0.00    +0.000 C 
ENDROOT
BRANCH   1   2
ATOM      2  N   UNL     1      -8.103   3.661 130.508  0.00  0.00    +0.000 N 
ATOM      3  C   UNL     1      -7.792   3.819 129.156  0.00  0.00    +0.000 C 
ATOM      4  O   UNL     1      -8.653   4.095 128.322  0.00  0.00    +0.000 OA
ATOM      5  H   UNL     1      -7.423   3.246 131.138  0.00  0.00    +0.000 HD
BRANCH   3   6
ATOM      6  C   UNL     1      -6.335   3.628 128.748  0.00  0.00    +0.000 C 
ATOM      7 CL   UNL     1      -6.283   3.379 126.992  0.00  0.00    +0.000 Cl
ATOM      8 CL   UNL     1      -5.386   5.072 129.192  0.00  0.00    +0.000 Cl
ENDBRANCH   3   6
ENDBRANCH   1   2
BRANCH   1   9
ATOM      9  C   UNL     1      -9.641   5.171 131.869  0.00  0.00    +0.000 C 
BRANCH   9  10
ATOM     10  C   UNL     1     -10.527   6.186 131.167  0.00  0.00    +0.000 A 
ATOM     11  C   UNL     1     -10.061   6.860 130.027  0.00  0.00    +0.000 A 
ATOM     12  C   UNL     1     -10.834   7.829 129.401  0.00  0.00    +0.000 A 
ATOM     13  C   UNL     1     -12.127   8.078 129.865  0.00  0.00    +0.000 A 
ATOM     14  C   UNL     1     -12.613   7.434 131.011  0.00  0.00    +0.000 A 
ATOM     15  C   UNL     1     -11.805   6.496 131.666  0.00  0.00    +0.000 A 
BRANCH  13  16
ATOM     16  N   UNL     1     -12.994   8.971 129.088  0.00  0.00    +0.000 N 
ATOM     17  O   UNL     1     -13.591   8.485 128.115  0.00  0.00    +0.000 OA
ATOM     18  O   UNL     1     -13.094  10.147 129.459  0.00  0.00    +0.000 OA
ENDBRANCH  13  16
ENDBRANCH   9  10
BRANCH   9  19
ATOM     19  O   UNL     1     -10.179   4.914 133.171  0.00  0.00    +0.000 OA
ATOM     20  H   UNL     1     -10.514   5.740 133.547  0.00  0.00    +0.000 HD
ENDBRANCH   9  19
ENDBRANCH   1   9
BRANCH   1  21
ATOM     21  C   UNL     1     -10.003   2.617 131.762  0.00  0.00    +0.000 C 
BRANCH  21  22
ATOM     22  O   UNL     1      -9.368   1.454 131.224  0.00  0.00    +0.000 OA
BRANCH  22  23
ATOM     23  C   UNL     1      -8.464   0.826 131.991  0.00  0.00    +0.000 C 
ATOM     24  O   UNL     1      -8.021   1.284 133.041  0.00  0.00    +0.000 OA
BRANCH  23  25
ATOM     25  C   UNL     1      -8.109  -0.519 131.392  0.00  0.00    +0.000 C 
BRANCH  25  26
ATOM     26  C   UNL     1      -7.873  -0.338 129.900  0.00  0.00    +0.000 C 
BRANCH  26  27
ATOM     27  C   UNL     1      -7.277  -1.570 129.243  0.00  0.00    +0.000 C 
BRANCH  27  28
ATOM     28  C   UNL     1      -8.065  -2.804 129.666  0.00  0.00    +0.000 C 
BRANCH  28  29
ATOM     29  C   UNL     1      -8.635  -3.508 128.448  0.00  0.00    +0.000 C 
BRANCH  29  30
ATOM     30  C   UNL     1      -8.146  -2.836 127.177  0.00  0.00    +0.000 C 
BRANCH  30  31
ATOM     31  C   UNL     1      -9.073  -3.177 126.023  0.00  0.00    +0.000 C 
BRANCH  31  32
ATOM     32  C   UNL     1      -8.286  -3.826 124.900  0.00  0.00    +0.000 C 
BRANCH  32  33
ATOM     33  C   UNL     1      -8.187  -2.875 123.721  0.00  0.00    +0.000 C 
BRANCH  33  34
ATOM     34  C   UNL     1      -6.748  -2.428 123.537  0.00  0.00    +0.000 C 
BRANCH  34  35
ATOM     35  C   UNL     1      -6.703  -0.945 123.218  0.00  0.00    +0.000 C 
BRANCH  35  36
ATOM     36  C   UNL     1      -6.964  -0.135 124.476  0.00  0.00    +0.000 C 
BRANCH  36  37
ATOM     37  C   UNL     1      -8.116   0.829 124.247  0.00  0.00    +0.000 C 
BRANCH  37  39
ATOM     38  C   UNL     1      -8.888   0.847 126.618  0.00  0.00    +0.000 C 
ATOM     39  C   UNL     1      -9.270   0.514 125.189  0.00  0.00    +0.000 C 
ENDBRANCH  37  39
ENDBRANCH  36  37
ENDBRANCH  35  36
ENDBRANCH  34  35
ENDBRANCH  33  34
ENDBRANCH  32  33
ENDBRANCH  31  32
ENDBRANCH  30  31
ENDBRANCH  29  30
ENDBRANCH  28  29
ENDBRANCH  27  28
ENDBRANCH  26  27
ENDBRANCH  25  26
ENDBRANCH  23  25
ENDBRANCH  22  23
ENDBRANCH  21  22
ENDBRANCH   1  21
TORSDOF 23
ENDMDL
MODEL 4
REMARK VINA RESULT:      -6.2      3.780      6.377
REMARK  Name = Chloramphenicol palmitate
REMARK  24 active torsions:
REMARK  status: ('A' for Active; 'I' for Inactive)
REMARK    1  A    between atoms: C_1  and  C_2
REMARK    2  A    between atoms: C_2  and  C_3
REMARK    3  A    between atoms: C_3  and  C_4
REMARK    4  A    between atoms: C_4  and  C_5
REMARK    5  A    between atoms: C_5  and  C_6
REMARK    6  A    between atoms: C_6  and  C_7
REMARK    7  A    between atoms: C_7  and  C_8
REMARK    8  A    between atoms: C_8  and  C_9
REMARK    9  A    between atoms: C_9  and  C_10
REMARK   10  A    between atoms: C_10  and  C_11
REMARK   11  A    between atoms: C_11  and  C_12
REMARK   12  A    between atoms: C_12  and  C_13
REMARK   13  A    between atoms: C_13  and  C_14
REMARK   14  A    between atoms: C_14  and  C_15
REMARK   15  A    between atoms: C_15  and  C_16
REMARK   16  A    between atoms: C_16  and  O_18
REMARK   17  A    between atoms: O_18  and  C_19
REMARK   18  A    between atoms: C_19  and  C_20
REMARK   19  A    between atoms: C_20  and  N_21
REMARK   20  A    between atoms: C_20  and  C_27
REMARK   21  A    between atoms: C_22  and  C_24
REMARK   22  A    between atoms: C_27  and  O_28
REMARK   23  A    between atoms: C_27  and  C_29
REMARK   24  A    between atoms: C_32  and  N_35
REMARK                            x       y       z     vdW  Elec       q    Type
REMARK                         _______ _______ _______ _____ _____    ______ ____
ROOT
ATOM      1  C   UNL     1      -6.930   5.355 131.563  0.00  0.00    +0.000 C 
ENDROOT
BRANCH   1   2
ATOM      2  N   UNL     1      -5.597   5.909 131.925  0.00  0.00    +0.000 N 
ATOM      3  C   UNL     1      -4.937   6.812 131.090  0.00  0.00    +0.000 C 
ATOM      4  O   UNL     1      -5.408   7.157 130.008  0.00  0.00    +0.000 OA
ATOM      5  H   UNL     1      -5.105   5.493 132.710  0.00  0.00    +0.000 HD
BRANCH   3   6
ATOM      6  C   UNL     1      -3.595   7.354 131.572  0.00  0.00    +0.000 C 
ATOM      7 CL   UNL     1      -3.436   6.975 133.298  0.00  0.00    +0.000 Cl
ATOM      8 CL   UNL     1      -2.268   6.595 130.651  0.00  0.00    +0.000 Cl
ENDBRANCH   3   6
ENDBRANCH   1   2
BRANCH   1   9
ATOM      9  C   UNL     1      -8.094   5.942 132.435  0.00  0.00    +0.000 C 
BRANCH   9  10
ATOM     10  C   UNL     1      -9.238   6.430 131.561  0.00  0.00    +0.000 A 
ATOM     11  C   UNL     1     -10.564   6.105 131.890  0.00  0.00    +0.000 A 
ATOM     12  C   UNL     1     -11.620   6.497 131.077  0.00  0.00    +0.000 A 
ATOM     13  C   UNL     1     -11.366   7.295 129.960  0.00  0.00    +0.000 A 
ATOM     14  C   UNL     1     -10.051   7.620 129.598  0.00  0.00    +0.000 A 
ATOM     15  C   UNL     1      -8.989   7.176 130.396  0.00  0.00    +0.000 A 
BRANCH  13  16
ATOM     16  N   UNL     1     -12.502   7.848 129.217  0.00  0.00    +0.000 N 
ATOM     17  O   UNL     1     -12.298   8.861 128.529  0.00  0.00    +0.000 OA
ATOM     18  O   UNL     1     -13.589   7.264 129.302  0.00  0.00    +0.000 OA
ENDBRANCH  13  16
ENDBRANCH   9  10
BRANCH   9  19
ATOM     19  O   UNL     1      -8.609   4.994 133.377  0.00  0.00    +0.000 OA
ATOM     20  H   UNL     1      -8.156   4.147 133.257  0.00  0.00    +0.000 HD
ENDBRANCH   9  19
ENDBRANCH   1   9
BRANCH   1  21
ATOM     21  C   UNL     1      -6.919   3.809 131.579  0.00  0.00    +0.000 C 
BRANCH  21  22
ATOM     22  O   UNL     1      -8.204   3.329 131.177  0.00  0.00    +0.000 OA
BRANCH  22  23
ATOM     23  C   UNL     1      -8.443   3.211 129.861  0.00  0.00    +0.000 C 
ATOM     24  O   UNL     1      -9.343   3.805 129.273  0.00  0.00    +0.000 OA
BRANCH  23  25
ATOM     25  C   UNL     1      -7.431   2.282 129.223  0.00  0.00    +0.000 C 
BRANCH  25  26
ATOM     26  C   UNL     1      -8.080   0.920 129.028  0.00  0.00    +0.000 C 
BRANCH  26  27
ATOM     27  C   UNL     1      -7.906   0.381 127.619  0.00  0.00    +0.000 C 
BRANCH  27  28
ATOM     28  C   UNL     1      -8.656   1.272 126.637  0.00  0.00    +0.000 C 
BRANCH  28  29
ATOM     29  C   UNL     1      -9.609   0.445 125.794  0.00  0.00    +0.000 C 
BRANCH  29  30
ATOM     30  C   UNL     1      -9.930   1.172 124.500  0.00  0.00    +0.000 C 
BRANCH  30  31
ATOM     31  C   UNL     1      -9.039   0.657 123.383  0.00  0.00    +0.000 C 
BRANCH  31  32
ATOM     32  C   UNL     1      -9.692  -0.534 122.706  0.00  0.00    +0.000 C 
BRANCH  32  33
ATOM     33  C   UNL     1      -8.721  -1.699 122.660  0.00  0.00    +0.000 C 
BRANCH  33  34
ATOM     34  C   UNL     1      -9.285  -2.872 123.441  0.00  0.00    +0.000 C 
BRANCH  34  35
ATOM     35  C   UNL     1      -8.350  -3.234 124.581  0.00  0.00    +0.000 C 
BRANCH  35  36
ATOM     36  C   UNL     1      -9.119  -3.277 125.890  0.00  0.00    +0.000 C 
BRANCH  36  37
ATOM     37  C   UNL     1      -8.157  -3.197 127.064  0.00  0.00    +0.000 C 
BRANCH  37  39
ATOM     38  C   UNL     1      -8.037  -3.205 129.555  0.00  0.00    +0.000 C 
ATOM     39  C   UNL     1      -8.845  -3.638 128.348  0.00  0.00    +0.000 C 
ENDBRANCH  37  39
ENDBRANCH  36  37
ENDBRANCH  35  36
ENDBRANCH  34  35
ENDBRANCH  33  34
ENDBRANCH  32  33
ENDBRANCH  31  32
ENDBRANCH  30  31
ENDBRANCH  29  30
ENDBRANCH  28  29
ENDBRANCH  27  28
ENDBRANCH  26  27
ENDBRANCH  25  26
ENDBRANCH  23  25
ENDBRANCH  22  23
ENDBRANCH  21  22
ENDBRANCH   1  21
TORSDOF 23
ENDMDL
MODEL 5
REMARK VINA RESULT:      -6.1      3.036      6.126
REMARK  Name = Chloramphenicol palmitate
REMARK  24 active torsions:
REMARK  status: ('A' for Active; 'I' for Inactive)
REMARK    1  A    between atoms: C_1  and  C_2
REMARK    2  A    between atoms: C_2  and  C_3
REMARK    3  A    between atoms: C_3  and  C_4
REMARK    4  A    between atoms: C_4  and  C_5
REMARK    5  A    between atoms: C_5  and  C_6
REMARK    6  A    between atoms: C_6  and  C_7
REMARK    7  A    between atoms: C_7  and  C_8
REMARK    8  A    between atoms: C_8  and  C_9
REMARK    9  A    between atoms: C_9  and  C_10
REMARK   10  A    between atoms: C_10  and  C_11
REMARK   11  A    between atoms: C_11  and  C_12
REMARK   12  A    between atoms: C_12  and  C_13
REMARK   13  A    between atoms: C_13  and  C_14
REMARK   14  A    between atoms: C_14  and  C_15
REMARK   15  A    between atoms: C_15  and  C_16
REMARK   16  A    between atoms: C_16  and  O_18
REMARK   17  A    between atoms: O_18  and  C_19
REMARK   18  A    between atoms: C_19  and  C_20
REMARK   19  A    between atoms: C_20  and  N_21
REMARK   20  A    between atoms: C_20  and  C_27
REMARK   21  A    between atoms: C_22  and  C_24
REMARK   22  A    between atoms: C_27  and  O_28
REMARK   23  A    between atoms: C_27  and  C_29
REMARK   24  A    between atoms: C_32  and  N_35
REMARK                            x       y       z     vdW  Elec       q    Type
REMARK                         _______ _______ _______ _____ _____    ______ ____
ROOT
ATOM      1  C   UNL     1      -5.518   3.680 126.114  0.00  0.00    +0.000 C 
ENDROOT
BRANCH   1   2
ATOM      2  N   UNL     1      -5.942   3.047 124.837  0.00  0.00    +0.000 N 
ATOM      3  C   UNL     1      -5.939   3.762 123.638  0.00  0.00    +0.000 C 
ATOM      4  O   UNL     1      -5.623   4.950 123.593  0.00  0.00    +0.000 OA
ATOM      5  H   UNL     1      -6.389   2.136 124.881  0.00  0.00    +0.000 HD
BRANCH   3   6
ATOM      6  C   UNL     1      -6.350   3.011 122.376  0.00  0.00    +0.000 C 
ATOM      7 CL   UNL     1      -8.096   3.234 122.146  0.00  0.00    +0.000 Cl
ATOM      8 CL   UNL     1      -5.458   3.652 120.970  0.00  0.00    +0.000 Cl
ENDBRANCH   3   6
ENDBRANCH   1   2
BRANCH   1   9
ATOM      9  C   UNL     1      -3.989   3.497 126.411  0.00  0.00    +0.000 C 
BRANCH   9  10
ATOM     10  C   UNL     1      -3.577   4.271 127.652  0.00  0.00    +0.000 A 
ATOM     11  C   UNL     1      -3.401   3.602 128.873  0.00  0.00    +0.000 A 
ATOM     12  C   UNL     1      -3.075   4.299 130.031  0.00  0.00    +0.000 A 
ATOM     13  C   UNL     1      -2.840   5.672 129.961  0.00  0.00    +0.000 A 
ATOM     14  C   UNL     1      -3.025   6.369 128.759  0.00  0.00    +0.000 A 
ATOM     15  C   UNL     1      -3.405   5.666 127.608  0.00  0.00    +0.000 A 
BRANCH  13  16
ATOM     16  N   UNL     1      -2.324   6.360 131.149  0.00  0.00    +0.000 N 
ATOM     17  O   UNL     1      -2.741   7.507 131.373  0.00  0.00    +0.000 OA
ATOM     18  O   UNL     1      -1.521   5.751 131.867  0.00  0.00    +0.000 OA
ENDBRANCH  13  16
ENDBRANCH   9  10
BRANCH   9  19
ATOM     19  O   UNL     1      -3.622   2.124 126.584  0.00  0.00    +0.000 OA
ATOM     20  H   UNL     1      -3.347   1.980 127.500  0.00  0.00    +0.000 HD
ENDBRANCH   9  19
ENDBRANCH   1   9
BRANCH   1  21
ATOM     21  C   UNL     1      -6.397   3.204 127.295  0.00  0.00    +0.000 C 
BRANCH  21  22
ATOM     22  O   UNL     1      -6.291   1.782 127.412  0.00  0.00    +0.000 OA
BRANCH  22  23
ATOM     23  C   UNL     1      -6.348   1.251 128.643  0.00  0.00    +0.000 C 
ATOM     24  O   UNL     1      -6.901   1.793 129.597  0.00  0.00    +0.000 OA
BRANCH  23  25
ATOM     25  C   UNL     1      -5.670  -0.103 128.665  0.00  0.00    +0.000 C 
BRANCH  25  26
ATOM     26  C   UNL     1      -6.506  -1.051 129.512  0.00  0.00    +0.000 C 
BRANCH  26  27
ATOM     27  C   UNL     1      -7.762  -1.524 128.803  0.00  0.00    +0.000 C 
BRANCH  27  28
ATOM     28  C   UNL     1      -8.120  -2.925 129.284  0.00  0.00    +0.000 C 
BRANCH  28  29
ATOM     29  C   UNL     1      -8.797  -3.707 128.174  0.00  0.00    +0.000 C 
BRANCH  29  30
ATOM     30  C   UNL     1      -8.287  -3.244 126.820  0.00  0.00    +0.000 C 
BRANCH  30  31
ATOM     31  C   UNL     1      -9.450  -3.088 125.856  0.00  0.00    +0.000 C 
BRANCH  31  32
ATOM     32  C   UNL     1      -8.978  -3.325 124.433  0.00  0.00    +0.000 C 
BRANCH  32  33
ATOM     33  C   UNL     1      -7.527  -3.769 124.437  0.00  0.00    +0.000 C 
BRANCH  33  34
ATOM     34  C   UNL     1      -6.694  -2.818 123.595  0.00  0.00    +0.000 C 
BRANCH  34  35
ATOM     35  C   UNL     1      -5.554  -2.255 124.424  0.00  0.00    +0.000 C 
BRANCH  35  36
ATOM     36  C   UNL     1      -5.983  -0.954 125.080  0.00  0.00    +0.000 C 
BRANCH  36  37
ATOM     37  C   UNL     1      -6.954  -0.210 124.180  0.00  0.00    +0.000 C 
BRANCH  37  39
ATOM     38  C   UNL     1      -9.360   0.442 124.076  0.00  0.00    +0.000 C 
ATOM     39  C   UNL     1      -8.152   0.283 124.980  0.00  0.00    +0.000 C 
ENDBRANCH  37  39
ENDBRANCH  36  37
ENDBRANCH  35  36
ENDBRANCH  34  35
ENDBRANCH  33  34
ENDBRANCH  32  33
ENDBRANCH  31  32
ENDBRANCH  30  31
ENDBRANCH  29  30
ENDBRANCH  28  29
ENDBRANCH  27  28
ENDBRANCH  26  27
ENDBRANCH  25  26
ENDBRANCH  23  25
ENDBRANCH  22  23
ENDBRANCH  21  22
ENDBRANCH   1  21
TORSDOF 23
ENDMDL
MODEL 6
REMARK VINA RESULT:      -6.1      3.924      6.439
REMARK  Name = Chloramphenicol palmitate
REMARK  24 active torsions:
REMARK  status: ('A' for Active; 'I' for Inactive)
REMARK    1  A    between atoms: C_1  and  C_2
REMARK    2  A    between atoms: C_2  and  C_3
REMARK    3  A    between atoms: C_3  and  C_4
REMARK    4  A    between atoms: C_4  and  C_5
REMARK    5  A    between atoms: C_5  and  C_6
REMARK    6  A    between atoms: C_6  and  C_7
REMARK    7  A    between atoms: C_7  and  C_8
REMARK    8  A    between atoms: C_8  and  C_9
REMARK    9  A    between atoms: C_9  and  C_10
REMARK   10  A    between atoms: C_10  and  C_11
REMARK   11  A    between atoms: C_11  and  C_12
REMARK   12  A    between atoms: C_12  and  C_13
REMARK   13  A    between atoms: C_13  and  C_14
REMARK   14  A    between atoms: C_14  and  C_15
REMARK   15  A    between atoms: C_15  and  C_16
REMARK   16  A    between atoms: C_16  and  O_18
REMARK   17  A    between atoms: O_18  and  C_19
REMARK   18  A    between atoms: C_19  and  C_20
REMARK   19  A    between atoms: C_20  and  N_21
REMARK   20  A    between atoms: C_20  and  C_27
REMARK   21  A    between atoms: C_22  and  C_24
REMARK   22  A    between atoms: C_27  and  O_28
REMARK   23  A    between atoms: C_27  and  C_29
REMARK   24  A    between atoms: C_32  and  N_35
REMARK                            x       y       z     vdW  Elec       q    Type
REMARK                         _______ _______ _______ _____ _____    ______ ____
ROOT
ATOM      1  C   UNL     1      -6.300   4.897 131.311  0.00  0.00    +0.000 C 
ENDROOT
BRANCH   1   2
ATOM      2  N   UNL     1      -7.299   3.947 130.754  0.00  0.00    +0.000 N 
ATOM      3  C   UNL     1      -7.758   2.858 131.498  0.00  0.00    +0.000 C 
ATOM      4  O   UNL     1      -7.330   2.619 132.626  0.00  0.00    +0.000 OA
ATOM      5  H   UNL     1      -7.518   4.011 129.764  0.00  0.00    +0.000 HD
BRANCH   3   6
ATOM      6  C   UNL     1      -8.815   1.968 130.852  0.00  0.00    +0.000 C 
ATOM      7 CL   UNL     1      -8.193   1.426 129.281  0.00  0.00    +0.000 Cl
ATOM      8 CL   UNL     1      -9.145   0.561 131.900  0.00  0.00    +0.000 Cl
ENDBRANCH   3   6
ENDBRANCH   1   2
BRANCH   1   9
ATOM      9  C   UNL     1      -6.945   6.003 132.217  0.00  0.00    +0.000 C 
BRANCH   9  10
ATOM     10  C   UNL     1      -8.393   6.251 131.828  0.00  0.00    +0.000 A 
ATOM     11  C   UNL     1      -8.697   6.887 130.614  0.00  0.00    +0.000 A 
ATOM     12  C   UNL     1     -10.012   7.171 130.264  0.00  0.00    +0.000 A 
ATOM     13  C   UNL     1     -11.049   6.743 131.093  0.00  0.00    +0.000 A 
ATOM     14  C   UNL     1     -10.775   6.121 132.319  0.00  0.00    +0.000 A 
ATOM     15  C   UNL     1      -9.444   5.887 132.688  0.00  0.00    +0.000 A 
BRANCH  13  16
ATOM     16  N   UNL     1     -12.431   6.889 130.625  0.00  0.00    +0.000 N 
ATOM     17  O   UNL     1     -12.650   6.699 129.419  0.00  0.00    +0.000 OA
ATOM     18  O   UNL     1     -13.298   7.173 131.461  0.00  0.00    +0.000 OA
ENDBRANCH  13  16
ENDBRANCH   9  10
BRANCH   9  19
ATOM     19  O   UNL     1      -6.894   5.674 133.610  0.00  0.00    +0.000 OA
ATOM     20  H   UNL     1      -7.724   5.938 134.031  0.00  0.00    +0.000 HD
ENDBRANCH   9  19
ENDBRANCH   1   9
BRANCH   1  21
ATOM     21  C   UNL     1      -5.420   5.506 130.195  0.00  0.00    +0.000 C 
BRANCH  21  22
ATOM     22  O   UNL     1      -5.961   5.140 128.922  0.00  0.00    +0.000 OA
BRANCH  22  23
ATOM     23  C   UNL     1      -5.097   4.850 127.937  0.00  0.00    +0.000 C 
ATOM     24  O   UNL     1      -4.620   5.689 127.177  0.00  0.00    +0.000 OA
BRANCH  23  25
ATOM     25  C   UNL     1      -4.785   3.369 127.929  0.00  0.00    +0.000 C 
BRANCH  25  26
ATOM     26  C   UNL     1      -4.459   2.949 126.503  0.00  0.00    +0.000 C 
BRANCH  26  27
ATOM     27  C   UNL     1      -4.699   1.471 126.253  0.00  0.00    +0.000 C 
BRANCH  27  28
ATOM     28  C   UNL     1      -6.080   1.277 125.640  0.00  0.00    +0.000 C 
BRANCH  28  29
ATOM     29  C   UNL     1      -6.716   0.003 126.164  0.00  0.00    +0.000 C 
BRANCH  29  30
ATOM     30  C   UNL     1      -5.643  -1.019 126.501  0.00  0.00    +0.000 C 
BRANCH  30  31
ATOM     31  C   UNL     1      -6.133  -1.936 127.608  0.00  0.00    +0.000 C 
BRANCH  31  32
ATOM     32  C   UNL     1      -7.633  -1.787 127.778  0.00  0.00    +0.000 C 
BRANCH  32  33
ATOM     33  C   UNL     1      -8.233  -3.102 128.243  0.00  0.00    +0.000 C 
BRANCH  33  34
ATOM     34  C   UNL     1      -8.960  -3.773 127.091  0.00  0.00    +0.000 C 
BRANCH  34  35
ATOM     35  C   UNL     1      -9.321  -2.743 126.036  0.00  0.00    +0.000 C 
BRANCH  35  36
ATOM     36  C   UNL     1      -9.127  -3.332 124.649  0.00  0.00    +0.000 C 
BRANCH  36  37
ATOM     37  C   UNL     1      -7.673  -3.209 124.227  0.00  0.00    +0.000 C 
BRANCH  37  39
ATOM     38  C   UNL     1      -6.083  -2.030 122.709  0.00  0.00    +0.000 C 
ATOM     39  C   UNL     1      -7.494  -2.045 123.262  0.00  0.00    +0.000 C 
ENDBRANCH  37  39
ENDBRANCH  36  37
ENDBRANCH  35  36
ENDBRANCH  34  35
ENDBRANCH  33  34
ENDBRANCH  32  33
ENDBRANCH  31  32
ENDBRANCH  30  31
ENDBRANCH  29  30
ENDBRANCH  28  29
ENDBRANCH  27  28
ENDBRANCH  26  27
ENDBRANCH  25  26
ENDBRANCH  23  25
ENDBRANCH  22  23
ENDBRANCH  21  22
ENDBRANCH   1  21
TORSDOF 23
ENDMDL
MODEL 7
REMARK VINA RESULT:      -6.1      3.823      5.775
REMARK  Name = Chloramphenicol palmitate
REMARK  24 active torsions:
REMARK  status: ('A' for Active; 'I' for Inactive)
REMARK    1  A    between atoms: C_1  and  C_2
REMARK    2  A    between atoms: C_2  and  C_3
REMARK    3  A    between atoms: C_3  and  C_4
REMARK    4  A    between atoms: C_4  and  C_5
REMARK    5  A    between atoms: C_5  and  C_6
REMARK    6  A    between atoms: C_6  and  C_7
REMARK    7  A    between atoms: C_7  and  C_8
REMARK    8  A    between atoms: C_8  and  C_9
REMARK    9  A    between atoms: C_9  and  C_10
REMARK   10  A    between atoms: C_10  and  C_11
REMARK   11  A    between atoms: C_11  and  C_12
REMARK   12  A    between atoms: C_12  and  C_13
REMARK   13  A    between atoms: C_13  and  C_14
REMARK   14  A    between atoms: C_14  and  C_15
REMARK   15  A    between atoms: C_15  and  C_16
REMARK   16  A    between atoms: C_16  and  O_18
REMARK   17  A    between atoms: O_18  and  C_19
REMARK   18  A    between atoms: C_19  and  C_20
REMARK   19  A    between atoms: C_20  and  N_21
REMARK   20  A    between atoms: C_20  and  C_27
REMARK   21  A    between atoms: C_22  and  C_24
REMARK   22  A    between atoms: C_27  and  O_28
REMARK   23  A    between atoms: C_27  and  C_29
REMARK   24  A    between atoms: C_32  and  N_35
REMARK                            x       y       z     vdW  Elec       q    Type
REMARK                         _______ _______ _______ _____ _____    ______ ____
ROOT
ATOM      1  C   UNL     1      -8.628   4.860 131.203  0.00  0.00    +0.000 C 
ENDROOT
BRANCH   1   2
ATOM      2  N   UNL     1      -7.237   4.773 131.724  0.00  0.00    +0.000 N 
ATOM      3  C   UNL     1      -6.155   5.252 130.983  0.00  0.00    +0.000 C 
ATOM      4  O   UNL     1      -6.301   5.730 129.859  0.00  0.00    +0.000 OA
ATOM      5  H   UNL     1      -7.073   4.211 132.554  0.00  0.00    +0.000 HD
BRANCH   3   6
ATOM      6  C   UNL     1      -4.774   5.156 131.623  0.00  0.00    +0.000 C 
ATOM      7 CL   UNL     1      -4.979   5.210 133.386  0.00  0.00    +0.000 Cl
ATOM      8 CL   UNL     1      -3.988   3.628 131.143  0.00  0.00    +0.000 Cl
ENDBRANCH   3   6
ENDBRANCH   1   2
BRANCH   1   9
ATOM      9  C   UNL     1      -9.525   5.856 132.017  0.00  0.00    +0.000 C 
BRANCH   9  10
ATOM     10  C   UNL     1     -10.490   6.594 131.103  0.00  0.00    +0.000 A 
ATOM     11  C   UNL     1     -11.861   6.626 131.404  0.00  0.00    +0.000 A 
ATOM     12  C   UNL     1     -12.766   7.250 130.554  0.00  0.00    +0.000 A 
ATOM     13  C   UNL     1     -12.294   7.927 129.428  0.00  0.00    +0.000 A 
ATOM     14  C   UNL     1     -10.933   7.897 129.094  0.00  0.00    +0.000 A 
ATOM     15  C   UNL     1     -10.035   7.220 129.929  0.00  0.00    +0.000 A 
BRANCH  13  16
ATOM     16  N   UNL     1     -13.237   8.729 128.643  0.00  0.00    +0.000 N 
ATOM     17  O   UNL     1     -13.887   8.148 127.761  0.00  0.00    +0.000 OA
ATOM     18  O   UNL     1     -13.342   9.931 128.917  0.00  0.00    +0.000 OA
ENDBRANCH  13  16
ENDBRANCH   9  10
BRANCH   9  19
ATOM     19  O   UNL     1     -10.277   5.205 133.047  0.00  0.00    +0.000 OA
ATOM     20  H   UNL     1     -11.128   4.915 132.688  0.00  0.00    +0.000 HD
ENDBRANCH   9  19
ENDBRANCH   1   9
BRANCH   1  21
ATOM     21  C   UNL     1      -9.274   3.459 131.092  0.00  0.00    +0.000 C 
BRANCH  21  22
ATOM     22  O   UNL     1      -9.668   3.233 129.736  0.00  0.00    +0.000 OA
BRANCH  22  23
ATOM     23  C   UNL     1      -8.698   3.076 128.822  0.00  0.00    +0.000 C 
ATOM     24  O   UNL     1      -8.450   3.893 127.940  0.00  0.00    +0.000 OA
BRANCH  23  25
ATOM     25  C   UNL     1      -7.952   1.780 129.065  0.00  0.00    +0.000 C 
BRANCH  25  26
ATOM     26  C   UNL     1      -6.458   2.065 129.020  0.00  0.00    +0.000 C 
BRANCH  26  27
ATOM     27  C   UNL     1      -5.695   1.083 128.150  0.00  0.00    +0.000 C 
BRANCH  27  28
ATOM     28  C   UNL     1      -6.187  -0.332 128.429  0.00  0.00    +0.000 C 
BRANCH  28  29
ATOM     29  C   UNL     1      -5.541  -1.314 127.470  0.00  0.00    +0.000 C 
BRANCH  29  30
ATOM     30  C   UNL     1      -6.387  -2.571 127.356  0.00  0.00    +0.000 C 
BRANCH  30  31
ATOM     31  C   UNL     1      -7.770  -2.316 127.931  0.00  0.00    +0.000 C 
BRANCH  31  32
ATOM     32  C   UNL     1      -8.774  -3.267 127.305  0.00  0.00    +0.000 C 
BRANCH  32  33
ATOM     33  C   UNL     1      -8.351  -3.604 125.887  0.00  0.00    +0.000 C 
BRANCH  33  34
ATOM     34  C   UNL     1      -8.990  -2.630 124.912  0.00  0.00    +0.000 C 
BRANCH  34  35
ATOM     35  C   UNL     1      -8.419  -2.839 123.521  0.00  0.00    +0.000 C 
BRANCH  35  36
ATOM     36  C   UNL     1      -7.563  -1.648 123.127  0.00  0.00    +0.000 C 
BRANCH  36  37
ATOM     37  C   UNL     1      -6.199  -2.120 122.653  0.00  0.00    +0.000 C 
BRANCH  37  39
ATOM     38  C   UNL     1      -4.602  -3.861 123.454  0.00  0.00    +0.000 C 
ATOM     39  C   UNL     1      -5.365  -2.606 123.830  0.00  0.00    +0.000 C 
ENDBRANCH  37  39
ENDBRANCH  36  37
ENDBRANCH  35  36
ENDBRANCH  34  35
ENDBRANCH  33  34
ENDBRANCH  32  33
ENDBRANCH  31  32
ENDBRANCH  30  31
ENDBRANCH  29  30
ENDBRANCH  28  29
ENDBRANCH  27  28
ENDBRANCH  26  27
ENDBRANCH  25  26
ENDBRANCH  23  25
ENDBRANCH  22  23
ENDBRANCH  21  22
ENDBRANCH   1  21
TORSDOF 23
ENDMDL
MODEL 8
REMARK VINA RESULT:      -6.1      4.407      7.516
REMARK  Name = Chloramphenicol palmitate
REMARK  24 active torsions:
REMARK  status: ('A' for Active; 'I' for Inactive)
REMARK    1  A    between atoms: C_1  and  C_2
REMARK    2  A    between atoms: C_2  and  C_3
REMARK    3  A    between atoms: C_3  and  C_4
REMARK    4  A    between atoms: C_4  and  C_5
REMARK    5  A    between atoms: C_5  and  C_6
REMARK    6  A    between atoms: C_6  and  C_7
REMARK    7  A    between atoms: C_7  and  C_8
REMARK    8  A    between atoms: C_8  and  C_9
REMARK    9  A    between atoms: C_9  and  C_10
REMARK   10  A    between atoms: C_10  and  C_11
REMARK   11  A    between atoms: C_11  and  C_12
REMARK   12  A    between atoms: C_12  and  C_13
REMARK   13  A    between atoms: C_13  and  C_14
REMARK   14  A    between atoms: C_14  and  C_15
REMARK   15  A    between atoms: C_15  and  C_16
REMARK   16  A    between atoms: C_16  and  O_18
REMARK   17  A    between atoms: O_18  and  C_19
REMARK   18  A    between atoms: C_19  and  C_20
REMARK   19  A    between atoms: C_20  and  N_21
REMARK   20  A    between atoms: C_20  and  C_27
REMARK   21  A    between atoms: C_22  and  C_24
REMARK   22  A    between atoms: C_27  and  O_28
REMARK   23  A    between atoms: C_27  and  C_29
REMARK   24  A    between atoms: C_32  and  N_35
REMARK                            x       y       z     vdW  Elec       q    Type
REMARK                         _______ _______ _______ _____ _____    ______ ____
ROOT
ATOM      1  C   UNL     1     -10.569   5.036 131.238  0.00  0.00    +0.000 C 
ENDROOT
BRANCH   1   2
ATOM      2  N   UNL     1     -10.831   6.175 130.317  0.00  0.00    +0.000 N 
ATOM      3  C   UNL     1     -11.932   7.015 130.498  0.00  0.00    +0.000 C 
ATOM      4  O   UNL     1     -12.748   6.827 131.397  0.00  0.00    +0.000 OA
ATOM      5  H   UNL     1     -10.287   6.232 129.461  0.00  0.00    +0.000 HD
BRANCH   3   6
ATOM      6  C   UNL     1     -12.088   8.180 129.525  0.00  0.00    +0.000 C 
ATOM      7 CL   UNL     1     -12.913   7.578 128.073  0.00  0.00    +0.000 Cl
ATOM      8 CL   UNL     1     -13.047   9.479 130.283  0.00  0.00    +0.000 Cl
ENDBRANCH   3   6
ENDBRANCH   1   2
BRANCH   1   9
ATOM      9  C   UNL     1      -9.699   5.439 132.479  0.00  0.00    +0.000 C 
BRANCH   9  10
ATOM     10  C   UNL     1      -8.275   5.771 132.063  0.00  0.00    +0.000 A 
ATOM     11  C   UNL     1      -8.019   6.896 131.263  0.00  0.00    +0.000 A 
ATOM     12  C   UNL     1      -6.732   7.188 130.828  0.00  0.00    +0.000 A 
ATOM     13  C   UNL     1      -5.667   6.397 131.261  0.00  0.00    +0.000 A 
ATOM     14  C   UNL     1      -5.895   5.258 132.046  0.00  0.00    +0.000 A 
ATOM     15  C   UNL     1      -7.202   4.942 132.435  0.00  0.00    +0.000 A 
BRANCH  13  16
ATOM     16  N   UNL     1      -4.300   6.821 130.943  0.00  0.00    +0.000 N 
ATOM     17  O   UNL     1      -3.661   7.407 131.830  0.00  0.00    +0.000 OA
ATOM     18  O   UNL     1      -3.858   6.553 129.818  0.00  0.00    +0.000 OA
ENDBRANCH  13  16
ENDBRANCH   9  10
BRANCH   9  19
ATOM     19  O   UNL     1     -10.240   6.556 133.192  0.00  0.00    +0.000 OA
ATOM     20  H   UNL     1     -10.820   6.234 133.897  0.00  0.00    +0.000 HD
ENDBRANCH   9  19
ENDBRANCH   1   9
BRANCH   1  21
ATOM     21  C   UNL     1      -9.971   3.828 130.480  0.00  0.00    +0.000 C 
BRANCH  21  22
ATOM     22  O   UNL     1      -9.423   4.281 129.239  0.00  0.00    +0.000 OA
BRANCH  22  23
ATOM     23  C   UNL     1      -8.172   3.901 128.933  0.00  0.00    +0.000 C 
ATOM     24  O   UNL     1      -7.324   4.654 128.462  0.00  0.00    +0.000 OA
BRANCH  23  25
ATOM     25  C   UNL     1      -7.964   2.442 129.284  0.00  0.00    +0.000 C 
BRANCH  25  26
ATOM     26  C   UNL     1      -8.300   1.598 128.064  0.00  0.00    +0.000 C 
BRANCH  26  27
ATOM     27  C   UNL     1      -7.105   1.376 127.153  0.00  0.00    +0.000 C 
BRANCH  27  28
ATOM     28  C   UNL     1      -7.396   0.218 126.207  0.00  0.00    +0.000 C 
BRANCH  28  29
ATOM     29  C   UNL     1      -6.369   0.179 125.090  0.00  0.00    +0.000 C 
BRANCH  29  30
ATOM     30  C   UNL     1      -7.060   0.019 123.747  0.00  0.00    +0.000 C 
BRANCH  30  31
ATOM     31  C   UNL     1      -6.707  -1.328 123.141  0.00  0.00    +0.000 C 
BRANCH  31  32
ATOM     32  C   UNL     1      -7.946  -1.969 122.544  0.00  0.00    +0.000 C 
BRANCH  32  33
ATOM     33  C   UNL     1      -9.022  -2.101 123.607  0.00  0.00    +0.000 C 
BRANCH  33  34
ATOM     34  C   UNL     1      -9.104  -3.541 124.082  0.00  0.00    +0.000 C 
BRANCH  34  35
ATOM     35  C   UNL     1      -8.352  -3.699 125.391  0.00  0.00    +0.000 C 
BRANCH  35  36
ATOM     36  C   UNL     1      -9.087  -2.971 126.503  0.00  0.00    +0.000 C 
BRANCH  36  37
ATOM     37  C   UNL     1      -9.081  -3.812 127.769  0.00  0.00    +0.000 C 
BRANCH  37  39
ATOM     38  C   UNL     1      -7.920  -2.109 129.174  0.00  0.00    +0.000 C 
ATOM     39  C   UNL     1      -7.843  -3.511 128.602  0.00  0.00    +0.000 C 
ENDBRANCH  37  39
ENDBRANCH  36  37
ENDBRANCH  35  36
ENDBRANCH  34  35
ENDBRANCH  33  34
ENDBRANCH  32  33
ENDBRANCH  31  32
ENDBRANCH  30  31
ENDBRANCH  29  30
ENDBRANCH  28  29
ENDBRANCH  27  28
ENDBRANCH  26  27
ENDBRANCH  25  26
ENDBRANCH  23  25
ENDBRANCH  22  23
ENDBRANCH  21  22
ENDBRANCH   1  21
TORSDOF 23
ENDMDL
MODEL 9
REMARK VINA RESULT:      -6.1      3.976      5.515
REMARK  Name = Chloramphenicol palmitate
REMARK  24 active torsions:
REMARK  status: ('A' for Active; 'I' for Inactive)
REMARK    1  A    between atoms: C_1  and  C_2
REMARK    2  A    between atoms: C_2  and  C_3
REMARK    3  A    between atoms: C_3  and  C_4
REMARK    4  A    between atoms: C_4  and  C_5
REMARK    5  A    between atoms: C_5  and  C_6
REMARK    6  A    between atoms: C_6  and  C_7
REMARK    7  A    between atoms: C_7  and  C_8
REMARK    8  A    between atoms: C_8  and  C_9
REMARK    9  A    between atoms: C_9  and  C_10
REMARK   10  A    between atoms: C_10  and  C_11
REMARK   11  A    between atoms: C_11  and  C_12
REMARK   12  A    between atoms: C_12  and  C_13
REMARK   13  A    between atoms: C_13  and  C_14
REMARK   14  A    between atoms: C_14  and  C_15
REMARK   15  A    between atoms: C_15  and  C_16
REMARK   16  A    between atoms: C_16  and  O_18
REMARK   17  A    between atoms: O_18  and  C_19
REMARK   18  A    between atoms: C_19  and  C_20
REMARK   19  A    between atoms: C_20  and  N_21
REMARK   20  A    between atoms: C_20  and  C_27
REMARK   21  A    between atoms: C_22  and  C_24
REMARK   22  A    between atoms: C_27  and  O_28
REMARK   23  A    between atoms: C_27  and  C_29
REMARK   24  A    between atoms: C_32  and  N_35
REMARK                            x       y       z     vdW  Elec       q    Type
REMARK                         _______ _______ _______ _____ _____    ______ ____
ROOT
ATOM      1  C   UNL     1      -7.901   4.903 131.785  0.00  0.00    +0.000 C 
ENDROOT
BRANCH   1   2
ATOM      2  N   UNL     1      -6.470   5.302 131.867  0.00  0.00    +0.000 N 
ATOM      3  C   UNL     1      -5.756   5.676 130.727  0.00  0.00    +0.000 C 
ATOM      4  O   UNL     1      -6.265   5.655 129.608  0.00  0.00    +0.000 OA
ATOM      5  H   UNL     1      -5.979   5.140 132.741  0.00  0.00    +0.000 HD
BRANCH   3   6
ATOM      6  C   UNL     1      -4.307   6.110 130.923  0.00  0.00    +0.000 C 
ATOM      7 CL   UNL     1      -3.258   4.767 130.425  0.00  0.00    +0.000 Cl
ATOM      8 CL   UNL     1      -3.967   7.555 129.933  0.00  0.00    +0.000 Cl
ENDBRANCH   3   6
ENDBRANCH   1   2
BRANCH   1   9
ATOM      9  C   UNL     1      -8.879   6.021 132.288  0.00  0.00    +0.000 C 
BRANCH   9  10
ATOM     10  C   UNL     1      -9.854   6.426 131.195  0.00  0.00    +0.000 A 
ATOM     11  C   UNL     1      -9.426   7.243 130.136  0.00  0.00    +0.000 A 
ATOM     12  C   UNL     1     -10.313   7.668 129.155  0.00  0.00    +0.000 A 
ATOM     13  C   UNL     1     -11.630   7.209 129.177  0.00  0.00    +0.000 A 
ATOM     14  C   UNL     1     -12.090   6.406 130.230  0.00  0.00    +0.000 A 
ATOM     15  C   UNL     1     -11.201   6.026 131.244  0.00  0.00    +0.000 A 
BRANCH  13  16
ATOM     16  N   UNL     1     -12.504   7.519 128.041  0.00  0.00    +0.000 N 
ATOM     17  O   UNL     1     -13.141   8.583 128.083  0.00  0.00    +0.000 OA
ATOM     18  O   UNL     1     -12.539   6.715 127.101  0.00  0.00    +0.000 OA
ENDBRANCH  13  16
ENDBRANCH   9  10
BRANCH   9  19
ATOM     19  O   UNL     1      -9.625   5.621 133.443  0.00  0.00    +0.000 OA
ATOM     20  H   UNL     1      -9.696   4.656 133.460  0.00  0.00    +0.000 HD
ENDBRANCH   9  19
ENDBRANCH   1   9
BRANCH   1  21
ATOM     21  C   UNL     1      -8.149   3.554 132.500  0.00  0.00    +0.000 C 
BRANCH  21  22
ATOM     22  O   UNL     1      -9.313   2.937 131.942  0.00  0.00    +0.000 OA
BRANCH  22  23
ATOM     23  C   UNL     1      -9.248   2.518 130.669  0.00  0.00    +0.000 C 
ATOM     24  O   UNL     1      -9.844   3.057 129.740  0.00  0.00    +0.000 OA
BRANCH  23  25
ATOM     25  C   UNL     1      -8.321   1.326 130.554  0.00  0.00    +0.000 C 
BRANCH  25  26
ATOM     26  C   UNL     1      -8.952   0.149 131.283  0.00  0.00    +0.000 C 
BRANCH  26  27
ATOM     27  C   UNL     1      -8.006  -0.511 132.270  0.00  0.00    +0.000 C 
BRANCH  27  28
ATOM     28  C   UNL     1      -7.032  -1.410 131.518  0.00  0.00    +0.000 C 
BRANCH  28  29
ATOM     29  C   UNL     1      -7.705  -2.718 131.143  0.00  0.00    +0.000 C 
BRANCH  29  30
ATOM     30  C   UNL     1      -7.244  -3.169 129.768  0.00  0.00    +0.000 C 
BRANCH  30  31
ATOM     31  C   UNL     1      -7.098  -1.967 128.852  0.00  0.00    +0.000 C 
BRANCH  31  32
ATOM     32  C   UNL     1      -7.425  -2.361 127.423  0.00  0.00    +0.000 C 
BRANCH  32  33
ATOM     33  C   UNL     1      -8.679  -3.217 127.398  0.00  0.00    +0.000 C 
BRANCH  33  34
ATOM     34  C   UNL     1      -9.314  -3.162 126.020  0.00  0.00    +0.000 C 
BRANCH  34  35
ATOM     35  C   UNL     1      -8.349  -3.707 124.983  0.00  0.00    +0.000 C 
BRANCH  35  36
ATOM     36  C   UNL     1      -8.690  -3.149 123.612  0.00  0.00    +0.000 C 
BRANCH  36  37
ATOM     37  C   UNL     1      -7.836  -1.927 123.319  0.00  0.00    +0.000 C 
BRANCH  37  39
ATOM     38  C   UNL     1      -5.472  -2.534 122.808  0.00  0.00    +0.000 C 
ATOM     39  C   UNL     1      -6.438  -2.104 123.894  0.00  0.00    +0.000 C 
ENDBRANCH  37  39
ENDBRANCH  36  37
ENDBRANCH  35  36
ENDBRANCH  34  35
ENDBRANCH  33  34
ENDBRANCH  32  33
ENDBRANCH  31  32
ENDBRANCH  30  31
ENDBRANCH  29  30
ENDBRANCH  28  29
ENDBRANCH  27  28
ENDBRANCH  26  27
ENDBRANCH  25  26
ENDBRANCH  23  25
ENDBRANCH  22  23
ENDBRANCH  21  22
ENDBRANCH   1  21
TORSDOF 23
ENDMDL
