MODEL 1
REMARK VINA RESULT:      -5.8      0.000      0.000
REMARK  Name = Chloroxine
REMARK  1 active torsions:
REMARK  status: ('A' for Active; 'I' for Inactive)
REMARK    1  A    between atoms: O_1  and  C_2
REMARK                            x       y       z     vdW  Elec       q    Type
REMARK                         _______ _______ _______ _____ _____    ______ ____
ROOT
ATOM      1  C   UNL     1      -9.252   5.930 129.911  0.00  0.00    +0.000 A 
ATOM      2  C   UNL     1      -9.509   5.903 131.284  0.00  0.00    +0.000 A 
ATOM      3 CL   UNL     1      -8.353   5.254 132.387  0.00  0.00    +0.000 Cl
ATOM      4  C   UNL     1     -10.695   6.421 131.787  0.00  0.00    +0.000 A 
ATOM      5  C   UNL     1     -11.624   6.968 130.907  0.00  0.00    +0.000 A 
ATOM      6 CL   UNL     1     -13.066   7.634 131.608  0.00  0.00    +0.000 Cl
ATOM      7  C   UNL     1     -11.362   7.041 129.522  0.00  0.00    +0.000 A 
ATOM      8  C   UNL     1     -10.154   6.504 129.006  0.00  0.00    +0.000 A 
ATOM      9  N   UNL     1      -9.856   6.587 127.693  0.00  0.00    +0.000 NA
ATOM     10  C   UNL     1     -10.657   7.306 126.882  0.00  0.00    +0.000 A 
ATOM     11  C   UNL     1     -11.812   7.922 127.309  0.00  0.00    +0.000 A 
ATOM     12  C   UNL     1     -12.215   7.695 128.613  0.00  0.00    +0.000 A 
ENDROOT
BRANCH   1  13
ATOM     13  O   UNL     1      -8.063   5.421 129.426  0.00  0.00    +0.000 OA
ATOM     14  H   UNL     1      -7.439   6.158 129.302  0.00  0.00    +0.000 HD
ENDBRANCH   1  13
TORSDOF 1
ENDMDL
MODEL 2
REMARK VINA RESULT:      -5.7      1.978      3.736
REMARK  Name = Chloroxine
REMARK  1 active torsions:
REMARK  status: ('A' for Active; 'I' for Inactive)
REMARK    1  A    between atoms: O_1  and  C_2
REMARK                            x       y       z     vdW  Elec       q    Type
REMARK                         _______ _______ _______ _____ _____    ______ ____
ROOT
ATOM      1  C   UNL     1     -10.468   6.692 128.150  0.00  0.00    +0.000 A 
ATOM      2  C   UNL     1     -11.789   7.111 127.976  0.00  0.00    +0.000 A 
ATOM      3 CL   UNL     1     -12.474   7.241 126.399  0.00  0.00    +0.000 Cl
ATOM      4  C   UNL     1     -12.582   7.407 129.077  0.00  0.00    +0.000 A 
ATOM      5  C   UNL     1     -12.045   7.282 130.354  0.00  0.00    +0.000 A 
ATOM      6 CL   UNL     1     -13.104   7.629 131.684  0.00  0.00    +0.000 Cl
ATOM      7  C   UNL     1     -10.725   6.821 130.549  0.00  0.00    +0.000 A 
ATOM      8  C   UNL     1      -9.911   6.525 129.424  0.00  0.00    +0.000 A 
ATOM      9  N   UNL     1      -8.657   6.050 129.573  0.00  0.00    +0.000 NA
ATOM     10  C   UNL     1      -8.220   5.728 130.807  0.00  0.00    +0.000 A 
ATOM     11  C   UNL     1      -8.967   5.913 131.948  0.00  0.00    +0.000 A 
ATOM     12  C   UNL     1     -10.183   6.561 131.821  0.00  0.00    +0.000 A 
ENDROOT
BRANCH   1  13
ATOM     13  O   UNL     1      -9.693   6.389 127.046  0.00  0.00    +0.000 OA
ATOM     14  H   UNL     1     -10.107   5.646 126.573  0.00  0.00    +0.000 HD
ENDBRANCH   1  13
TORSDOF 1
ENDMDL
MODEL 3
REMARK VINA RESULT:      -5.7      8.464     10.173
REMARK  Name = Chloroxine
REMARK  1 active torsions:
REMARK  status: ('A' for Active; 'I' for Inactive)
REMARK    1  A    between atoms: O_1  and  C_2
REMARK                            x       y       z     vdW  Elec       q    Type
REMARK                         _______ _______ _______ _____ _____    ______ ____
ROOT
ATOM      1  C   UNL     1      -8.093   3.692 120.670  0.00  0.00    +0.000 A 
ATOM      2  C   UNL     1      -7.147   4.211 119.782  0.00  0.00    +0.000 A 
ATOM      3 CL   UNL     1      -7.565   4.548 118.143  0.00  0.00    +0.000 Cl
ATOM      4  C   UNL     1      -5.856   4.485 120.214  0.00  0.00    +0.000 A 
ATOM      5  C   UNL     1      -5.517   4.238 121.540  0.00  0.00    +0.000 A 
ATOM      6 CL   UNL     1      -3.898   4.643 122.020  0.00  0.00    +0.000 Cl
ATOM      7  C   UNL     1      -6.471   3.754 122.460  0.00  0.00    +0.000 A 
ATOM      8  C   UNL     1      -7.789   3.465 122.018  0.00  0.00    +0.000 A 
ATOM      9  N   UNL     1      -8.736   3.033 122.877  0.00  0.00    +0.000 NA
ATOM     10  C   UNL     1      -8.461   3.003 124.195  0.00  0.00    +0.000 A 
ATOM     11  C   UNL     1      -7.233   3.334 124.722  0.00  0.00    +0.000 A 
ATOM     12  C   UNL     1      -6.207   3.608 123.834  0.00  0.00    +0.000 A 
ENDROOT
BRANCH   1  13
ATOM     13  O   UNL     1      -9.377   3.434 120.230  0.00  0.00    +0.000 OA
ATOM     14  H   UNL     1      -9.853   2.956 120.932  0.00  0.00    +0.000 HD
ENDBRANCH   1  13
TORSDOF 1
ENDMDL
MODEL 4
REMARK VINA RESULT:      -5.7      9.465     10.628
REMARK  Name = Chloroxine
REMARK  1 active torsions:
REMARK  status: ('A' for Active; 'I' for Inactive)
REMARK    1  A    between atoms: O_1  and  C_2
REMARK                            x       y       z     vdW  Elec       q    Type
REMARK                         _______ _______ _______ _____ _____    ______ ____
ROOT
ATOM      1  C   UNL     1      -9.267  -0.011 123.083  0.00  0.00    +0.000 A 
ATOM      2  C   UNL     1      -8.459   1.086 123.390  0.00  0.00    +0.000 A 
ATOM      3 CL   UNL     1      -8.927   2.683 122.935  0.00  0.00    +0.000 Cl
ATOM      4  C   UNL     1      -7.273   0.911 124.090  0.00  0.00    +0.000 A 
ATOM      5  C   UNL     1      -6.899  -0.371 124.482  0.00  0.00    +0.000 A 
ATOM      6 CL   UNL     1      -5.426  -0.511 125.388  0.00  0.00    +0.000 Cl
ATOM      7  C   UNL     1      -7.724  -1.485 124.216  0.00  0.00    +0.000 A 
ATOM      8  C   UNL     1      -8.932  -1.308 123.493  0.00  0.00    +0.000 A 
ATOM      9  N   UNL     1      -9.761  -2.345 123.250  0.00  0.00    +0.000 NA
ATOM     10  C   UNL     1      -9.500  -3.539 123.817  0.00  0.00    +0.000 A 
ATOM     11  C   UNL     1      -8.389  -3.785 124.592  0.00  0.00    +0.000 A 
ATOM     12  C   UNL     1      -7.447  -2.777 124.700  0.00  0.00    +0.000 A 
ENDROOT
BRANCH   1  13
ATOM     13  O   UNL     1     -10.450   0.179 122.395  0.00  0.00    +0.000 OA
ATOM     14  H   UNL     1     -10.247   0.260 121.447  0.00  0.00    +0.000 HD
ENDBRANCH   1  13
TORSDOF 1
ENDMDL
MODEL 5
REMARK VINA RESULT:      -5.3      8.658      9.747
REMARK  Name = Chloroxine
REMARK  1 active torsions:
REMARK  status: ('A' for Active; 'I' for Inactive)
REMARK    1  A    between atoms: O_1  and  C_2
REMARK                            x       y       z     vdW  Elec       q    Type
REMARK                         _______ _______ _______ _____ _____    ______ ____
ROOT
ATOM      1  C   UNL     1      -9.185  -0.484 123.209  0.00  0.00    +0.000 A 
ATOM      2  C   UNL     1      -8.660  -1.689 123.682  0.00  0.00    +0.000 A 
ATOM      3 CL   UNL     1      -9.438  -3.188 123.334  0.00  0.00    +0.000 Cl
ATOM      4  C   UNL     1      -7.486  -1.700 124.423  0.00  0.00    +0.000 A 
ATOM      5  C   UNL     1      -6.840  -0.497 124.688  0.00  0.00    +0.000 A 
ATOM      6 CL   UNL     1      -5.356  -0.589 125.585  0.00  0.00    +0.000 Cl
ATOM      7  C   UNL     1      -7.334   0.725 124.183  0.00  0.00    +0.000 A 
ATOM      8  C   UNL     1      -8.538   0.738 123.432  0.00  0.00    +0.000 A 
ATOM      9  N   UNL     1      -9.022   1.883 122.905  0.00  0.00    +0.000 NA
ATOM     10  C   UNL     1      -8.280   3.005 122.983  0.00  0.00    +0.000 A 
ATOM     11  C   UNL     1      -7.066   3.069 123.629  0.00  0.00    +0.000 A 
ATOM     12  C   UNL     1      -6.648   1.946 124.321  0.00  0.00    +0.000 A 
ENDROOT
BRANCH   1  13
ATOM     13  O   UNL     1     -10.348  -0.488 122.463  0.00  0.00    +0.000 OA
ATOM     14  H   UNL     1     -10.126  -0.263 121.542  0.00  0.00    +0.000 HD
ENDBRANCH   1  13
TORSDOF 1
ENDMDL
MODEL 6
REMARK VINA RESULT:      -5.2      9.182     10.315
REMARK  Name = Chloroxine
REMARK  1 active torsions:
REMARK  status: ('A' for Active; 'I' for Inactive)
REMARK    1  A    between atoms: O_1  and  C_2
REMARK                            x       y       z     vdW  Elec       q    Type
REMARK                         _______ _______ _______ _____ _____    ______ ____
ROOT
ATOM      1  C   UNL     1      -7.498  -0.230 125.695  0.00  0.00    +0.000 A 
ATOM      2  C   UNL     1      -7.681  -0.153 124.312  0.00  0.00    +0.000 A 
ATOM      3 CL   UNL     1      -7.026   1.160 123.406  0.00  0.00    +0.000 Cl
ATOM      4  C   UNL     1      -8.376  -1.149 123.640  0.00  0.00    +0.000 A 
ATOM      5  C   UNL     1      -8.888  -2.224 124.360  0.00  0.00    +0.000 A 
ATOM      6 CL   UNL     1      -9.710  -3.453 123.451  0.00  0.00    +0.000 Cl
ATOM      7  C   UNL     1      -8.677  -2.338 125.751  0.00  0.00    +0.000 A 
ATOM      8  C   UNL     1      -7.973  -1.316 126.440  0.00  0.00    +0.000 A 
ATOM      9  N   UNL     1      -7.724  -1.408 127.764  0.00  0.00    +0.000 NA
ATOM     10  C   UNL     1      -8.032  -2.549 128.411  0.00  0.00    +0.000 A 
ATOM     11  C   UNL     1      -8.651  -3.621 127.807  0.00  0.00    +0.000 A 
ATOM     12  C   UNL     1      -9.067  -3.466 126.497  0.00  0.00    +0.000 A 
ENDROOT
BRANCH   1  13
ATOM     13  O   UNL     1      -6.795   0.763 126.350  0.00  0.00    +0.000 OA
ATOM     14  H   UNL     1      -7.426   1.437 126.658  0.00  0.00    +0.000 HD
ENDBRANCH   1  13
TORSDOF 1
ENDMDL
MODEL 7
REMARK VINA RESULT:      -5.1      9.851     10.349
REMARK  Name = Chloroxine
REMARK  1 active torsions:
REMARK  status: ('A' for Active; 'I' for Inactive)
REMARK    1  A    between atoms: O_1  and  C_2
REMARK                            x       y       z     vdW  Elec       q    Type
REMARK                         _______ _______ _______ _____ _____    ______ ____
ROOT
ATOM      1  C   UNL     1      -6.283  -1.497 126.085  0.00  0.00    +0.000 A 
ATOM      2  C   UNL     1      -6.355  -1.690 127.467  0.00  0.00    +0.000 A 
ATOM      3 CL   UNL     1      -5.252  -0.896 128.528  0.00  0.00    +0.000 Cl
ATOM      4  C   UNL     1      -7.334  -2.510 128.011  0.00  0.00    +0.000 A 
ATOM      5  C   UNL     1      -8.243  -3.136 127.164  0.00  0.00    +0.000 A 
ATOM      6 CL   UNL     1      -9.465  -4.114 127.915  0.00  0.00    +0.000 Cl
ATOM      7  C   UNL     1      -8.210  -2.920 125.769  0.00  0.00    +0.000 A 
ATOM      8  C   UNL     1      -7.204  -2.088 125.212  0.00  0.00    +0.000 A 
ATOM      9  N   UNL     1      -7.163  -1.832 123.887  0.00  0.00    +0.000 NA
ATOM     10  C   UNL     1      -8.170  -2.266 123.104  0.00  0.00    +0.000 A 
ATOM     11  C   UNL     1      -9.224  -3.018 123.571  0.00  0.00    +0.000 A 
ATOM     12  C   UNL     1      -9.182  -3.432 124.890  0.00  0.00    +0.000 A 
ENDROOT
BRANCH   1  13
ATOM     13  O   UNL     1      -5.310  -0.670 125.558  0.00  0.00    +0.000 OA
ATOM     14  H   UNL     1      -5.701   0.209 125.407  0.00  0.00    +0.000 HD
ENDBRANCH   1  13
TORSDOF 1
ENDMDL
MODEL 8
REMARK VINA RESULT:      -5.0     10.214     10.608
REMARK  Name = Chloroxine
REMARK  1 active torsions:
REMARK  status: ('A' for Active; 'I' for Inactive)
REMARK    1  A    between atoms: O_1  and  C_2
REMARK                            x       y       z     vdW  Elec       q    Type
REMARK                         _______ _______ _______ _____ _____    ______ ____
ROOT
ATOM      1  C   UNL     1      -8.629  -3.149 127.010  0.00  0.00    +0.000 A 
ATOM      2  C   UNL     1      -7.610  -2.764 127.884  0.00  0.00    +0.000 A 
ATOM      3 CL   UNL     1      -7.618  -3.274 129.531  0.00  0.00    +0.000 Cl
ATOM      4  C   UNL     1      -6.557  -1.980 127.432  0.00  0.00    +0.000 A 
ATOM      5  C   UNL     1      -6.530  -1.583 126.099  0.00  0.00    +0.000 A 
ATOM      6 CL   UNL     1      -5.164  -0.639 125.593  0.00  0.00    +0.000 Cl
ATOM      7  C   UNL     1      -7.530  -1.998 125.193  0.00  0.00    +0.000 A 
ATOM      8  C   UNL     1      -8.610  -2.793 125.656  0.00  0.00    +0.000 A 
ATOM      9  N   UNL     1      -9.566  -3.235 124.812  0.00  0.00    +0.000 NA
ATOM     10  C   UNL     1      -9.418  -3.029 123.488  0.00  0.00    +0.000 A 
ATOM     11  C   UNL     1      -8.364  -2.331 122.942  0.00  0.00    +0.000 A 
ATOM     12  C   UNL     1      -7.477  -1.725 123.814  0.00  0.00    +0.000 A 
ENDROOT
BRANCH   1  13
ATOM     13  O   UNL     1      -9.665  -3.939 127.471  0.00  0.00    +0.000 OA
ATOM     14  H   UNL     1     -10.504  -3.575 127.135  0.00  0.00    +0.000 HD
ENDBRANCH   1  13
TORSDOF 1
ENDMDL
MODEL 9
REMARK VINA RESULT:      -5.0      9.076      9.563
REMARK  Name = Chloroxine
REMARK  1 active torsions:
REMARK  status: ('A' for Active; 'I' for Inactive)
REMARK    1  A    between atoms: O_1  and  C_2
REMARK                            x       y       z     vdW  Elec       q    Type
REMARK                         _______ _______ _______ _____ _____    ______ ____
ROOT
ATOM      1  C   UNL     1      -9.097  -2.292 125.993  0.00  0.00    +0.000 A 
ATOM      2  C   UNL     1      -8.409  -2.711 127.134  0.00  0.00    +0.000 A 
ATOM      3 CL   UNL     1      -8.928  -4.098 128.019  0.00  0.00    +0.000 Cl
ATOM      4  C   UNL     1      -7.278  -2.029 127.562  0.00  0.00    +0.000 A 
ATOM      5  C   UNL     1      -6.838  -0.924 126.841  0.00  0.00    +0.000 A 
ATOM      6 CL   UNL     1      -5.396  -0.144 127.409  0.00  0.00    +0.000 Cl
ATOM      7  C   UNL     1      -7.497  -0.512 125.663  0.00  0.00    +0.000 A 
ATOM      8  C   UNL     1      -8.658  -1.203 125.229  0.00  0.00    +0.000 A 
ATOM      9  N   UNL     1      -9.294  -0.858 124.089  0.00  0.00    +0.000 NA
ATOM     10  C   UNL     1      -8.740   0.071 123.285  0.00  0.00    +0.000 A 
ATOM     11  C   UNL     1      -7.578   0.743 123.591  0.00  0.00    +0.000 A 
ATOM     12  C   UNL     1      -7.017   0.521 124.836  0.00  0.00    +0.000 A 
ENDROOT
BRANCH   1  13
ATOM     13  O   UNL     1     -10.215  -2.987 125.571  0.00  0.00    +0.000 OA
ATOM     14  H   UNL     1      -9.961  -3.913 125.412  0.00  0.00    +0.000 HD
ENDBRANCH   1  13
TORSDOF 1
ENDMDL
