MODEL 1
REMARK VINA RESULT:      -6.5      0.000      0.000
REMARK  Name = Chlorpheniramine
REMARK  7 active torsions:
REMARK  status: ('A' for Active; 'I' for Inactive)
REMARK    1  A    between atoms: C_1  and  N_2
REMARK    2  A    between atoms: N_2  and  C_3
REMARK    3  A    between atoms: N_2  and  C_4
REMARK    4  A    between atoms: C_4  and  C_5
REMARK    5  A    between atoms: C_5  and  C_6
REMARK    6  A    between atoms: C_6  and  C_7
REMARK    7  A    between atoms: C_6  and  C_14
REMARK                            x       y       z     vdW  Elec       q    Type
REMARK                         _______ _______ _______ _____ _____    ______ ____
ROOT
ATOM      1  C   UNL     1      -7.603   1.851 123.850  0.00  0.00    +0.000 C 
ENDROOT
BRANCH   1   2
ATOM      2  C   UNL     1      -7.454   2.744 122.616  0.00  0.00    +0.000 A 
ATOM      3  C   UNL     1      -8.616   3.147 121.938  0.00  0.00    +0.000 A 
ATOM      4  C   UNL     1      -8.520   3.762 120.691  0.00  0.00    +0.000 A 
ATOM      5  C   UNL     1      -7.268   4.042 120.146  0.00  0.00    +0.000 A 
ATOM      6 CL   UNL     1      -7.149   4.766 118.593  0.00  0.00    +0.000 Cl
ATOM      7  C   UNL     1      -6.108   3.703 120.828  0.00  0.00    +0.000 A 
ATOM      8  C   UNL     1      -6.203   3.027 122.037  0.00  0.00    +0.000 A 
ENDBRANCH   1   2
BRANCH   1   9
ATOM      9  C   UNL     1      -7.831   0.383 123.458  0.00  0.00    +0.000 A 
ATOM     10  C   UNL     1      -6.740  -0.465 123.226  0.00  0.00    +0.000 A 
ATOM     11  C   UNL     1      -6.962  -1.769 122.801  0.00  0.00    +0.000 A 
ATOM     12  C   UNL     1      -8.260  -2.219 122.672  0.00  0.00    +0.000 A 
ATOM     13  C   UNL     1      -9.293  -1.341 122.962  0.00  0.00    +0.000 A 
ATOM     14  N   UNL     1      -9.108  -0.049 123.338  0.00  0.00    +0.000 NA
ENDBRANCH   1   9
BRANCH   1  15
ATOM     15  C   UNL     1      -6.418   1.921 124.825  0.00  0.00    +0.000 C 
BRANCH  15  16
ATOM     16  C   UNL     1      -6.571   3.050 125.858  0.00  0.00    +0.000 C 
BRANCH  16  18
ATOM     17  C   UNL     1      -6.240   5.291 125.081  0.00  0.00    +0.000 C 
ATOM     18  N   UNL     1      -5.579   4.114 125.653  0.00  0.00    +0.000 NA
ATOM     19  C   UNL     1      -4.931   4.463 126.916  0.00  0.00    +0.000 C 
ENDBRANCH  16  18
ENDBRANCH  15  16
ENDBRANCH   1  15
TORSDOF 5
ENDMDL
MODEL 2
REMARK VINA RESULT:      -6.3      8.370      9.531
REMARK  Name = Chlorpheniramine
REMARK  7 active torsions:
REMARK  status: ('A' for Active; 'I' for Inactive)
REMARK    1  A    between atoms: C_1  and  N_2
REMARK    2  A    between atoms: N_2  and  C_3
REMARK    3  A    between atoms: N_2  and  C_4
REMARK    4  A    between atoms: C_4  and  C_5
REMARK    5  A    between atoms: C_5  and  C_6
REMARK    6  A    between atoms: C_6  and  C_7
REMARK    7  A    between atoms: C_6  and  C_14
REMARK                            x       y       z     vdW  Elec       q    Type
REMARK                         _______ _______ _______ _____ _____    ______ ____
ROOT
ATOM      1  C   UNL     1      -9.150   6.406 131.592  0.00  0.00    +0.000 C 
ENDROOT
BRANCH   1   2
ATOM      2  C   UNL     1     -10.302   6.912 130.721  0.00  0.00    +0.000 A 
ATOM      3  C   UNL     1      -9.994   7.563 129.516  0.00  0.00    +0.000 A 
ATOM      4  C   UNL     1     -10.990   8.236 128.811  0.00  0.00    +0.000 A 
ATOM      5  C   UNL     1     -12.308   8.205 129.264  0.00  0.00    +0.000 A 
ATOM      6 CL   UNL     1     -13.530   9.065 128.415  0.00  0.00    +0.000 Cl
ATOM      7  C   UNL     1     -12.642   7.517 130.422  0.00  0.00    +0.000 A 
ATOM      8  C   UNL     1     -11.639   6.906 131.163  0.00  0.00    +0.000 A 
ENDBRANCH   1   2
BRANCH   1   9
ATOM      9  C   UNL     1      -9.255   4.894 131.844  0.00  0.00    +0.000 A 
ATOM     10  C   UNL     1      -9.266   4.393 133.153  0.00  0.00    +0.000 A 
ATOM     11  C   UNL     1      -9.287   3.021 133.362  0.00  0.00    +0.000 A 
ATOM     12  C   UNL     1      -9.354   2.178 132.272  0.00  0.00    +0.000 A 
ATOM     13  C   UNL     1      -9.386   2.741 131.005  0.00  0.00    +0.000 A 
ATOM     14  N   UNL     1      -9.325   4.077 130.767  0.00  0.00    +0.000 NA
ENDBRANCH   1   9
BRANCH   1  15
ATOM     15  C   UNL     1      -7.753   6.714 131.031  0.00  0.00    +0.000 C 
BRANCH  15  16
ATOM     16  C   UNL     1      -6.627   6.293 131.991  0.00  0.00    +0.000 C 
BRANCH  16  18
ATOM     17  C   UNL     1      -5.708   5.004 130.195  0.00  0.00    +0.000 C 
ATOM     18  N   UNL     1      -5.394   5.951 131.268  0.00  0.00    +0.000 NA
ATOM     19  C   UNL     1      -4.773   7.153 130.715  0.00  0.00    +0.000 C 
ENDBRANCH  16  18
ENDBRANCH  15  16
ENDBRANCH   1  15
TORSDOF 5
ENDMDL
MODEL 3
REMARK VINA RESULT:      -6.1      8.112      9.655
REMARK  Name = Chlorpheniramine
REMARK  7 active torsions:
REMARK  status: ('A' for Active; 'I' for Inactive)
REMARK    1  A    between atoms: C_1  and  N_2
REMARK    2  A    between atoms: N_2  and  C_3
REMARK    3  A    between atoms: N_2  and  C_4
REMARK    4  A    between atoms: C_4  and  C_5
REMARK    5  A    between atoms: C_5  and  C_6
REMARK    6  A    between atoms: C_6  and  C_7
REMARK    7  A    between atoms: C_6  and  C_14
REMARK                            x       y       z     vdW  Elec       q    Type
REMARK                         _______ _______ _______ _____ _____    ______ ____
ROOT
ATOM      1  C   UNL     1      -9.811   5.356 129.925  0.00  0.00    +0.000 C 
ENDROOT
BRANCH   1   2
ATOM      2  C   UNL     1     -10.603   6.650 129.723  0.00  0.00    +0.000 A 
ATOM      3  C   UNL     1     -11.653   6.937 130.610  0.00  0.00    +0.000 A 
ATOM      4  C   UNL     1     -12.539   7.976 130.331  0.00  0.00    +0.000 A 
ATOM      5  C   UNL     1     -12.343   8.777 129.207  0.00  0.00    +0.000 A 
ATOM      6 CL   UNL     1     -13.456  10.035 128.842  0.00  0.00    +0.000 Cl
ATOM      7  C   UNL     1     -11.276   8.545 128.350  0.00  0.00    +0.000 A 
ATOM      8  C   UNL     1     -10.435   7.467 128.589  0.00  0.00    +0.000 A 
ENDBRANCH   1   2
BRANCH   1   9
ATOM      9  C   UNL     1      -8.331   5.641 130.222  0.00  0.00    +0.000 A 
ATOM     10  C   UNL     1      -7.973   6.599 131.181  0.00  0.00    +0.000 A 
ATOM     11  C   UNL     1      -6.632   6.897 131.384  0.00  0.00    +0.000 A 
ATOM     12  C   UNL     1      -5.675   6.201 130.675  0.00  0.00    +0.000 A 
ATOM     13  C   UNL     1      -6.097   5.235 129.774  0.00  0.00    +0.000 A 
ATOM     14  N   UNL     1      -7.400   4.949 129.523  0.00  0.00    +0.000 NA
ENDBRANCH   1   9
BRANCH   1  15
ATOM     15  C   UNL     1     -10.366   4.443 131.029  0.00  0.00    +0.000 C 
BRANCH  15  16
ATOM     16  C   UNL     1     -10.105   2.953 130.747  0.00  0.00    +0.000 C 
BRANCH  16  18
ATOM     17  C   UNL     1      -9.228   3.061 132.973  0.00  0.00    +0.000 C 
ATOM     18  N   UNL     1      -9.117   2.388 131.676  0.00  0.00    +0.000 NA
ATOM     19  C   UNL     1      -9.326   0.950 131.834  0.00  0.00    +0.000 C 
ENDBRANCH  16  18
ENDBRANCH  15  16
ENDBRANCH   1  15
TORSDOF 5
ENDMDL
MODEL 4
REMARK VINA RESULT:      -6.0      2.886      4.955
REMARK  Name = Chlorpheniramine
REMARK  7 active torsions:
REMARK  status: ('A' for Active; 'I' for Inactive)
REMARK    1  A    between atoms: C_1  and  N_2
REMARK    2  A    between atoms: N_2  and  C_3
REMARK    3  A    between atoms: N_2  and  C_4
REMARK    4  A    between atoms: C_4  and  C_5
REMARK    5  A    between atoms: C_5  and  C_6
REMARK    6  A    between atoms: C_6  and  C_7
REMARK    7  A    between atoms: C_6  and  C_14
REMARK                            x       y       z     vdW  Elec       q    Type
REMARK                         _______ _______ _______ _____ _____    ______ ____
ROOT
ATOM      1  C   UNL     1      -7.292   2.283 123.774  0.00  0.00    +0.000 C 
ENDROOT
BRANCH   1   2
ATOM      2  C   UNL     1      -7.651   0.796 123.749  0.00  0.00    +0.000 A 
ATOM      3  C   UNL     1      -8.765   0.363 124.487  0.00  0.00    +0.000 A 
ATOM      4  C   UNL     1      -8.991  -0.998 124.678  0.00  0.00    +0.000 A 
ATOM      5  C   UNL     1      -8.152  -1.936 124.077  0.00  0.00    +0.000 A 
ATOM      6 CL   UNL     1      -8.408  -3.614 124.342  0.00  0.00    +0.000 Cl
ATOM      7  C   UNL     1      -7.080  -1.528 123.296  0.00  0.00    +0.000 A 
ATOM      8  C   UNL     1      -6.812  -0.172 123.164  0.00  0.00    +0.000 A 
ENDBRANCH   1   2
BRANCH   1   9
ATOM      9  C   UNL     1      -7.437   2.922 122.384  0.00  0.00    +0.000 A 
ATOM     10  C   UNL     1      -6.301   3.230 121.625  0.00  0.00    +0.000 A 
ATOM     11  C   UNL     1      -6.446   3.874 120.403  0.00  0.00    +0.000 A 
ATOM     12  C   UNL     1      -7.715   4.146 119.936  0.00  0.00    +0.000 A 
ATOM     13  C   UNL     1      -8.799   3.774 120.717  0.00  0.00    +0.000 A 
ATOM     14  N   UNL     1      -8.688   3.181 121.934  0.00  0.00    +0.000 NA
ENDBRANCH   1   9
BRANCH   1  15
ATOM     15  C   UNL     1      -8.105   3.111 124.782  0.00  0.00    +0.000 C 
BRANCH  15  16
ATOM     16  C   UNL     1      -7.380   3.279 126.127  0.00  0.00    +0.000 C 
BRANCH  16  18
ATOM     17  C   UNL     1      -8.314   1.809 127.770  0.00  0.00    +0.000 C 
ATOM     18  N   UNL     1      -8.308   3.183 127.262  0.00  0.00    +0.000 NA
ATOM     19  C   UNL     1      -7.920   4.112 128.323  0.00  0.00    +0.000 C 
ENDBRANCH  16  18
ENDBRANCH  15  16
ENDBRANCH   1  15
TORSDOF 5
ENDMDL
MODEL 5
REMARK VINA RESULT:      -5.9      7.415      8.780
REMARK  Name = Chlorpheniramine
REMARK  7 active torsions:
REMARK  status: ('A' for Active; 'I' for Inactive)
REMARK    1  A    between atoms: C_1  and  N_2
REMARK    2  A    between atoms: N_2  and  C_3
REMARK    3  A    between atoms: N_2  and  C_4
REMARK    4  A    between atoms: C_4  and  C_5
REMARK    5  A    between atoms: C_5  and  C_6
REMARK    6  A    between atoms: C_6  and  C_7
REMARK    7  A    between atoms: C_6  and  C_14
REMARK                            x       y       z     vdW  Elec       q    Type
REMARK                         _______ _______ _______ _____ _____    ______ ____
ROOT
ATOM      1  C   UNL     1      -7.766  -2.104 130.198  0.00  0.00    +0.000 C 
ENDROOT
BRANCH   1   2
ATOM      2  C   UNL     1      -7.901  -2.624 128.765  0.00  0.00    +0.000 A 
ATOM      3  C   UNL     1      -7.214  -1.951 127.742  0.00  0.00    +0.000 A 
ATOM      4  C   UNL     1      -7.486  -2.244 126.408  0.00  0.00    +0.000 A 
ATOM      5  C   UNL     1      -8.391  -3.255 126.086  0.00  0.00    +0.000 A 
ATOM      6 CL   UNL     1      -8.755  -3.592 124.441  0.00  0.00    +0.000 Cl
ATOM      7  C   UNL     1      -9.037  -3.971 127.084  0.00  0.00    +0.000 A 
ATOM      8  C   UNL     1      -8.819  -3.632 128.413  0.00  0.00    +0.000 A 
ENDBRANCH   1   2
BRANCH   1   9
ATOM      9  C   UNL     1      -6.951  -3.069 131.074  0.00  0.00    +0.000 A 
ATOM     10  C   UNL     1      -6.091  -4.005 130.484  0.00  0.00    +0.000 A 
ATOM     11  C   UNL     1      -5.418  -4.919 131.285  0.00  0.00    +0.000 A 
ATOM     12  C   UNL     1      -5.569  -4.847 132.654  0.00  0.00    +0.000 A 
ATOM     13  C   UNL     1      -6.400  -3.867 133.175  0.00  0.00    +0.000 A 
ATOM     14  N   UNL     1      -7.103  -2.987 132.417  0.00  0.00    +0.000 NA
ENDBRANCH   1   9
BRANCH   1  15
ATOM     15  C   UNL     1      -7.146  -0.702 130.305  0.00  0.00    +0.000 C 
BRANCH  15  16
ATOM     16  C   UNL     1      -8.206   0.399 130.479  0.00  0.00    +0.000 C 
BRANCH  16  18
ATOM     17  C   UNL     1      -7.523   0.825 132.734  0.00  0.00    +0.000 C 
ATOM     18  N   UNL     1      -8.662   0.501 131.872  0.00  0.00    +0.000 NA
ATOM     19  C   UNL     1      -9.699   1.524 131.999  0.00  0.00    +0.000 C 
ENDBRANCH  16  18
ENDBRANCH  15  16
ENDBRANCH   1  15
TORSDOF 5
ENDMDL
MODEL 6
REMARK VINA RESULT:      -5.8      2.629      5.532
REMARK  Name = Chlorpheniramine
REMARK  7 active torsions:
REMARK  status: ('A' for Active; 'I' for Inactive)
REMARK    1  A    between atoms: C_1  and  N_2
REMARK    2  A    between atoms: N_2  and  C_3
REMARK    3  A    between atoms: N_2  and  C_4
REMARK    4  A    between atoms: C_4  and  C_5
REMARK    5  A    between atoms: C_5  and  C_6
REMARK    6  A    between atoms: C_6  and  C_7
REMARK    7  A    between atoms: C_6  and  C_14
REMARK                            x       y       z     vdW  Elec       q    Type
REMARK                         _______ _______ _______ _____ _____    ______ ____
ROOT
ATOM      1  C   UNL     1      -7.544   2.151 123.741  0.00  0.00    +0.000 C 
ENDROOT
BRANCH   1   2
ATOM      2  C   UNL     1      -6.670   2.854 124.782  0.00  0.00    +0.000 A 
ATOM      3  C   UNL     1      -6.751   4.251 124.891  0.00  0.00    +0.000 A 
ATOM      4  C   UNL     1      -5.818   4.948 125.655  0.00  0.00    +0.000 A 
ATOM      5  C   UNL     1      -4.843   4.254 126.370  0.00  0.00    +0.000 A 
ATOM      6 CL   UNL     1      -3.670   5.114 127.283  0.00  0.00    +0.000 Cl
ATOM      7  C   UNL     1      -4.784   2.868 126.322  0.00  0.00    +0.000 A 
ATOM      8  C   UNL     1      -5.669   2.177 125.504  0.00  0.00    +0.000 A 
ENDBRANCH   1   2
BRANCH   1   9
ATOM      9  C   UNL     1      -7.433   2.825 122.364  0.00  0.00    +0.000 A 
ATOM     10  C   UNL     1      -6.180   3.008 121.764  0.00  0.00    +0.000 A 
ATOM     11  C   UNL     1      -6.090   3.685 120.555  0.00  0.00    +0.000 A 
ATOM     12  C   UNL     1      -7.248   4.115 119.941  0.00  0.00    +0.000 A 
ATOM     13  C   UNL     1      -8.459   3.862 120.567  0.00  0.00    +0.000 A 
ATOM     14  N   UNL     1      -8.576   3.240 121.769  0.00  0.00    +0.000 NA
ENDBRANCH   1   9
BRANCH   1  15
ATOM     15  C   UNL     1      -7.250   0.652 123.577  0.00  0.00    +0.000 C 
BRANCH  15  16
ATOM     16  C   UNL     1      -8.532  -0.193 123.483  0.00  0.00    +0.000 C 
BRANCH  16  18
ATOM     17  C   UNL     1      -8.806  -1.512 125.463  0.00  0.00    +0.000 C 
ATOM     18  N   UNL     1      -8.350  -1.527 124.071  0.00  0.00    +0.000 NA
ATOM     19  C   UNL     1      -9.091  -2.530 123.308  0.00  0.00    +0.000 C 
ENDBRANCH  16  18
ENDBRANCH  15  16
ENDBRANCH   1  15
TORSDOF 5
ENDMDL
MODEL 7
REMARK VINA RESULT:      -5.8      8.526     10.561
REMARK  Name = Chlorpheniramine
REMARK  7 active torsions:
REMARK  status: ('A' for Active; 'I' for Inactive)
REMARK    1  A    between atoms: C_1  and  N_2
REMARK    2  A    between atoms: N_2  and  C_3
REMARK    3  A    between atoms: N_2  and  C_4
REMARK    4  A    between atoms: C_4  and  C_5
REMARK    5  A    between atoms: C_5  and  C_6
REMARK    6  A    between atoms: C_6  and  C_7
REMARK    7  A    between atoms: C_6  and  C_14
REMARK                            x       y       z     vdW  Elec       q    Type
REMARK                         _______ _______ _______ _____ _____    ______ ____
ROOT
ATOM      1  C   UNL     1      -8.524   6.207 131.768  0.00  0.00    +0.000 C 
ENDROOT
BRANCH   1   2
ATOM      2  C   UNL     1      -8.866   4.716 131.726  0.00  0.00    +0.000 A 
ATOM      3  C   UNL     1      -9.247   4.083 132.919  0.00  0.00    +0.000 A 
ATOM      4  C   UNL     1      -9.343   2.694 132.974  0.00  0.00    +0.000 A 
ATOM      5  C   UNL     1      -9.129   1.934 131.825  0.00  0.00    +0.000 A 
ATOM      6 CL   UNL     1      -9.210   0.220 131.900  0.00  0.00    +0.000 Cl
ATOM      7  C   UNL     1      -8.807   2.546 130.621  0.00  0.00    +0.000 A 
ATOM      8  C   UNL     1      -8.642   3.925 130.583  0.00  0.00    +0.000 A 
ENDBRANCH   1   2
BRANCH   1   9
ATOM      9  C   UNL     1      -7.008   6.441 131.688  0.00  0.00    +0.000 A 
ATOM     10  C   UNL     1      -6.161   5.948 132.691  0.00  0.00    +0.000 A 
ATOM     11  C   UNL     1      -4.803   6.231 132.642  0.00  0.00    +0.000 A 
ATOM     12  C   UNL     1      -4.306   6.946 131.573  0.00  0.00    +0.000 A 
ATOM     13  C   UNL     1      -5.191   7.366 130.592  0.00  0.00    +0.000 A 
ATOM     14  N   UNL     1      -6.530   7.141 130.633  0.00  0.00    +0.000 NA
ENDBRANCH   1   9
BRANCH   1  15
ATOM     15  C   UNL     1      -9.207   7.043 130.674  0.00  0.00    +0.000 C 
BRANCH  15  16
ATOM     16  C   UNL     1     -10.740   6.928 130.717  0.00  0.00    +0.000 C 
BRANCH  16  18
ATOM     17  C   UNL     1     -12.535   8.199 129.769  0.00  0.00    +0.000 C 
ATOM     18  N   UNL     1     -11.356   7.385 129.463  0.00  0.00    +0.000 NA
ATOM     19  C   UNL     1     -10.399   8.159 128.674  0.00  0.00    +0.000 C 
ENDBRANCH  16  18
ENDBRANCH  15  16
ENDBRANCH   1  15
TORSDOF 5
ENDMDL
MODEL 8
REMARK VINA RESULT:      -5.8      4.729      6.804
REMARK  Name = Chlorpheniramine
REMARK  7 active torsions:
REMARK  status: ('A' for Active; 'I' for Inactive)
REMARK    1  A    between atoms: C_1  and  N_2
REMARK    2  A    between atoms: N_2  and  C_3
REMARK    3  A    between atoms: N_2  and  C_4
REMARK    4  A    between atoms: C_4  and  C_5
REMARK    5  A    between atoms: C_5  and  C_6
REMARK    6  A    between atoms: C_6  and  C_7
REMARK    7  A    between atoms: C_6  and  C_14
REMARK                            x       y       z     vdW  Elec       q    Type
REMARK                         _______ _______ _______ _____ _____    ______ ____
ROOT
ATOM      1  C   UNL     1      -8.245  -1.450 126.444  0.00  0.00    +0.000 C 
ENDROOT
BRANCH   1   2
ATOM      2  C   UNL     1      -7.237  -2.144 125.524  0.00  0.00    +0.000 A 
ATOM      3  C   UNL     1      -7.669  -3.247 124.770  0.00  0.00    +0.000 A 
ATOM      4  C   UNL     1      -6.741  -4.043 124.102  0.00  0.00    +0.000 A 
ATOM      5  C   UNL     1      -5.388  -3.706 124.125  0.00  0.00    +0.000 A 
ATOM      6 CL   UNL     1      -4.238  -4.707 123.333  0.00  0.00    +0.000 Cl
ATOM      7  C   UNL     1      -4.949  -2.586 124.817  0.00  0.00    +0.000 A 
ATOM      8  C   UNL     1      -5.864  -1.833 125.541  0.00  0.00    +0.000 A 
ENDBRANCH   1   2
BRANCH   1   9
ATOM      9  C   UNL     1      -7.947  -1.736 127.924  0.00  0.00    +0.000 A 
ATOM     10  C   UNL     1      -8.112  -3.027 128.443  0.00  0.00    +0.000 A 
ATOM     11  C   UNL     1      -7.910  -3.253 129.798  0.00  0.00    +0.000 A 
ATOM     12  C   UNL     1      -7.495  -2.207 130.596  0.00  0.00    +0.000 A 
ATOM     13  C   UNL     1      -7.308  -0.965 130.010  0.00  0.00    +0.000 A 
ATOM     14  N   UNL     1      -7.537  -0.703 128.697  0.00  0.00    +0.000 NA
ENDBRANCH   1   9
BRANCH   1  15
ATOM     15  C   UNL     1      -8.336   0.071 126.247  0.00  0.00    +0.000 C 
BRANCH  15  16
ATOM     16  C   UNL     1      -8.362   0.472 124.762  0.00  0.00    +0.000 C 
BRANCH  16  18
ATOM     17  C   UNL     1     -10.381   1.450 123.925  0.00  0.00    +0.000 C 
ATOM     18  N   UNL     1      -9.665   0.190 124.144  0.00  0.00    +0.000 NA
ATOM     19  C   UNL     1      -9.489  -0.518 122.877  0.00  0.00    +0.000 C 
ENDBRANCH  16  18
ENDBRANCH  15  16
ENDBRANCH   1  15
TORSDOF 5
ENDMDL
MODEL 9
REMARK VINA RESULT:      -5.8      1.329      4.472
REMARK  Name = Chlorpheniramine
REMARK  7 active torsions:
REMARK  status: ('A' for Active; 'I' for Inactive)
REMARK    1  A    between atoms: C_1  and  N_2
REMARK    2  A    between atoms: N_2  and  C_3
REMARK    3  A    between atoms: N_2  and  C_4
REMARK    4  A    between atoms: C_4  and  C_5
REMARK    5  A    between atoms: C_5  and  C_6
REMARK    6  A    between atoms: C_6  and  C_7
REMARK    7  A    between atoms: C_6  and  C_14
REMARK                            x       y       z     vdW  Elec       q    Type
REMARK                         _______ _______ _______ _____ _____    ______ ____
ROOT
ATOM      1  C   UNL     1      -7.212   2.302 123.998  0.00  0.00    +0.000 C 
ENDROOT
BRANCH   1   2
ATOM      2  C   UNL     1      -7.241   3.045 122.661  0.00  0.00    +0.000 A 
ATOM      3  C   UNL     1      -8.485   3.279 122.053  0.00  0.00    +0.000 A 
ATOM      4  C   UNL     1      -8.545   3.742 120.740  0.00  0.00    +0.000 A 
ATOM      5  C   UNL     1      -7.370   4.040 120.051  0.00  0.00    +0.000 A 
ATOM      6 CL   UNL     1      -7.441   4.576 118.420  0.00  0.00    +0.000 Cl
ATOM      7  C   UNL     1      -6.132   3.871 120.656  0.00  0.00    +0.000 A 
ATOM      8  C   UNL     1      -6.070   3.342 121.939  0.00  0.00    +0.000 A 
ENDBRANCH   1   2
BRANCH   1   9
ATOM      9  C   UNL     1      -6.232   2.955 124.985  0.00  0.00    +0.000 A 
ATOM     10  C   UNL     1      -6.291   4.333 125.233  0.00  0.00    +0.000 A 
ATOM     11  C   UNL     1      -5.352   4.921 126.070  0.00  0.00    +0.000 A 
ATOM     12  C   UNL     1      -4.412   4.121 126.688  0.00  0.00    +0.000 A 
ATOM     13  C   UNL     1      -4.438   2.758 126.434  0.00  0.00    +0.000 A 
ATOM     14  N   UNL     1      -5.317   2.161 125.589  0.00  0.00    +0.000 NA
ENDBRANCH   1   9
BRANCH   1  15
ATOM     15  C   UNL     1      -8.583   2.175 124.680  0.00  0.00    +0.000 C 
BRANCH  15  16
ATOM     16  C   UNL     1      -8.683   0.928 125.576  0.00  0.00    +0.000 C 
BRANCH  16  18
ATOM     17  C   UNL     1      -7.412  -1.041 126.067  0.00  0.00    +0.000 C 
ATOM     18  N   UNL     1      -7.975  -0.220 124.992  0.00  0.00    +0.000 NA
ATOM     19  C   UNL     1      -8.884  -1.018 124.170  0.00  0.00    +0.000 C 
ENDBRANCH  16  18
ENDBRANCH  15  16
ENDBRANCH   1  15
TORSDOF 5
ENDMDL
