MODEL 1
REMARK VINA RESULT:      -3.5      0.000      0.000
REMARK  Name = Choline
REMARK  6 active torsions:
REMARK  status: ('A' for Active; 'I' for Inactive)
REMARK    1  A    between atoms: C_1  and  N_2
REMARK    2  A    between atoms: N_2  and  C_3
REMARK    3  A    between atoms: N_2  and  C_4
REMARK    4  A    between atoms: N_2  and  C_5
REMARK    5  A    between atoms: C_5  and  C_6
REMARK    6  A    between atoms: C_6  and  O_7
REMARK                            x       y       z     vdW  Elec       q    Type
REMARK                         _______ _______ _______ _____ _____    ______ ____
ROOT
ATOM      1  C   UNL     1     -13.505   7.182 128.209  0.00  0.00    +0.000 C 
ATOM      2  N   UNL     1     -12.706   8.355 128.784  0.00  0.00    +0.000 N 
ATOM      3  C   UNL     1     -12.449   8.076 130.262  0.00  0.00    +0.000 C 
ATOM      4  C   UNL     1     -11.386   8.451 128.032  0.00  0.00    +0.000 C 
ENDROOT
BRANCH   2   5
ATOM      5  C   UNL     1     -13.536   9.638 128.612  0.00  0.00    +0.000 C 
BRANCH   5   6
ATOM      6  C   UNL     1     -13.440  10.613 129.795  0.00  0.00    +0.000 C 
BRANCH   6   7
ATOM      7  O   UNL     1     -13.224  11.935 129.323  0.00  0.00    +0.000 OA
ATOM      8  H   UNL     1     -13.507  12.571 130.003  0.00  0.00    +0.000 HD
ENDBRANCH   6   7
ENDBRANCH   5   6
ENDBRANCH   2   5
TORSDOF 3
ENDMDL
MODEL 2
REMARK VINA RESULT:      -3.4      2.856      3.738
REMARK  Name = Choline
REMARK  6 active torsions:
REMARK  status: ('A' for Active; 'I' for Inactive)
REMARK    1  A    between atoms: C_1  and  N_2
REMARK    2  A    between atoms: N_2  and  C_3
REMARK    3  A    between atoms: N_2  and  C_4
REMARK    4  A    between atoms: N_2  and  C_5
REMARK    5  A    between atoms: C_5  and  C_6
REMARK    6  A    between atoms: C_6  and  O_7
REMARK                            x       y       z     vdW  Elec       q    Type
REMARK                         _______ _______ _______ _____ _____    ______ ____
ROOT
ATOM      1  C   UNL     1     -12.660   9.049 129.471  0.00  0.00    +0.000 C 
ATOM      2  N   UNL     1     -12.317   7.826 128.617  0.00  0.00    +0.000 N 
ATOM      3  C   UNL     1     -12.109   6.637 129.550  0.00  0.00    +0.000 C 
ATOM      4  C   UNL     1     -13.484   7.556 127.677  0.00  0.00    +0.000 C 
ENDROOT
BRANCH   2   5
ATOM      5  C   UNL     1     -11.031   8.129 127.830  0.00  0.00    +0.000 C 
BRANCH   5   6
ATOM      6  C   UNL     1     -11.056   7.641 126.373  0.00  0.00    +0.000 C 
BRANCH   6   7
ATOM      7  O   UNL     1     -10.385   6.395 126.262  0.00  0.00    +0.000 OA
ATOM      8  H   UNL     1      -9.426   6.536 126.342  0.00  0.00    +0.000 HD
ENDBRANCH   6   7
ENDBRANCH   5   6
ENDBRANCH   2   5
TORSDOF 3
ENDMDL
MODEL 3
REMARK VINA RESULT:      -3.4      2.731      3.616
REMARK  Name = Choline
REMARK  6 active torsions:
REMARK  status: ('A' for Active; 'I' for Inactive)
REMARK    1  A    between atoms: C_1  and  N_2
REMARK    2  A    between atoms: N_2  and  C_3
REMARK    3  A    between atoms: N_2  and  C_4
REMARK    4  A    between atoms: N_2  and  C_5
REMARK    5  A    between atoms: C_5  and  C_6
REMARK    6  A    between atoms: C_6  and  O_7
REMARK                            x       y       z     vdW  Elec       q    Type
REMARK                         _______ _______ _______ _____ _____    ______ ____
ROOT
ATOM      1  C   UNL     1     -13.486   7.180 127.917  0.00  0.00    +0.000 C 
ATOM      2  N   UNL     1     -12.473   8.034 128.683  0.00  0.00    +0.000 N 
ATOM      3  C   UNL     1     -13.067   9.427 128.867  0.00  0.00    +0.000 C 
ATOM      4  C   UNL     1     -12.226   7.386 130.039  0.00  0.00    +0.000 C 
ENDROOT
BRANCH   2   5
ATOM      5  C   UNL     1     -11.176   8.103 127.859  0.00  0.00    +0.000 C 
BRANCH   5   6
ATOM      6  C   UNL     1     -11.303   7.535 126.438  0.00  0.00    +0.000 C 
BRANCH   6   7
ATOM      7  O   UNL     1     -10.429   6.427 126.273  0.00  0.00    +0.000 OA
ATOM      8  H   UNL     1     -10.931   5.668 125.933  0.00  0.00    +0.000 HD
ENDBRANCH   6   7
ENDBRANCH   5   6
ENDBRANCH   2   5
TORSDOF 3
ENDMDL
MODEL 4
REMARK VINA RESULT:      -3.4      2.578      3.373
REMARK  Name = Choline
REMARK  6 active torsions:
REMARK  status: ('A' for Active; 'I' for Inactive)
REMARK    1  A    between atoms: C_1  and  N_2
REMARK    2  A    between atoms: N_2  and  C_3
REMARK    3  A    between atoms: N_2  and  C_4
REMARK    4  A    between atoms: N_2  and  C_5
REMARK    5  A    between atoms: C_5  and  C_6
REMARK    6  A    between atoms: C_6  and  O_7
REMARK                            x       y       z     vdW  Elec       q    Type
REMARK                         _______ _______ _______ _____ _____    ______ ____
ROOT
ATOM      1  C   UNL     1     -13.448   7.223 128.151  0.00  0.00    +0.000 C 
ATOM      2  N   UNL     1     -12.304   8.063 128.724  0.00  0.00    +0.000 N 
ATOM      3  C   UNL     1     -11.272   8.278 127.622  0.00  0.00    +0.000 C 
ATOM      4  C   UNL     1     -12.873   9.400 129.178  0.00  0.00    +0.000 C 
ENDROOT
BRANCH   2   5
ATOM      5  C   UNL     1     -11.684   7.296 129.905  0.00  0.00    +0.000 C 
BRANCH   5   6
ATOM      6  C   UNL     1     -12.598   7.188 131.134  0.00  0.00    +0.000 C 
BRANCH   6   7
ATOM      7  O   UNL     1     -12.145   6.150 131.992  0.00  0.00    +0.000 OA
ATOM      8  H   UNL     1     -12.606   6.212 132.845  0.00  0.00    +0.000 HD
ENDBRANCH   6   7
ENDBRANCH   5   6
ENDBRANCH   2   5
TORSDOF 3
ENDMDL
MODEL 5
REMARK VINA RESULT:      -3.3      3.133      3.520
REMARK  Name = Choline
REMARK  6 active torsions:
REMARK  status: ('A' for Active; 'I' for Inactive)
REMARK    1  A    between atoms: C_1  and  N_2
REMARK    2  A    between atoms: N_2  and  C_3
REMARK    3  A    between atoms: N_2  and  C_4
REMARK    4  A    between atoms: N_2  and  C_5
REMARK    5  A    between atoms: C_5  and  C_6
REMARK    6  A    between atoms: C_6  and  O_7
REMARK                            x       y       z     vdW  Elec       q    Type
REMARK                         _______ _______ _______ _____ _____    ______ ____
ROOT
ATOM      1  C   UNL     1     -11.463   5.404 130.232  0.00  0.00    +0.000 C 
ATOM      2  N   UNL     1     -11.967   6.790 129.824  0.00  0.00    +0.000 N 
ATOM      3  C   UNL     1     -12.792   7.354 130.976  0.00  0.00    +0.000 C 
ATOM      4  C   UNL     1     -10.759   7.680 129.560  0.00  0.00    +0.000 C 
ENDROOT
BRANCH   2   5
ATOM      5  C   UNL     1     -12.830   6.641 128.560  0.00  0.00    +0.000 C 
BRANCH   5   6
ATOM      6  C   UNL     1     -12.309   7.424 127.346  0.00  0.00    +0.000 C 
BRANCH   6   7
ATOM      7  O   UNL     1     -12.075   6.541 126.258  0.00  0.00    +0.000 OA
ATOM      8  H   UNL     1     -12.925   6.212 125.920  0.00  0.00    +0.000 HD
ENDBRANCH   6   7
ENDBRANCH   5   6
ENDBRANCH   2   5
TORSDOF 3
ENDMDL
MODEL 6
REMARK VINA RESULT:      -3.1      2.871      3.830
REMARK  Name = Choline
REMARK  6 active torsions:
REMARK  status: ('A' for Active; 'I' for Inactive)
REMARK    1  A    between atoms: C_1  and  N_2
REMARK    2  A    between atoms: N_2  and  C_3
REMARK    3  A    between atoms: N_2  and  C_4
REMARK    4  A    between atoms: N_2  and  C_5
REMARK    5  A    between atoms: C_5  and  C_6
REMARK    6  A    between atoms: C_6  and  O_7
REMARK                            x       y       z     vdW  Elec       q    Type
REMARK                         _______ _______ _______ _____ _____    ______ ____
ROOT
ATOM      1  C   UNL     1     -12.673   7.480 130.797  0.00  0.00    +0.000 C 
ATOM      2  N   UNL     1     -12.410   7.973 129.372  0.00  0.00    +0.000 N 
ATOM      3  C   UNL     1     -13.154   7.057 128.406  0.00  0.00    +0.000 C 
ATOM      4  C   UNL     1     -12.936   9.398 129.254  0.00  0.00    +0.000 C 
ENDROOT
BRANCH   2   5
ATOM      5  C   UNL     1     -10.895   7.919 129.112  0.00  0.00    +0.000 C 
BRANCH   5   6
ATOM      6  C   UNL     1     -10.301   6.504 129.152  0.00  0.00    +0.000 C 
BRANCH   6   7
ATOM      7  O   UNL     1      -9.649   6.211 127.925  0.00  0.00    +0.000 OA
ATOM      8  H   UNL     1     -10.312   6.127 127.219  0.00  0.00    +0.000 HD
ENDBRANCH   6   7
ENDBRANCH   5   6
ENDBRANCH   2   5
TORSDOF 3
ENDMDL
MODEL 7
REMARK VINA RESULT:      -3.0      2.597      3.384
REMARK  Name = Choline
REMARK  6 active torsions:
REMARK  status: ('A' for Active; 'I' for Inactive)
REMARK    1  A    between atoms: C_1  and  N_2
REMARK    2  A    between atoms: N_2  and  C_3
REMARK    3  A    between atoms: N_2  and  C_4
REMARK    4  A    between atoms: N_2  and  C_5
REMARK    5  A    between atoms: C_5  and  C_6
REMARK    6  A    between atoms: C_6  and  O_7
REMARK                            x       y       z     vdW  Elec       q    Type
REMARK                         _______ _______ _______ _____ _____    ______ ____
ROOT
ATOM      1  C   UNL     1     -11.324   5.372 130.254  0.00  0.00    +0.000 C 
ATOM      2  N   UNL     1     -11.970   6.723 129.939  0.00  0.00    +0.000 N 
ATOM      3  C   UNL     1     -13.043   6.502 128.878  0.00  0.00    +0.000 C 
ATOM      4  C   UNL     1     -12.599   7.263 131.216  0.00  0.00    +0.000 C 
ENDROOT
BRANCH   2   5
ATOM      5  C   UNL     1     -10.878   7.672 129.416  0.00  0.00    +0.000 C 
BRANCH   5   6
ATOM      6  C   UNL     1     -11.363   8.656 128.340  0.00  0.00    +0.000 C 
BRANCH   6   7
ATOM      7  O   UNL     1     -10.719   8.386 127.103  0.00  0.00    +0.000 OA
ATOM      8  H   UNL     1     -11.166   8.877 126.393  0.00  0.00    +0.000 HD
ENDBRANCH   6   7
ENDBRANCH   5   6
ENDBRANCH   2   5
TORSDOF 3
ENDMDL
MODEL 8
REMARK VINA RESULT:      -2.9      2.521      3.244
REMARK  Name = Choline
REMARK  6 active torsions:
REMARK  status: ('A' for Active; 'I' for Inactive)
REMARK    1  A    between atoms: C_1  and  N_2
REMARK    2  A    between atoms: N_2  and  C_3
REMARK    3  A    between atoms: N_2  and  C_4
REMARK    4  A    between atoms: N_2  and  C_5
REMARK    5  A    between atoms: C_5  and  C_6
REMARK    6  A    between atoms: C_6  and  O_7
REMARK                            x       y       z     vdW  Elec       q    Type
REMARK                         _______ _______ _______ _____ _____    ______ ____
ROOT
ATOM      1  C   UNL     1     -12.087   6.855 131.548  0.00  0.00    +0.000 C 
ATOM      2  N   UNL     1     -11.291   6.393 130.325  0.00  0.00    +0.000 N 
ATOM      3  C   UNL     1      -9.908   7.034 130.387  0.00  0.00    +0.000 C 
ATOM      4  C   UNL     1     -11.168   4.876 130.379  0.00  0.00    +0.000 C 
ENDROOT
BRANCH   2   5
ATOM      5  C   UNL     1     -12.040   6.842 129.059  0.00  0.00    +0.000 C 
BRANCH   5   6
ATOM      6  C   UNL     1     -12.779   8.181 129.208  0.00  0.00    +0.000 C 
BRANCH   6   7
ATOM      7  O   UNL     1     -12.040   9.220 128.582  0.00  0.00    +0.000 OA
ATOM      8  H   UNL     1     -11.690   8.902 127.733  0.00  0.00    +0.000 HD
ENDBRANCH   6   7
ENDBRANCH   5   6
ENDBRANCH   2   5
TORSDOF 3
ENDMDL
MODEL 9
REMARK VINA RESULT:      -2.9     13.780     14.402
REMARK  Name = Choline
REMARK  6 active torsions:
REMARK  status: ('A' for Active; 'I' for Inactive)
REMARK    1  A    between atoms: C_1  and  N_2
REMARK    2  A    between atoms: N_2  and  C_3
REMARK    3  A    between atoms: N_2  and  C_4
REMARK    4  A    between atoms: N_2  and  C_5
REMARK    5  A    between atoms: C_5  and  C_6
REMARK    6  A    between atoms: C_6  and  O_7
REMARK                            x       y       z     vdW  Elec       q    Type
REMARK                         _______ _______ _______ _____ _____    ______ ____
ROOT
ATOM      1  C   UNL     1      -6.318  -2.091 125.535  0.00  0.00    +0.000 C 
ATOM      2  N   UNL     1      -6.510  -2.833 124.210  0.00  0.00    +0.000 N 
ATOM      3  C   UNL     1      -6.625  -1.796 123.097  0.00  0.00    +0.000 C 
ATOM      4  C   UNL     1      -5.294  -3.719 123.977  0.00  0.00    +0.000 C 
ENDROOT
BRANCH   2   5
ATOM      5  C   UNL     1      -7.795  -3.671 124.305  0.00  0.00    +0.000 C 
BRANCH   5   6
ATOM      6  C   UNL     1      -9.087  -2.841 124.340  0.00  0.00    +0.000 C 
BRANCH   6   7
ATOM      7  O   UNL     1     -10.072  -3.433 123.506  0.00  0.00    +0.000 OA
ATOM      8  H   UNL     1     -10.077  -2.985 122.643  0.00  0.00    +0.000 HD
ENDBRANCH   6   7
ENDBRANCH   5   6
ENDBRANCH   2   5
TORSDOF 3
ENDMDL
