MODEL 1
REMARK VINA RESULT:      -3.4      0.000      0.000
REMARK  Name = Choline C-11
REMARK  6 active torsions:
REMARK  status: ('A' for Active; 'I' for Inactive)
REMARK    1  A    between atoms: C_1  and  N_2
REMARK    2  A    between atoms: N_2  and  C_3
REMARK    3  A    between atoms: N_2  and  C_4
REMARK    4  A    between atoms: N_2  and  C_5
REMARK    5  A    between atoms: C_5  and  C_6
REMARK    6  A    between atoms: C_6  and  O_7
REMARK                            x       y       z     vdW  Elec       q    Type
REMARK                         _______ _______ _______ _____ _____    ______ ____
ROOT
ATOM      1  C   UNL     1     -13.492   7.225 127.838  0.00  0.00    +0.000 C 
ATOM      2  N   UNL     1     -12.472   8.044 128.635  0.00  0.00    +0.000 N 
ATOM      3  C   UNL     1     -13.066   9.425 128.890  0.00  0.00    +0.000 C 
ATOM      4  C   UNL     1     -12.216   7.332 129.956  0.00  0.00    +0.000 C 
ENDROOT
BRANCH   2   5
ATOM      5  C   UNL     1     -11.181   8.153 127.806  0.00  0.00    +0.000 C 
BRANCH   5   6
ATOM      6  C   UNL     1     -11.290   7.560 126.393  0.00  0.00    +0.000 C 
BRANCH   6   7
ATOM      7  O   UNL     1     -10.433   6.436 126.268  0.00  0.00    +0.000 OA
ATOM      8  H   UNL     1      -9.734   6.632 125.621  0.00  0.00    +0.000 HD
ENDBRANCH   6   7
ENDBRANCH   5   6
ENDBRANCH   2   5
TORSDOF 3
ENDMDL
MODEL 2
REMARK VINA RESULT:      -3.4      2.355      3.461
REMARK  Name = Choline C-11
REMARK  6 active torsions:
REMARK  status: ('A' for Active; 'I' for Inactive)
REMARK    1  A    between atoms: C_1  and  N_2
REMARK    2  A    between atoms: N_2  and  C_3
REMARK    3  A    between atoms: N_2  and  C_4
REMARK    4  A    between atoms: N_2  and  C_5
REMARK    5  A    between atoms: C_5  and  C_6
REMARK    6  A    between atoms: C_6  and  O_7
REMARK                            x       y       z     vdW  Elec       q    Type
REMARK                         _______ _______ _______ _____ _____    ______ ____
ROOT
ATOM      1  C   UNL     1     -12.767   9.206 129.388  0.00  0.00    +0.000 C 
ATOM      2  N   UNL     1     -12.353   7.941 128.630  0.00  0.00    +0.000 N 
ATOM      3  C   UNL     1     -13.516   7.520 127.737  0.00  0.00    +0.000 C 
ATOM      4  C   UNL     1     -11.133   8.270 127.781  0.00  0.00    +0.000 C 
ENDROOT
BRANCH   2   5
ATOM      5  C   UNL     1     -12.033   6.841 129.657  0.00  0.00    +0.000 C 
BRANCH   5   6
ATOM      6  C   UNL     1     -12.575   7.121 131.067  0.00  0.00    +0.000 C 
BRANCH   6   7
ATOM      7  O   UNL     1     -12.116   6.129 131.972  0.00  0.00    +0.000 OA
ATOM      8  H   UNL     1     -11.172   6.270 132.156  0.00  0.00    +0.000 HD
ENDBRANCH   6   7
ENDBRANCH   5   6
ENDBRANCH   2   5
TORSDOF 3
ENDMDL
MODEL 3
REMARK VINA RESULT:      -3.3      2.464      3.236
REMARK  Name = Choline C-11
REMARK  6 active torsions:
REMARK  status: ('A' for Active; 'I' for Inactive)
REMARK    1  A    between atoms: C_1  and  N_2
REMARK    2  A    between atoms: N_2  and  C_3
REMARK    3  A    between atoms: N_2  and  C_4
REMARK    4  A    between atoms: N_2  and  C_5
REMARK    5  A    between atoms: C_5  and  C_6
REMARK    6  A    between atoms: C_6  and  O_7
REMARK                            x       y       z     vdW  Elec       q    Type
REMARK                         _______ _______ _______ _____ _____    ______ ____
ROOT
ATOM      1  C   UNL     1     -12.942   6.804 128.550  0.00  0.00    +0.000 C 
ATOM      2  N   UNL     1     -11.916   7.827 129.046  0.00  0.00    +0.000 N 
ATOM      3  C   UNL     1     -11.126   8.330 127.842  0.00  0.00    +0.000 C 
ATOM      4  C   UNL     1     -12.668   8.980 129.697  0.00  0.00    +0.000 C 
ENDROOT
BRANCH   2   5
ATOM      5  C   UNL     1     -10.985   7.133 130.055  0.00  0.00    +0.000 C 
BRANCH   5   6
ATOM      6  C   UNL     1     -11.570   5.855 130.674  0.00  0.00    +0.000 C 
BRANCH   6   7
ATOM      7  O   UNL     1     -12.101   6.134 131.960  0.00  0.00    +0.000 OA
ATOM      8  H   UNL     1     -11.535   5.729 132.639  0.00  0.00    +0.000 HD
ENDBRANCH   6   7
ENDBRANCH   5   6
ENDBRANCH   2   5
TORSDOF 3
ENDMDL
MODEL 4
REMARK VINA RESULT:      -3.3      2.512      3.411
REMARK  Name = Choline C-11
REMARK  6 active torsions:
REMARK  status: ('A' for Active; 'I' for Inactive)
REMARK    1  A    between atoms: C_1  and  N_2
REMARK    2  A    between atoms: N_2  and  C_3
REMARK    3  A    between atoms: N_2  and  C_4
REMARK    4  A    between atoms: N_2  and  C_5
REMARK    5  A    between atoms: C_5  and  C_6
REMARK    6  A    between atoms: C_6  and  O_7
REMARK                            x       y       z     vdW  Elec       q    Type
REMARK                         _______ _______ _______ _____ _____    ______ ____
ROOT
ATOM      1  C   UNL     1     -12.241   6.607 129.040  0.00  0.00    +0.000 C 
ATOM      2  N   UNL     1     -12.227   7.714 127.982  0.00  0.00    +0.000 N 
ATOM      3  C   UNL     1     -10.855   8.380 128.009  0.00  0.00    +0.000 C 
ATOM      4  C   UNL     1     -12.474   7.077 126.621  0.00  0.00    +0.000 C 
ENDROOT
BRANCH   2   5
ATOM      5  C   UNL     1     -13.330   8.730 128.326  0.00  0.00    +0.000 C 
BRANCH   5   6
ATOM      6  C   UNL     1     -12.967   9.688 129.471  0.00  0.00    +0.000 C 
BRANCH   6   7
ATOM      7  O   UNL     1     -13.303  11.021 129.118  0.00  0.00    +0.000 OA
ATOM      8  H   UNL     1     -13.659  11.036 128.213  0.00  0.00    +0.000 HD
ENDBRANCH   6   7
ENDBRANCH   5   6
ENDBRANCH   2   5
TORSDOF 3
ENDMDL
MODEL 5
REMARK VINA RESULT:      -3.3      1.640      2.294
REMARK  Name = Choline C-11
REMARK  6 active torsions:
REMARK  status: ('A' for Active; 'I' for Inactive)
REMARK    1  A    between atoms: C_1  and  N_2
REMARK    2  A    between atoms: N_2  and  C_3
REMARK    3  A    between atoms: N_2  and  C_4
REMARK    4  A    between atoms: N_2  and  C_5
REMARK    5  A    between atoms: C_5  and  C_6
REMARK    6  A    between atoms: C_6  and  O_7
REMARK                            x       y       z     vdW  Elec       q    Type
REMARK                         _______ _______ _______ _____ _____    ______ ____
ROOT
ATOM      1  C   UNL     1     -11.499   5.392 130.166  0.00  0.00    +0.000 C 
ATOM      2  N   UNL     1     -12.004   6.798 129.826  0.00  0.00    +0.000 N 
ATOM      3  C   UNL     1     -12.831   7.303 131.004  0.00  0.00    +0.000 C 
ATOM      4  C   UNL     1     -10.796   7.699 129.609  0.00  0.00    +0.000 C 
ENDROOT
BRANCH   2   5
ATOM      5  C   UNL     1     -12.866   6.711 128.555  0.00  0.00    +0.000 C 
BRANCH   5   6
ATOM      6  C   UNL     1     -12.272   7.442 127.342  0.00  0.00    +0.000 C 
BRANCH   6   7
ATOM      7  O   UNL     1     -11.924   6.508 126.331  0.00  0.00    +0.000 OA
ATOM      8  H   UNL     1     -11.937   5.610 126.702  0.00  0.00    +0.000 HD
ENDBRANCH   6   7
ENDBRANCH   5   6
ENDBRANCH   2   5
TORSDOF 3
ENDMDL
MODEL 6
REMARK VINA RESULT:      -3.1      1.799      2.736
REMARK  Name = Choline C-11
REMARK  6 active torsions:
REMARK  status: ('A' for Active; 'I' for Inactive)
REMARK    1  A    between atoms: C_1  and  N_2
REMARK    2  A    between atoms: N_2  and  C_3
REMARK    3  A    between atoms: N_2  and  C_4
REMARK    4  A    between atoms: N_2  and  C_5
REMARK    5  A    between atoms: C_5  and  C_6
REMARK    6  A    between atoms: C_6  and  O_7
REMARK                            x       y       z     vdW  Elec       q    Type
REMARK                         _______ _______ _______ _____ _____    ______ ____
ROOT
ATOM      1  C   UNL     1     -12.368   7.101 131.327  0.00  0.00    +0.000 C 
ATOM      2  N   UNL     1     -11.822   6.533 130.014  0.00  0.00    +0.000 N 
ATOM      3  C   UNL     1     -11.341   5.109 130.275  0.00  0.00    +0.000 C 
ATOM      4  C   UNL     1     -12.951   6.525 128.992  0.00  0.00    +0.000 C 
ENDROOT
BRANCH   2   5
ATOM      5  C   UNL     1     -10.658   7.422 129.546  0.00  0.00    +0.000 C 
BRANCH   5   6
ATOM      6  C   UNL     1     -10.590   7.621 128.024  0.00  0.00    +0.000 C 
BRANCH   6   7
ATOM      7  O   UNL     1      -9.841   6.573 127.427  0.00  0.00    +0.000 OA
ATOM      8  H   UNL     1      -9.055   6.944 126.992  0.00  0.00    +0.000 HD
ENDBRANCH   6   7
ENDBRANCH   5   6
ENDBRANCH   2   5
TORSDOF 3
ENDMDL
MODEL 7
REMARK VINA RESULT:      -2.9      2.428      3.507
REMARK  Name = Choline C-11
REMARK  6 active torsions:
REMARK  status: ('A' for Active; 'I' for Inactive)
REMARK    1  A    between atoms: C_1  and  N_2
REMARK    2  A    between atoms: N_2  and  C_3
REMARK    3  A    between atoms: N_2  and  C_4
REMARK    4  A    between atoms: N_2  and  C_5
REMARK    5  A    between atoms: C_5  and  C_6
REMARK    6  A    between atoms: C_6  and  O_7
REMARK                            x       y       z     vdW  Elec       q    Type
REMARK                         _______ _______ _______ _____ _____    ______ ____
ROOT
ATOM      1  C   UNL     1      -9.872   6.939 130.493  0.00  0.00    +0.000 C 
ATOM      2  N   UNL     1     -11.274   6.335 130.373  0.00  0.00    +0.000 N 
ATOM      3  C   UNL     1     -11.141   4.816 130.395  0.00  0.00    +0.000 C 
ATOM      4  C   UNL     1     -12.100   6.806 131.562  0.00  0.00    +0.000 C 
ENDROOT
BRANCH   2   5
ATOM      5  C   UNL     1     -11.894   6.806 129.046  0.00  0.00    +0.000 C 
BRANCH   5   6
ATOM      6  C   UNL     1     -12.675   8.125 129.151  0.00  0.00    +0.000 C 
BRANCH   6   7
ATOM      7  O   UNL     1     -11.973   9.162 128.483  0.00  0.00    +0.000 OA
ATOM      8  H   UNL     1     -12.511   9.972 128.488  0.00  0.00    +0.000 HD
ENDBRANCH   6   7
ENDBRANCH   5   6
ENDBRANCH   2   5
TORSDOF 3
ENDMDL
MODEL 8
REMARK VINA RESULT:      -2.9      2.609      3.513
REMARK  Name = Choline C-11
REMARK  6 active torsions:
REMARK  status: ('A' for Active; 'I' for Inactive)
REMARK    1  A    between atoms: C_1  and  N_2
REMARK    2  A    between atoms: N_2  and  C_3
REMARK    3  A    between atoms: N_2  and  C_4
REMARK    4  A    between atoms: N_2  and  C_5
REMARK    5  A    between atoms: C_5  and  C_6
REMARK    6  A    between atoms: C_6  and  O_7
REMARK                            x       y       z     vdW  Elec       q    Type
REMARK                         _______ _______ _______ _____ _____    ______ ____
ROOT
ATOM      1  C   UNL     1     -11.186   6.476 131.899  0.00  0.00    +0.000 C 
ATOM      2  N   UNL     1     -11.426   6.857 130.436  0.00  0.00    +0.000 N 
ATOM      3  C   UNL     1     -10.113   7.378 129.859  0.00  0.00    +0.000 C 
ATOM      4  C   UNL     1     -11.870   5.610 129.684  0.00  0.00    +0.000 C 
ENDROOT
BRANCH   2   5
ATOM      5  C   UNL     1     -12.510   7.948 130.389  0.00  0.00    +0.000 C 
BRANCH   5   6
ATOM      6  C   UNL     1     -12.891   8.395 128.969  0.00  0.00    +0.000 C 
BRANCH   6   7
ATOM      7  O   UNL     1     -12.689   9.792 128.826  0.00  0.00    +0.000 OA
ATOM      8  H   UNL     1     -13.429  10.269 129.238  0.00  0.00    +0.000 HD
ENDBRANCH   6   7
ENDBRANCH   5   6
ENDBRANCH   2   5
TORSDOF 3
ENDMDL
MODEL 9
REMARK VINA RESULT:      -2.8      2.992      3.688
REMARK  Name = Choline C-11
REMARK  6 active torsions:
REMARK  status: ('A' for Active; 'I' for Inactive)
REMARK    1  A    between atoms: C_1  and  N_2
REMARK    2  A    between atoms: N_2  and  C_3
REMARK    3  A    between atoms: N_2  and  C_4
REMARK    4  A    between atoms: N_2  and  C_5
REMARK    5  A    between atoms: C_5  and  C_6
REMARK    6  A    between atoms: C_6  and  O_7
REMARK                            x       y       z     vdW  Elec       q    Type
REMARK                         _______ _______ _______ _____ _____    ______ ____
ROOT
ATOM      1  C   UNL     1     -11.134   4.789 130.401  0.00  0.00    +0.000 C 
ATOM      2  N   UNL     1     -11.471   6.276 130.259  0.00  0.00    +0.000 N 
ATOM      3  C   UNL     1     -12.479   6.429 129.125  0.00  0.00    +0.000 C 
ATOM      4  C   UNL     1     -12.079   6.756 131.570  0.00  0.00    +0.000 C 
ENDROOT
BRANCH   2   5
ATOM      5  C   UNL     1     -10.174   7.040 129.938  0.00  0.00    +0.000 C 
BRANCH   5   6
ATOM      6  C   UNL     1      -9.016   6.745 130.903  0.00  0.00    +0.000 C 
BRANCH   6   7
ATOM      7  O   UNL     1      -7.825   7.361 130.440  0.00  0.00    +0.000 OA
ATOM      8  H   UNL     1      -8.015   8.279 130.181  0.00  0.00    +0.000 HD
ENDBRANCH   6   7
ENDBRANCH   5   6
ENDBRANCH   2   5
TORSDOF 3
ENDMDL
