MODEL 1
REMARK VINA RESULT:      -7.7      0.000      0.000
REMARK  Name = Cholecalciferol
REMARK  11 active torsions:
REMARK  status: ('A' for Active; 'I' for Inactive)
REMARK    1  A    between atoms: C_1  and  C_2
REMARK    2  A    between atoms: C_2  and  C_3
REMARK    3  A    between atoms: C_2  and  C_4
REMARK    4  A    between atoms: C_4  and  C_5
REMARK    5  A    between atoms: C_5  and  C_6
REMARK    6  A    between atoms: C_6  and  C_7
REMARK    7  A    between atoms: C_7  and  C_8
REMARK    8  A    between atoms: C_7  and  C_9
REMARK    9  A    between atoms: C_19  and  C_20
REMARK   10  A    between atoms: C_21  and  C_22
REMARK   11  A    between atoms: C_25  and  O_26
REMARK                            x       y       z     vdW  Elec       q    Type
REMARK                         _______ _______ _______ _____ _____    ______ ____
ROOT
ATOM      1  C   UNL     1      -8.796  -0.881 126.070  0.00  0.00    +0.000 C 
ATOM      2  C   UNL     1      -9.006  -2.372 125.699  0.00  0.00    +0.000 C 
ATOM      3  C   UNL     1      -8.531  -3.215 126.873  0.00  0.00    +0.000 C 
ATOM      4  C   UNL     1      -8.316  -2.179 127.953  0.00  0.00    +0.000 C 
ATOM      5  C   UNL     1      -7.463  -2.484 129.130  0.00  0.00    +0.000 C 
ATOM      6  C   UNL     1      -7.322  -1.228 129.926  0.00  0.00    +0.000 C 
ATOM      7  C   UNL     1      -6.966   0.116 129.353  0.00  0.00    +0.000 C 
ATOM      8  C   UNL     1      -7.814   0.336 128.115  0.00  0.00    +0.000 C 
ATOM      9  C   UNL     1      -7.760  -0.924 127.214  0.00  0.00    +0.000 C 
ATOM     10  C   UNL     1      -6.276  -1.206 126.846  0.00  0.00    +0.000 C 
ATOM     11  C   UNL     1      -6.999  -3.681 129.529  0.00  0.00    +0.000 C 
ENDROOT
BRANCH  11  12
ATOM     12  C   UNL     1      -6.401  -3.894 130.840  0.00  0.00    +0.000 C 
ATOM     13  C   UNL     1      -5.152  -3.550 131.229  0.00  0.00    +0.000 C 
ATOM     14  C   UNL     1      -4.676  -3.829 132.633  0.00  0.00    +0.000 C 
ATOM     15  C   UNL     1      -4.040  -2.575 133.249  0.00  0.00    +0.000 C 
ATOM     16  C   UNL     1      -2.969  -1.975 132.334  0.00  0.00    +0.000 C 
ATOM     17  C   UNL     1      -3.577  -1.570 130.994  0.00  0.00    +0.000 C 
ATOM     18  C   UNL     1      -4.134  -2.834 130.416  0.00  0.00    +0.000 C 
ATOM     19  C   UNL     1      -3.325  -3.329 129.493  0.00  0.00    +0.000 C 
BRANCH  15  20
ATOM     20  O   UNL     1      -3.460  -2.894 134.508  0.00  0.00    +0.000 OA
ATOM     21  H   UNL     1      -4.093  -2.635 135.199  0.00  0.00    +0.000 HD
ENDBRANCH  15  20
ENDBRANCH  11  12
BRANCH   1  22
ATOM     22  C   UNL     1      -8.599   0.040 124.854  0.00  0.00    +0.000 C 
ATOM     23  C   UNL     1      -9.841   0.927 124.669  0.00  0.00    +0.000 C 
BRANCH  22  24
ATOM     24  C   UNL     1      -8.267  -0.726 123.583  0.00  0.00    +0.000 C 
BRANCH  24  25
ATOM     25  C   UNL     1      -6.813  -0.668 123.213  0.00  0.00    +0.000 C 
BRANCH  25  26
ATOM     26  C   UNL     1      -6.355  -2.007 122.666  0.00  0.00    +0.000 C 
BRANCH  26  28
ATOM     27  C   UNL     1      -6.471  -3.986 124.172  0.00  0.00    +0.000 C 
ATOM     28  C   UNL     1      -5.629  -2.788 123.760  0.00  0.00    +0.000 C 
ATOM     29  C   UNL     1      -4.248  -3.252 123.289  0.00  0.00    +0.000 C 
ENDBRANCH  26  28
ENDBRANCH  25  26
ENDBRANCH  24  25
ENDBRANCH  22  24
ENDBRANCH   1  22
TORSDOF 7
ENDMDL
MODEL 2
REMARK VINA RESULT:      -7.7      1.963      3.693
REMARK  Name = Cholecalciferol
REMARK  11 active torsions:
REMARK  status: ('A' for Active; 'I' for Inactive)
REMARK    1  A    between atoms: C_1  and  C_2
REMARK    2  A    between atoms: C_2  and  C_3
REMARK    3  A    between atoms: C_2  and  C_4
REMARK    4  A    between atoms: C_4  and  C_5
REMARK    5  A    between atoms: C_5  and  C_6
REMARK    6  A    between atoms: C_6  and  C_7
REMARK    7  A    between atoms: C_7  and  C_8
REMARK    8  A    between atoms: C_7  and  C_9
REMARK    9  A    between atoms: C_19  and  C_20
REMARK   10  A    between atoms: C_21  and  C_22
REMARK   11  A    between atoms: C_25  and  O_26
REMARK                            x       y       z     vdW  Elec       q    Type
REMARK                         _______ _______ _______ _____ _____    ______ ____
ROOT
ATOM      1  C   UNL     1      -6.520  -1.749 124.975  0.00  0.00    +0.000 C 
ATOM      2  C   UNL     1      -5.426  -0.825 125.569  0.00  0.00    +0.000 C 
ATOM      3  C   UNL     1      -5.498  -0.932 127.085  0.00  0.00    +0.000 C 
ATOM      4  C   UNL     1      -6.443  -2.096 127.285  0.00  0.00    +0.000 C 
ATOM      5  C   UNL     1      -7.130  -2.291 128.586  0.00  0.00    +0.000 C 
ATOM      6  C   UNL     1      -8.100  -3.416 128.423  0.00  0.00    +0.000 C 
ATOM      7  C   UNL     1      -9.078  -3.549 127.287  0.00  0.00    +0.000 C 
ATOM      8  C   UNL     1      -8.334  -3.264 125.996  0.00  0.00    +0.000 C 
ATOM      9  C   UNL     1      -7.501  -1.966 126.148  0.00  0.00    +0.000 C 
ATOM     10  C   UNL     1      -8.462  -0.802 126.521  0.00  0.00    +0.000 C 
ATOM     11  C   UNL     1      -6.866  -1.695 129.762  0.00  0.00    +0.000 C 
ENDROOT
BRANCH  11  12
ATOM     12  C   UNL     1      -7.425  -2.161 131.023  0.00  0.00    +0.000 C 
ATOM     13  C   UNL     1      -6.960  -3.172 131.793  0.00  0.00    +0.000 C 
ATOM     14  C   UNL     1      -7.644  -3.534 133.088  0.00  0.00    +0.000 C 
ATOM     15  C   UNL     1      -6.621  -3.645 134.228  0.00  0.00    +0.000 C 
ATOM     16  C   UNL     1      -5.456  -4.566 133.858  0.00  0.00    +0.000 C 
ATOM     17  C   UNL     1      -4.720  -4.032 132.633  0.00  0.00    +0.000 C 
ATOM     18  C   UNL     1      -5.746  -3.994 131.542  0.00  0.00    +0.000 C 
ATOM     19  C   UNL     1      -5.609  -5.027 130.728  0.00  0.00    +0.000 C 
BRANCH  15  20
ATOM     20  O   UNL     1      -7.257  -4.136 135.403  0.00  0.00    +0.000 OA
ATOM     21  H   UNL     1      -7.060  -3.517 136.126  0.00  0.00    +0.000 HD
ENDBRANCH  15  20
ENDBRANCH  11  12
BRANCH   1  22
ATOM     22  C   UNL     1      -7.022  -1.307 123.589  0.00  0.00    +0.000 C 
ATOM     23  C   UNL     1      -6.316  -2.126 122.497  0.00  0.00    +0.000 C 
BRANCH  22  24
ATOM     24  C   UNL     1      -6.865   0.188 123.356  0.00  0.00    +0.000 C 
BRANCH  24  25
ATOM     25  C   UNL     1      -8.159   0.944 123.433  0.00  0.00    +0.000 C 
BRANCH  25  26
ATOM     26  C   UNL     1      -7.988   2.196 124.274  0.00  0.00    +0.000 C 
BRANCH  26  28
ATOM     27  C   UNL     1      -6.208   3.773 123.540  0.00  0.00    +0.000 C 
ATOM     28  C   UNL     1      -6.504   2.542 124.383  0.00  0.00    +0.000 C 
ATOM     29  C   UNL     1      -6.096   2.790 125.838  0.00  0.00    +0.000 C 
ENDBRANCH  26  28
ENDBRANCH  25  26
ENDBRANCH  24  25
ENDBRANCH  22  24
ENDBRANCH   1  22
TORSDOF 7
ENDMDL
MODEL 3
REMARK VINA RESULT:      -7.7      1.833      2.811
REMARK  Name = Cholecalciferol
REMARK  11 active torsions:
REMARK  status: ('A' for Active; 'I' for Inactive)
REMARK    1  A    between atoms: C_1  and  C_2
REMARK    2  A    between atoms: C_2  and  C_3
REMARK    3  A    between atoms: C_2  and  C_4
REMARK    4  A    between atoms: C_4  and  C_5
REMARK    5  A    between atoms: C_5  and  C_6
REMARK    6  A    between atoms: C_6  and  C_7
REMARK    7  A    between atoms: C_7  and  C_8
REMARK    8  A    between atoms: C_7  and  C_9
REMARK    9  A    between atoms: C_19  and  C_20
REMARK   10  A    between atoms: C_21  and  C_22
REMARK   11  A    between atoms: C_25  and  O_26
REMARK                            x       y       z     vdW  Elec       q    Type
REMARK                         _______ _______ _______ _____ _____    ______ ____
ROOT
ATOM      1  C   UNL     1      -8.533  -2.023 127.114  0.00  0.00    +0.000 C 
ATOM      2  C   UNL     1      -8.936  -3.514 127.253  0.00  0.00    +0.000 C 
ATOM      3  C   UNL     1      -8.279  -4.058 128.513  0.00  0.00    +0.000 C 
ATOM      4  C   UNL     1      -7.750  -2.805 129.172  0.00  0.00    +0.000 C 
ATOM      5  C   UNL     1      -6.683  -2.890 130.202  0.00  0.00    +0.000 C 
ATOM      6  C   UNL     1      -6.270  -1.495 130.544  0.00  0.00    +0.000 C 
ATOM      7  C   UNL     1      -5.946  -0.425 129.538  0.00  0.00    +0.000 C 
ATOM      8  C   UNL     1      -7.029  -0.439 128.476  0.00  0.00    +0.000 C 
ATOM      9  C   UNL     1      -7.275  -1.893 128.001  0.00  0.00    +0.000 C 
ATOM     10  C   UNL     1      -5.936  -2.470 127.459  0.00  0.00    +0.000 C 
ATOM     11  C   UNL     1      -6.236  -3.983 130.845  0.00  0.00    +0.000 C 
ENDROOT
BRANCH  11  12
ATOM     12  C   UNL     1      -5.381  -3.908 132.021  0.00  0.00    +0.000 C 
ATOM     13  C   UNL     1      -5.778  -3.773 133.308  0.00  0.00    +0.000 C 
ATOM     14  C   UNL     1      -4.768  -3.720 134.426  0.00  0.00    +0.000 C 
ATOM     15  C   UNL     1      -5.152  -4.694 135.550  0.00  0.00    +0.000 C 
ATOM     16  C   UNL     1      -6.599  -4.492 136.005  0.00  0.00    +0.000 C 
ATOM     17  C   UNL     1      -7.563  -4.728 134.845  0.00  0.00    +0.000 C 
ATOM     18  C   UNL     1      -7.179  -3.721 133.804  0.00  0.00    +0.000 C 
ATOM     19  C   UNL     1      -8.008  -2.690 133.814  0.00  0.00    +0.000 C 
BRANCH  15  20
ATOM     20  O   UNL     1      -4.279  -4.521 136.660  0.00  0.00    +0.000 OA
ATOM     21  H   UNL     1      -4.312  -3.585 136.919  0.00  0.00    +0.000 HD
ENDBRANCH  15  20
ENDBRANCH  11  12
BRANCH   1  22
ATOM     22  C   UNL     1      -8.541  -1.509 125.664  0.00  0.00    +0.000 C 
ATOM     23  C   UNL     1      -9.313  -0.182 125.588  0.00  0.00    +0.000 C 
BRANCH  22  24
ATOM     24  C   UNL     1      -9.089  -2.532 124.681  0.00  0.00    +0.000 C 
BRANCH  24  25
ATOM     25  C   UNL     1      -8.121  -2.895 123.593  0.00  0.00    +0.000 C 
BRANCH  25  26
ATOM     26  C   UNL     1      -6.921  -3.618 124.177  0.00  0.00    +0.000 C 
BRANCH  26  28
ATOM     27  C   UNL     1      -4.527  -3.927 123.567  0.00  0.00    +0.000 C 
ATOM     28  C   UNL     1      -5.636  -2.904 123.758  0.00  0.00    +0.000 C 
ATOM     29  C   UNL     1      -5.841  -2.102 122.469  0.00  0.00    +0.000 C 
ENDBRANCH  26  28
ENDBRANCH  25  26
ENDBRANCH  24  25
ENDBRANCH  22  24
ENDBRANCH   1  22
TORSDOF 7
ENDMDL
MODEL 4
REMARK VINA RESULT:      -7.4      4.001      5.647
REMARK  Name = Cholecalciferol
REMARK  11 active torsions:
REMARK  status: ('A' for Active; 'I' for Inactive)
REMARK    1  A    between atoms: C_1  and  C_2
REMARK    2  A    between atoms: C_2  and  C_3
REMARK    3  A    between atoms: C_2  and  C_4
REMARK    4  A    between atoms: C_4  and  C_5
REMARK    5  A    between atoms: C_5  and  C_6
REMARK    6  A    between atoms: C_6  and  C_7
REMARK    7  A    between atoms: C_7  and  C_8
REMARK    8  A    between atoms: C_7  and  C_9
REMARK    9  A    between atoms: C_19  and  C_20
REMARK   10  A    between atoms: C_21  and  C_22
REMARK   11  A    between atoms: C_25  and  O_26
REMARK                            x       y       z     vdW  Elec       q    Type
REMARK                         _______ _______ _______ _____ _____    ______ ____
ROOT
ATOM      1  C   UNL     1      -7.295  -2.371 127.811  0.00  0.00    +0.000 C 
ATOM      2  C   UNL     1      -6.207  -2.190 126.720  0.00  0.00    +0.000 C 
ATOM      3  C   UNL     1      -5.317  -1.029 127.138  0.00  0.00    +0.000 C 
ATOM      4  C   UNL     1      -5.767  -0.767 128.557  0.00  0.00    +0.000 C 
ATOM      5  C   UNL     1      -5.474   0.534 129.211  0.00  0.00    +0.000 C 
ATOM      6  C   UNL     1      -6.173   0.545 130.532  0.00  0.00    +0.000 C 
ATOM      7  C   UNL     1      -7.612   0.162 130.745  0.00  0.00    +0.000 C 
ATOM      8  C   UNL     1      -7.867  -1.130 129.993  0.00  0.00    +0.000 C 
ATOM      9  C   UNL     1      -7.306  -1.016 128.553  0.00  0.00    +0.000 C 
ATOM     10  C   UNL     1      -7.984   0.195 127.852  0.00  0.00    +0.000 C 
ATOM     11  C   UNL     1      -4.629   1.496 128.802  0.00  0.00    +0.000 C 
ENDROOT
BRANCH  11  12
ATOM     12  C   UNL     1      -4.224   2.602 129.658  0.00  0.00    +0.000 C 
ATOM     13  C   UNL     1      -3.597   3.739 129.275  0.00  0.00    +0.000 C 
ATOM     14  C   UNL     1      -3.248   4.805 130.283  0.00  0.00    +0.000 C 
ATOM     15  C   UNL     1      -3.711   6.185 129.794  0.00  0.00    +0.000 C 
ATOM     16  C   UNL     1      -3.215   6.479 128.376  0.00  0.00    +0.000 C 
ATOM     17  C   UNL     1      -3.753   5.441 127.395  0.00  0.00    +0.000 C 
ATOM     18  C   UNL     1      -3.231   4.126 127.888  0.00  0.00    +0.000 C 
ATOM     19  C   UNL     1      -2.188   3.734 127.174  0.00  0.00    +0.000 C 
BRANCH  15  20
ATOM     20  O   UNL     1      -3.239   7.195 130.678  0.00  0.00    +0.000 OA
ATOM     21  H   UNL     1      -3.382   6.882 131.588  0.00  0.00    +0.000 HD
ENDBRANCH  15  20
ENDBRANCH  11  12
BRANCH   1  22
ATOM     22  C   UNL     1      -8.597  -3.004 127.292  0.00  0.00    +0.000 C 
ATOM     23  C   UNL     1      -9.034  -4.137 128.234  0.00  0.00    +0.000 C 
BRANCH  22  24
ATOM     24  C   UNL     1      -8.484  -3.485 125.853  0.00  0.00    +0.000 C 
BRANCH  24  25
ATOM     25  C   UNL     1      -9.327  -2.699 124.892  0.00  0.00    +0.000 C 
BRANCH  25  26
ATOM     26  C   UNL     1      -9.094  -3.182 123.472  0.00  0.00    +0.000 C 
BRANCH  26  28
ATOM     27  C   UNL     1      -9.231  -0.756 122.928  0.00  0.00    +0.000 C 
ATOM     28  C   UNL     1      -8.490  -2.053 122.638  0.00  0.00    +0.000 C 
ATOM     29  C   UNL     1      -6.997  -1.882 122.933  0.00  0.00    +0.000 C 
ENDBRANCH  26  28
ENDBRANCH  25  26
ENDBRANCH  24  25
ENDBRANCH  22  24
ENDBRANCH   1  22
TORSDOF 7
ENDMDL
MODEL 5
REMARK VINA RESULT:      -7.4      4.265      5.660
REMARK  Name = Cholecalciferol
REMARK  11 active torsions:
REMARK  status: ('A' for Active; 'I' for Inactive)
REMARK    1  A    between atoms: C_1  and  C_2
REMARK    2  A    between atoms: C_2  and  C_3
REMARK    3  A    between atoms: C_2  and  C_4
REMARK    4  A    between atoms: C_4  and  C_5
REMARK    5  A    between atoms: C_5  and  C_6
REMARK    6  A    between atoms: C_6  and  C_7
REMARK    7  A    between atoms: C_7  and  C_8
REMARK    8  A    between atoms: C_7  and  C_9
REMARK    9  A    between atoms: C_19  and  C_20
REMARK   10  A    between atoms: C_21  and  C_22
REMARK   11  A    between atoms: C_25  and  O_26
REMARK                            x       y       z     vdW  Elec       q    Type
REMARK                         _______ _______ _______ _____ _____    ______ ____
ROOT
ATOM      1  C   UNL     1      -9.036   0.555 124.792  0.00  0.00    +0.000 C 
ATOM      2  C   UNL     1      -8.861  -0.546 125.870  0.00  0.00    +0.000 C 
ATOM      3  C   UNL     1      -8.255   0.104 127.105  0.00  0.00    +0.000 C 
ATOM      4  C   UNL     1      -8.351   1.577 126.779  0.00  0.00    +0.000 C 
ATOM      5  C   UNL     1      -7.509   2.564 127.502  0.00  0.00    +0.000 C 
ATOM      6  C   UNL     1      -7.715   3.896 126.856  0.00  0.00    +0.000 C 
ATOM      7  C   UNL     1      -7.666   4.148 125.374  0.00  0.00    +0.000 C 
ATOM      8  C   UNL     1      -8.480   3.067 124.689  0.00  0.00    +0.000 C 
ATOM      9  C   UNL     1      -8.079   1.678 125.248  0.00  0.00    +0.000 C 
ATOM     10  C   UNL     1      -6.554   1.475 125.020  0.00  0.00    +0.000 C 
ATOM     11  C   UNL     1      -6.790   2.378 128.622  0.00  0.00    +0.000 C 
ENDROOT
BRANCH  11  12
ATOM     12  C   UNL     1      -6.224   3.482 129.386  0.00  0.00    +0.000 C 
ATOM     13  C   UNL     1      -5.046   4.107 129.158  0.00  0.00    +0.000 C 
ATOM     14  C   UNL     1      -4.596   5.249 130.034  0.00  0.00    +0.000 C 
ATOM     15  C   UNL     1      -4.153   6.446 129.180  0.00  0.00    +0.000 C 
ATOM     16  C   UNL     1      -3.132   6.036 128.116  0.00  0.00    +0.000 C 
ATOM     17  C   UNL     1      -3.731   4.996 127.172  0.00  0.00    +0.000 C 
ATOM     18  C   UNL     1      -4.097   3.836 128.046  0.00  0.00    +0.000 C 
ATOM     19  C   UNL     1      -3.194   2.873 127.956  0.00  0.00    +0.000 C 
BRANCH  15  20
ATOM     20  O   UNL     1      -3.588   7.452 130.013  0.00  0.00    +0.000 OA
ATOM     21  H   UNL     1      -4.004   8.299 129.776  0.00  0.00    +0.000 HD
ENDBRANCH  15  20
ENDBRANCH  11  12
BRANCH   1  22
ATOM     22  C   UNL     1      -9.008   0.023 123.349  0.00  0.00    +0.000 C 
ATOM     23  C   UNL     1     -10.221   0.564 122.574  0.00  0.00    +0.000 C 
BRANCH  22  24
ATOM     24  C   UNL     1      -8.935  -1.495 123.284  0.00  0.00    +0.000 C 
BRANCH  24  25
ATOM     25  C   UNL     1      -7.808  -2.002 122.433  0.00  0.00    +0.000 C 
BRANCH  25  26
ATOM     26  C   UNL     1      -6.473  -1.615 123.042  0.00  0.00    +0.000 C 
BRANCH  26  28
ATOM     27  C   UNL     1      -4.776  -3.394 123.438  0.00  0.00    +0.000 C 
ATOM     28  C   UNL     1      -6.011  -2.709 124.004  0.00  0.00    +0.000 C 
ATOM     29  C   UNL     1      -5.706  -2.138 125.392  0.00  0.00    +0.000 C 
ENDBRANCH  26  28
ENDBRANCH  25  26
ENDBRANCH  24  25
ENDBRANCH  22  24
ENDBRANCH   1  22
TORSDOF 7
ENDMDL
MODEL 6
REMARK VINA RESULT:      -7.3      5.549      8.992
REMARK  Name = Cholecalciferol
REMARK  11 active torsions:
REMARK  status: ('A' for Active; 'I' for Inactive)
REMARK    1  A    between atoms: C_1  and  C_2
REMARK    2  A    between atoms: C_2  and  C_3
REMARK    3  A    between atoms: C_2  and  C_4
REMARK    4  A    between atoms: C_4  and  C_5
REMARK    5  A    between atoms: C_5  and  C_6
REMARK    6  A    between atoms: C_6  and  C_7
REMARK    7  A    between atoms: C_7  and  C_8
REMARK    8  A    between atoms: C_7  and  C_9
REMARK    9  A    between atoms: C_19  and  C_20
REMARK   10  A    between atoms: C_21  and  C_22
REMARK   11  A    between atoms: C_25  and  O_26
REMARK                            x       y       z     vdW  Elec       q    Type
REMARK                         _______ _______ _______ _____ _____    ______ ____
ROOT
ATOM      1  C   UNL     1      -3.715   4.786 127.289  0.00  0.00    +0.000 C 
ATOM      2  C   UNL     1      -2.989   3.468 127.666  0.00  0.00    +0.000 C 
ATOM      3  C   UNL     1      -3.706   2.324 126.964  0.00  0.00    +0.000 C 
ATOM      4  C   UNL     1      -4.636   3.053 126.020  0.00  0.00    +0.000 C 
ATOM      5  C   UNL     1      -5.815   2.359 125.443  0.00  0.00    +0.000 C 
ATOM      6  C   UNL     1      -6.612   3.372 124.687  0.00  0.00    +0.000 C 
ATOM      7  C   UNL     1      -7.005   4.724 125.216  0.00  0.00    +0.000 C 
ATOM      8  C   UNL     1      -5.780   5.347 125.859  0.00  0.00    +0.000 C 
ATOM      9  C   UNL     1      -5.104   4.319 126.800  0.00  0.00    +0.000 C 
ATOM     10  C   UNL     1      -6.140   3.867 127.867  0.00  0.00    +0.000 C 
ATOM     11  C   UNL     1      -6.087   1.042 125.446  0.00  0.00    +0.000 C 
ENDROOT
BRANCH  11  12
ATOM     12  C   UNL     1      -7.130   0.453 124.618  0.00  0.00    +0.000 C 
ATOM     13  C   UNL     1      -7.271  -0.854 124.296  0.00  0.00    +0.000 C 
ATOM     14  C   UNL     1      -8.417  -1.317 123.432  0.00  0.00    +0.000 C 
ATOM     15  C   UNL     1      -9.125  -2.520 124.070  0.00  0.00    +0.000 C 
ATOM     16  C   UNL     1      -8.137  -3.627 124.444  0.00  0.00    +0.000 C 
ATOM     17  C   UNL     1      -7.111  -3.112 125.450  0.00  0.00    +0.000 C 
ATOM     18  C   UNL     1      -6.417  -1.979 124.759  0.00  0.00    +0.000 C 
ATOM     19  C   UNL     1      -5.238  -2.360 124.295  0.00  0.00    +0.000 C 
BRANCH  15  20
ATOM     20  O   UNL     1     -10.101  -3.040 123.174  0.00  0.00    +0.000 OA
ATOM     21  H   UNL     1     -10.950  -3.067 123.646  0.00  0.00    +0.000 HD
ENDBRANCH  15  20
ENDBRANCH  11  12
BRANCH   1  22
ATOM     22  C   UNL     1      -3.576   5.897 128.344  0.00  0.00    +0.000 C 
ATOM     23  C   UNL     1      -2.308   6.720 128.065  0.00  0.00    +0.000 C 
BRANCH  22  24
ATOM     24  C   UNL     1      -3.592   5.361 129.768  0.00  0.00    +0.000 C 
BRANCH  24  25
ATOM     25  C   UNL     1      -4.126   6.343 130.769  0.00  0.00    +0.000 C 
BRANCH  25  26
ATOM     26  C   UNL     1      -3.248   6.360 132.008  0.00  0.00    +0.000 C 
BRANCH  26  28
ATOM     27  C   UNL     1      -0.780   6.615 131.813  0.00  0.00    +0.000 C 
ATOM     28  C   UNL     1      -1.937   5.632 131.718  0.00  0.00    +0.000 C 
ATOM     29  C   UNL     1      -1.720   4.468 132.690  0.00  0.00    +0.000 C 
ENDBRANCH  26  28
ENDBRANCH  25  26
ENDBRANCH  24  25
ENDBRANCH  22  24
ENDBRANCH   1  22
TORSDOF 7
ENDMDL
MODEL 7
REMARK VINA RESULT:      -7.2      5.184      8.001
REMARK  Name = Cholecalciferol
REMARK  11 active torsions:
REMARK  status: ('A' for Active; 'I' for Inactive)
REMARK    1  A    between atoms: C_1  and  C_2
REMARK    2  A    between atoms: C_2  and  C_3
REMARK    3  A    between atoms: C_2  and  C_4
REMARK    4  A    between atoms: C_4  and  C_5
REMARK    5  A    between atoms: C_5  and  C_6
REMARK    6  A    between atoms: C_6  and  C_7
REMARK    7  A    between atoms: C_7  and  C_8
REMARK    8  A    between atoms: C_7  and  C_9
REMARK    9  A    between atoms: C_19  and  C_20
REMARK   10  A    between atoms: C_21  and  C_22
REMARK   11  A    between atoms: C_25  and  O_26
REMARK                            x       y       z     vdW  Elec       q    Type
REMARK                         _______ _______ _______ _____ _____    ______ ____
ROOT
ATOM      1  C   UNL     1      -6.484   1.108 126.350  0.00  0.00    +0.000 C 
ATOM      2  C   UNL     1      -6.421   2.363 125.441  0.00  0.00    +0.000 C 
ATOM      3  C   UNL     1      -7.034   3.525 126.209  0.00  0.00    +0.000 C 
ATOM      4  C   UNL     1      -7.180   2.955 127.602  0.00  0.00    +0.000 C 
ATOM      5  C   UNL     1      -8.110   3.580 128.577  0.00  0.00    +0.000 C 
ATOM      6  C   UNL     1      -8.147   2.708 129.791  0.00  0.00    +0.000 C 
ATOM      7  C   UNL     1      -8.332   1.216 129.771  0.00  0.00    +0.000 C 
ATOM      8  C   UNL     1      -7.413   0.646 128.706  0.00  0.00    +0.000 C 
ATOM      9  C   UNL     1      -7.565   1.459 127.395  0.00  0.00    +0.000 C 
ATOM     10  C   UNL     1      -9.055   1.407 126.951  0.00  0.00    +0.000 C 
ATOM     11  C   UNL     1      -8.717   4.776 128.494  0.00  0.00    +0.000 C 
ENDROOT
BRANCH  11  12
ATOM     12  C   UNL     1      -9.389   5.397 129.628  0.00  0.00    +0.000 C 
ATOM     13  C   UNL     1     -10.360   6.338 129.581  0.00  0.00    +0.000 C 
ATOM     14  C   UNL     1     -10.971   6.881 130.849  0.00  0.00    +0.000 C 
ATOM     15  C   UNL     1     -12.504   6.853 130.767  0.00  0.00    +0.000 C 
ATOM     16  C   UNL     1     -13.015   7.523 129.489  0.00  0.00    +0.000 C 
ATOM     17  C   UNL     1     -12.477   6.805 128.255  0.00  0.00    +0.000 C 
ATOM     18  C   UNL     1     -10.986   6.907 128.359  0.00  0.00    +0.000 C 
ATOM     19  C   UNL     1     -10.521   7.859 127.565  0.00  0.00    +0.000 C 
BRANCH  15  20
ATOM     20  O   UNL     1     -13.062   7.508 131.900  0.00  0.00    +0.000 OA
ATOM     21  H   UNL     1     -12.842   6.977 132.685  0.00  0.00    +0.000 HD
ENDBRANCH  15  20
ENDBRANCH  11  12
BRANCH   1  22
ATOM     22  C   UNL     1      -6.528  -0.219 125.574  0.00  0.00    +0.000 C 
ATOM     23  C   UNL     1      -5.156  -0.909 125.650  0.00  0.00    +0.000 C 
BRANCH  22  24
ATOM     24  C   UNL     1      -6.988  -0.044 124.135  0.00  0.00    +0.000 C 
BRANCH  24  25
ATOM     25  C   UNL     1      -7.264  -1.342 123.434  0.00  0.00    +0.000 C 
BRANCH  25  26
ATOM     26  C   UNL     1      -8.736  -1.695 123.543  0.00  0.00    +0.000 C 
BRANCH  26  28
ATOM     27  C   UNL     1      -7.591  -3.722 124.426  0.00  0.00    +0.000 C 
ATOM     28  C   UNL     1      -8.902  -2.950 124.400  0.00  0.00    +0.000 C 
ATOM     29  C   UNL     1      -9.332  -2.595 125.827  0.00  0.00    +0.000 C 
ENDBRANCH  26  28
ENDBRANCH  25  26
ENDBRANCH  24  25
ENDBRANCH  22  24
ENDBRANCH   1  22
TORSDOF 7
ENDMDL
MODEL 8
REMARK VINA RESULT:      -7.2      1.731      2.851
REMARK  Name = Cholecalciferol
REMARK  11 active torsions:
REMARK  status: ('A' for Active; 'I' for Inactive)
REMARK    1  A    between atoms: C_1  and  C_2
REMARK    2  A    between atoms: C_2  and  C_3
REMARK    3  A    between atoms: C_2  and  C_4
REMARK    4  A    between atoms: C_4  and  C_5
REMARK    5  A    between atoms: C_5  and  C_6
REMARK    6  A    between atoms: C_6  and  C_7
REMARK    7  A    between atoms: C_7  and  C_8
REMARK    8  A    between atoms: C_7  and  C_9
REMARK    9  A    between atoms: C_19  and  C_20
REMARK   10  A    between atoms: C_21  and  C_22
REMARK   11  A    between atoms: C_25  and  O_26
REMARK                            x       y       z     vdW  Elec       q    Type
REMARK                         _______ _______ _______ _____ _____    ______ ____
ROOT
ATOM      1  C   UNL     1      -8.676  -1.505 124.760  0.00  0.00    +0.000 C 
ATOM      2  C   UNL     1      -8.974  -3.026 124.721  0.00  0.00    +0.000 C 
ATOM      3  C   UNL     1      -8.678  -3.594 126.101  0.00  0.00    +0.000 C 
ATOM      4  C   UNL     1      -8.478  -2.346 126.932  0.00  0.00    +0.000 C 
ATOM      5  C   UNL     1      -7.763  -2.415 128.232  0.00  0.00    +0.000 C 
ATOM      6  C   UNL     1      -7.591  -1.016 128.729  0.00  0.00    +0.000 C 
ATOM      7  C   UNL     1      -7.075   0.131 127.905  0.00  0.00    +0.000 C 
ATOM      8  C   UNL     1      -7.786   0.101 126.565  0.00  0.00    +0.000 C 
ATOM      9  C   UNL     1      -7.755  -1.337 125.989  0.00  0.00    +0.000 C 
ATOM     10  C   UNL     1      -6.272  -1.785 125.857  0.00  0.00    +0.000 C 
ATOM     11  C   UNL     1      -7.438  -3.508 128.942  0.00  0.00    +0.000 C 
ENDROOT
BRANCH  11  12
ATOM     12  C   UNL     1      -6.981  -3.441 130.324  0.00  0.00    +0.000 C 
ATOM     13  C   UNL     1      -5.724  -3.183 130.752  0.00  0.00    +0.000 C 
ATOM     14  C   UNL     1      -5.405  -3.136 132.225  0.00  0.00    +0.000 C 
ATOM     15  C   UNL     1      -4.616  -1.863 132.568  0.00  0.00    +0.000 C 
ATOM     16  C   UNL     1      -3.397  -1.689 131.659  0.00  0.00    +0.000 C 
ATOM     17  C   UNL     1      -3.830  -1.580 130.199  0.00  0.00    +0.000 C 
ATOM     18  C   UNL     1      -4.545  -2.863 129.904  0.00  0.00    +0.000 C 
ATOM     19  C   UNL     1      -3.764  -3.697 129.237  0.00  0.00    +0.000 C 
BRANCH  15  20
ATOM     20  O   UNL     1      -4.191  -1.908 133.925  0.00  0.00    +0.000 OA
ATOM     21  H   UNL     1      -3.908  -2.819 134.116  0.00  0.00    +0.000 HD
ENDBRANCH  15  20
ENDBRANCH  11  12
BRANCH   1  22
ATOM     22  C   UNL     1      -8.294  -0.910 123.394  0.00  0.00    +0.000 C 
ATOM     23  C   UNL     1      -7.366  -1.881 122.647  0.00  0.00    +0.000 C 
BRANCH  22  24
ATOM     24  C   UNL     1      -7.678   0.476 123.507  0.00  0.00    +0.000 C 
BRANCH  24  25
ATOM     25  C   UNL     1      -8.659   1.587 123.273  0.00  0.00    +0.000 C 
BRANCH  25  26
ATOM     26  C   UNL     1      -8.110   2.896 123.811  0.00  0.00    +0.000 C 
BRANCH  26  28
ATOM     27  C   UNL     1      -6.012   3.775 122.799  0.00  0.00    +0.000 C 
ATOM     28  C   UNL     1      -6.584   2.835 123.850  0.00  0.00    +0.000 C 
ATOM     29  C   UNL     1      -6.048   3.207 125.235  0.00  0.00    +0.000 C 
ENDBRANCH  26  28
ENDBRANCH  25  26
ENDBRANCH  24  25
ENDBRANCH  22  24
ENDBRANCH   1  22
TORSDOF 7
ENDMDL
MODEL 9
REMARK VINA RESULT:      -7.2      3.767      5.053
REMARK  Name = Cholecalciferol
REMARK  11 active torsions:
REMARK  status: ('A' for Active; 'I' for Inactive)
REMARK    1  A    between atoms: C_1  and  C_2
REMARK    2  A    between atoms: C_2  and  C_3
REMARK    3  A    between atoms: C_2  and  C_4
REMARK    4  A    between atoms: C_4  and  C_5
REMARK    5  A    between atoms: C_5  and  C_6
REMARK    6  A    between atoms: C_6  and  C_7
REMARK    7  A    between atoms: C_7  and  C_8
REMARK    8  A    between atoms: C_7  and  C_9
REMARK    9  A    between atoms: C_19  and  C_20
REMARK   10  A    between atoms: C_21  and  C_22
REMARK   11  A    between atoms: C_25  and  O_26
REMARK                            x       y       z     vdW  Elec       q    Type
REMARK                         _______ _______ _______ _____ _____    ______ ____
ROOT
ATOM      1  C   UNL     1      -9.065   0.116 124.813  0.00  0.00    +0.000 C 
ATOM      2  C   UNL     1      -8.991  -1.125 125.739  0.00  0.00    +0.000 C 
ATOM      3  C   UNL     1      -8.557  -0.652 127.118  0.00  0.00    +0.000 C 
ATOM      4  C   UNL     1      -8.653   0.852 126.993  0.00  0.00    +0.000 C 
ATOM      5  C   UNL     1      -7.932   1.734 127.945  0.00  0.00    +0.000 C 
ATOM      6  C   UNL     1      -8.095   3.142 127.472  0.00  0.00    +0.000 C 
ATOM      7  C   UNL     1      -7.875   3.604 126.058  0.00  0.00    +0.000 C 
ATOM      8  C   UNL     1      -8.570   2.623 125.133  0.00  0.00    +0.000 C 
ATOM      9  C   UNL     1      -8.201   1.173 125.536  0.00  0.00    +0.000 C 
ATOM     10  C   UNL     1      -6.655   1.019 125.472  0.00  0.00    +0.000 C 
ATOM     11  C   UNL     1      -7.348   1.397 129.108  0.00  0.00    +0.000 C 
ENDROOT
BRANCH  11  12
ATOM     12  C   UNL     1      -6.909   2.386 130.083  0.00  0.00    +0.000 C 
ATOM     13  C   UNL     1      -7.669   2.992 131.025  0.00  0.00    +0.000 C 
ATOM     14  C   UNL     1      -7.065   3.994 131.976  0.00  0.00    +0.000 C 
ATOM     15  C   UNL     1      -7.457   3.670 133.425  0.00  0.00    +0.000 C 
ATOM     16  C   UNL     1      -8.969   3.495 133.578  0.00  0.00    +0.000 C 
ATOM     17  C   UNL     1      -9.467   2.349 132.702  0.00  0.00    +0.000 C 
ATOM     18  C   UNL     1      -9.108   2.740 131.301  0.00  0.00    +0.000 C 
ATOM     19  C   UNL     1     -10.162   3.214 130.657  0.00  0.00    +0.000 C 
BRANCH  15  20
ATOM     20  O   UNL     1      -7.011   4.707 134.291  0.00  0.00    +0.000 OA
ATOM     21  H   UNL     1      -6.899   4.324 135.178  0.00  0.00    +0.000 HD
ENDBRANCH  15  20
ENDBRANCH  11  12
BRANCH   1  22
ATOM     22  C   UNL     1      -8.849  -0.204 123.324  0.00  0.00    +0.000 C 
ATOM     23  C   UNL     1      -9.989   0.404 122.492  0.00  0.00    +0.000 C 
BRANCH  22  24
ATOM     24  C   UNL     1      -8.697  -1.694 123.060  0.00  0.00    +0.000 C 
BRANCH  24  25
ATOM     25  C   UNL     1      -7.451  -2.043 122.299  0.00  0.00    +0.000 C 
BRANCH  25  26
ATOM     26  C   UNL     1      -6.222  -1.743 123.138  0.00  0.00    +0.000 C 
BRANCH  26  28
ATOM     27  C   UNL     1      -4.627  -3.623 123.485  0.00  0.00    +0.000 C 
ATOM     28  C   UNL     1      -5.888  -2.952 124.010  0.00  0.00    +0.000 C 
ATOM     29  C   UNL     1      -5.697  -2.547 125.474  0.00  0.00    +0.000 C 
ENDBRANCH  26  28
ENDBRANCH  25  26
ENDBRANCH  24  25
ENDBRANCH  22  24
ENDBRANCH   1  22
TORSDOF 7
ENDMDL
