MODEL 1
REMARK VINA RESULT:      -8.1      0.000      0.000
REMARK  Name = Cholesterol
REMARK  11 active torsions:
REMARK  status: ('A' for Active; 'I' for Inactive)
REMARK    1  A    between atoms: C_2  and  C_25
REMARK    2  A    between atoms: C_13  and  O_14
REMARK    3  A    between atoms: C_17  and  C_18
REMARK    4  A    between atoms: C_23  and  C_24
REMARK    5  A    between atoms: C_25  and  C_26
REMARK    6  A    between atoms: C_25  and  C_27
REMARK    7  A    between atoms: C_27  and  C_28
REMARK    8  A    between atoms: C_28  and  C_29
REMARK    9  A    between atoms: C_29  and  C_30
REMARK   10  A    between atoms: C_30  and  C_31
REMARK   11  A    between atoms: C_30  and  C_32
REMARK                            x       y       z     vdW  Elec       q    Type
REMARK                         _______ _______ _______ _____ _____    ______ ____
ROOT
ATOM      1  C   UNL     1      -8.023  -1.354 124.341  0.00  0.00    +0.000 C 
ATOM      2  C   UNL     1      -8.718  -0.462 123.270  0.00  0.00    +0.000 C 
ATOM      3  C   UNL     1      -8.173   0.975 123.444  0.00  0.00    +0.000 C 
ATOM      4  C   UNL     1      -7.021   0.818 124.423  0.00  0.00    +0.000 C 
ATOM      5  C   UNL     1      -6.549   2.023 125.257  0.00  0.00    +0.000 C 
ATOM      6  C   UNL     1      -6.122   3.154 124.340  0.00  0.00    +0.000 C 
ATOM      7  C   UNL     1      -5.362   4.217 125.058  0.00  0.00    +0.000 C 
ATOM      8  C   UNL     1      -4.841   4.092 126.304  0.00  0.00    +0.000 C 
ATOM      9  C   UNL     1      -4.127   5.251 126.941  0.00  0.00    +0.000 C 
ATOM     10  C   UNL     1      -2.752   4.856 127.484  0.00  0.00    +0.000 C 
ATOM     11  C   UNL     1      -2.832   3.633 128.393  0.00  0.00    +0.000 C 
ATOM     12  C   UNL     1      -3.498   2.465 127.673  0.00  0.00    +0.000 C 
ATOM     13  C   UNL     1      -4.915   2.800 127.117  0.00  0.00    +0.000 C 
ATOM     14  C   UNL     1      -5.891   3.010 128.305  0.00  0.00    +0.000 C 
ATOM     15  C   UNL     1      -5.362   1.623 126.186  0.00  0.00    +0.000 C 
ATOM     16  C   UNL     1      -5.642   0.335 126.957  0.00  0.00    +0.000 C 
ATOM     17  C   UNL     1      -6.154  -0.750 126.030  0.00  0.00    +0.000 C 
ATOM     18  C   UNL     1      -7.494  -0.309 125.345  0.00  0.00    +0.000 C 
ATOM     19  C   UNL     1      -8.703   0.259 126.213  0.00  0.00    +0.000 C 
ENDROOT
BRANCH  10  20
ATOM     20  O   UNL     1      -2.187   5.945 128.209  0.00  0.00    +0.000 OA
ATOM     21  H   UNL     1      -1.220   5.844 128.190  0.00  0.00    +0.000 HD
ENDBRANCH  10  20
BRANCH   1  22
ATOM     22  C   UNL     1      -8.936  -2.481 124.919  0.00  0.00    +0.000 C 
ATOM     23  C   UNL     1      -9.425  -3.386 123.780  0.00  0.00    +0.000 C 
BRANCH  22  24
ATOM     24  C   UNL     1      -8.258  -3.389 125.993  0.00  0.00    +0.000 C 
BRANCH  24  25
ATOM     25  C   UNL     1      -9.078  -3.588 127.263  0.00  0.00    +0.000 C 
BRANCH  25  26
ATOM     26  C   UNL     1      -8.364  -3.729 128.587  0.00  0.00    +0.000 C 
BRANCH  26  27
ATOM     27  C   UNL     1      -7.314  -2.591 128.748  0.00  0.00    +0.000 C 
ATOM     28  C   UNL     1      -7.843  -1.375 129.516  0.00  0.00    +0.000 C 
ATOM     29  C   UNL     1      -6.072  -3.169 129.394  0.00  0.00    +0.000 C 
ENDBRANCH  26  27
ENDBRANCH  25  26
ENDBRANCH  24  25
ENDBRANCH  22  24
ENDBRANCH   1  22
TORSDOF 6
ENDMDL
MODEL 2
REMARK VINA RESULT:      -7.9      2.751      5.616
REMARK  Name = Cholesterol
REMARK  11 active torsions:
REMARK  status: ('A' for Active; 'I' for Inactive)
REMARK    1  A    between atoms: C_2  and  C_25
REMARK    2  A    between atoms: C_13  and  O_14
REMARK    3  A    between atoms: C_17  and  C_18
REMARK    4  A    between atoms: C_23  and  C_24
REMARK    5  A    between atoms: C_25  and  C_26
REMARK    6  A    between atoms: C_25  and  C_27
REMARK    7  A    between atoms: C_27  and  C_28
REMARK    8  A    between atoms: C_28  and  C_29
REMARK    9  A    between atoms: C_29  and  C_30
REMARK   10  A    between atoms: C_30  and  C_31
REMARK   11  A    between atoms: C_30  and  C_32
REMARK                            x       y       z     vdW  Elec       q    Type
REMARK                         _______ _______ _______ _____ _____    ______ ____
ROOT
ATOM      1  C   UNL     1      -8.269   2.296 125.025  0.00  0.00    +0.000 C 
ATOM      2  C   UNL     1      -8.869   1.364 126.120  0.00  0.00    +0.000 C 
ATOM      3  C   UNL     1      -8.049   1.586 127.412  0.00  0.00    +0.000 C 
ATOM      4  C   UNL     1      -7.183   2.795 127.098  0.00  0.00    +0.000 C 
ATOM      5  C   UNL     1      -5.879   3.032 127.880  0.00  0.00    +0.000 C 
ATOM      6  C   UNL     1      -6.176   3.148 129.364  0.00  0.00    +0.000 C 
ATOM      7  C   UNL     1      -5.024   3.690 130.138  0.00  0.00    +0.000 C 
ATOM      8  C   UNL     1      -3.937   4.292 129.594  0.00  0.00    +0.000 C 
ATOM      9  C   UNL     1      -2.817   4.764 130.478  0.00  0.00    +0.000 C 
ATOM     10  C   UNL     1      -2.435   6.220 130.200  0.00  0.00    +0.000 C 
ATOM     11  C   UNL     1      -2.167   6.462 128.718  0.00  0.00    +0.000 C 
ATOM     12  C   UNL     1      -3.363   6.034 127.873  0.00  0.00    +0.000 C 
ATOM     13  C   UNL     1      -3.785   4.549 128.096  0.00  0.00    +0.000 C 
ATOM     14  C   UNL     1      -2.679   3.617 127.535  0.00  0.00    +0.000 C 
ATOM     15  C   UNL     1      -5.163   4.326 127.385  0.00  0.00    +0.000 C 
ATOM     16  C   UNL     1      -5.057   4.379 125.863  0.00  0.00    +0.000 C 
ATOM     17  C   UNL     1      -6.394   4.072 125.217  0.00  0.00    +0.000 C 
ATOM     18  C   UNL     1      -6.880   2.633 125.605  0.00  0.00    +0.000 C 
ATOM     19  C   UNL     1      -5.914   1.377 125.446  0.00  0.00    +0.000 C 
ENDROOT
BRANCH  10  20
ATOM     20  O   UNL     1      -1.275   6.567 130.950  0.00  0.00    +0.000 OA
ATOM     21  H   UNL     1      -0.730   5.765 131.042  0.00  0.00    +0.000 HD
ENDBRANCH  10  20
BRANCH   1  22
ATOM     22  C   UNL     1      -8.298   1.687 123.587  0.00  0.00    +0.000 C 
ATOM     23  C   UNL     1      -9.225   0.464 123.560  0.00  0.00    +0.000 C 
BRANCH  22  24
ATOM     24  C   UNL     1      -8.771   2.669 122.468  0.00  0.00    +0.000 C 
BRANCH  24  25
ATOM     25  C   UNL     1      -7.650   3.465 121.810  0.00  0.00    +0.000 C 
BRANCH  25  26
ATOM     26  C   UNL     1      -6.274   2.851 121.705  0.00  0.00    +0.000 C 
BRANCH  26  27
ATOM     27  C   UNL     1      -5.325   3.801 120.918  0.00  0.00    +0.000 C 
ATOM     28  C   UNL     1      -6.038   4.623 119.840  0.00  0.00    +0.000 C 
ATOM     29  C   UNL     1      -4.595   4.683 121.908  0.00  0.00    +0.000 C 
ENDBRANCH  26  27
ENDBRANCH  25  26
ENDBRANCH  24  25
ENDBRANCH  22  24
ENDBRANCH   1  22
TORSDOF 6
ENDMDL
MODEL 3
REMARK VINA RESULT:      -7.9      1.653      2.575
REMARK  Name = Cholesterol
REMARK  11 active torsions:
REMARK  status: ('A' for Active; 'I' for Inactive)
REMARK    1  A    between atoms: C_2  and  C_25
REMARK    2  A    between atoms: C_13  and  O_14
REMARK    3  A    between atoms: C_17  and  C_18
REMARK    4  A    between atoms: C_23  and  C_24
REMARK    5  A    between atoms: C_25  and  C_26
REMARK    6  A    between atoms: C_25  and  C_27
REMARK    7  A    between atoms: C_27  and  C_28
REMARK    8  A    between atoms: C_28  and  C_29
REMARK    9  A    between atoms: C_29  and  C_30
REMARK   10  A    between atoms: C_30  and  C_31
REMARK   11  A    between atoms: C_30  and  C_32
REMARK                            x       y       z     vdW  Elec       q    Type
REMARK                         _______ _______ _______ _____ _____    ______ ____
ROOT
ATOM      1  C   UNL     1      -8.116  -0.481 124.006  0.00  0.00    +0.000 C 
ATOM      2  C   UNL     1      -8.973   0.551 123.213  0.00  0.00    +0.000 C 
ATOM      3  C   UNL     1      -8.472   1.961 123.603  0.00  0.00    +0.000 C 
ATOM      4  C   UNL     1      -7.204   1.698 124.398  0.00  0.00    +0.000 C 
ATOM      5  C   UNL     1      -6.686   2.751 125.393  0.00  0.00    +0.000 C 
ATOM      6  C   UNL     1      -6.422   4.060 124.673  0.00  0.00    +0.000 C 
ATOM      7  C   UNL     1      -5.626   5.015 125.495  0.00  0.00    +0.000 C 
ATOM      8  C   UNL     1      -4.953   4.692 126.627  0.00  0.00    +0.000 C 
ATOM      9  C   UNL     1      -4.216   5.754 127.394  0.00  0.00    +0.000 C 
ATOM     10  C   UNL     1      -2.770   5.354 127.694  0.00  0.00    +0.000 C 
ATOM     11  C   UNL     1      -2.687   3.979 128.350  0.00  0.00    +0.000 C 
ATOM     12  C   UNL     1      -3.386   2.926 127.495  0.00  0.00    +0.000 C 
ATOM     13  C   UNL     1      -4.873   3.268 127.176  0.00  0.00    +0.000 C 
ATOM     14  C   UNL     1      -5.705   3.186 128.483  0.00  0.00    +0.000 C 
ATOM     15  C   UNL     1      -5.380   2.261 126.089  0.00  0.00    +0.000 C 
ATOM     16  C   UNL     1      -5.510   0.835 126.621  0.00  0.00    +0.000 C 
ATOM     17  C   UNL     1      -6.084  -0.086 125.563  0.00  0.00    +0.000 C 
ATOM     18  C   UNL     1      -7.515   0.388 125.130  0.00  0.00    +0.000 C 
ATOM     19  C   UNL     1      -8.631   0.703 126.221  0.00  0.00    +0.000 C 
ENDROOT
BRANCH  10  20
ATOM     20  O   UNL     1      -2.168   6.321 128.550  0.00  0.00    +0.000 OA
ATOM     21  H   UNL     1      -2.670   7.150 128.459  0.00  0.00    +0.000 HD
ENDBRANCH  10  20
BRANCH   1  22
ATOM     22  C   UNL     1      -8.905  -1.753 124.451  0.00  0.00    +0.000 C 
ATOM     23  C   UNL     1      -9.346  -2.548 123.215  0.00  0.00    +0.000 C 
BRANCH  22  24
ATOM     24  C   UNL     1      -8.112  -2.723 125.385  0.00  0.00    +0.000 C 
BRANCH  24  25
ATOM     25  C   UNL     1      -7.032  -3.537 124.681  0.00  0.00    +0.000 C 
BRANCH  25  26
ATOM     26  C   UNL     1      -5.583  -3.303 125.038  0.00  0.00    +0.000 C 
BRANCH  26  27
ATOM     27  C   UNL     1      -4.709  -3.314 123.750  0.00  0.00    +0.000 C 
ATOM     28  C   UNL     1      -4.216  -4.711 123.358  0.00  0.00    +0.000 C 
ATOM     29  C   UNL     1      -5.489  -2.657 122.630  0.00  0.00    +0.000 C 
ENDBRANCH  26  27
ENDBRANCH  25  26
ENDBRANCH  24  25
ENDBRANCH  22  24
ENDBRANCH   1  22
TORSDOF 6
ENDMDL
MODEL 4
REMARK VINA RESULT:      -7.8      1.564      3.953
REMARK  Name = Cholesterol
REMARK  11 active torsions:
REMARK  status: ('A' for Active; 'I' for Inactive)
REMARK    1  A    between atoms: C_2  and  C_25
REMARK    2  A    between atoms: C_13  and  O_14
REMARK    3  A    between atoms: C_17  and  C_18
REMARK    4  A    between atoms: C_23  and  C_24
REMARK    5  A    between atoms: C_25  and  C_26
REMARK    6  A    between atoms: C_25  and  C_27
REMARK    7  A    between atoms: C_27  and  C_28
REMARK    8  A    between atoms: C_28  and  C_29
REMARK    9  A    between atoms: C_29  and  C_30
REMARK   10  A    between atoms: C_30  and  C_31
REMARK   11  A    between atoms: C_30  and  C_32
REMARK                            x       y       z     vdW  Elec       q    Type
REMARK                         _______ _______ _______ _____ _____    ______ ____
ROOT
ATOM      1  C   UNL     1      -8.000  -1.971 128.170  0.00  0.00    +0.000 C 
ATOM      2  C   UNL     1      -7.388  -2.529 129.489  0.00  0.00    +0.000 C 
ATOM      3  C   UNL     1      -6.340  -1.503 129.980  0.00  0.00    +0.000 C 
ATOM      4  C   UNL     1      -6.556  -0.294 129.084  0.00  0.00    +0.000 C 
ATOM      5  C   UNL     1      -5.422   0.724 128.877  0.00  0.00    +0.000 C 
ATOM      6  C   UNL     1      -4.998   1.309 130.212  0.00  0.00    +0.000 C 
ATOM      7  C   UNL     1      -4.140   2.518 130.061  0.00  0.00    +0.000 C 
ATOM      8  C   UNL     1      -3.977   3.215 128.910  0.00  0.00    +0.000 C 
ATOM      9  C   UNL     1      -3.051   4.399 128.871  0.00  0.00    +0.000 C 
ATOM     10  C   UNL     1      -3.721   5.639 128.274  0.00  0.00    +0.000 C 
ATOM     11  C   UNL     1      -4.363   5.340 126.923  0.00  0.00    +0.000 C 
ATOM     12  C   UNL     1      -5.347   4.179 127.033  0.00  0.00    +0.000 C 
ATOM     13  C   UNL     1      -4.714   2.878 127.614  0.00  0.00    +0.000 C 
ATOM     14  C   UNL     1      -3.697   2.307 126.591  0.00  0.00    +0.000 C 
ATOM     15  C   UNL     1      -5.873   1.871 127.921  0.00  0.00    +0.000 C 
ATOM     16  C   UNL     1      -6.542   1.338 126.656  0.00  0.00    +0.000 C 
ATOM     17  C   UNL     1      -7.597   0.303 126.997  0.00  0.00    +0.000 C 
ATOM     18  C   UNL     1      -6.956  -0.918 127.743  0.00  0.00    +0.000 C 
ATOM     19  C   UNL     1      -5.670  -1.648 127.153  0.00  0.00    +0.000 C 
ENDROOT
BRANCH  10  20
ATOM     20  O   UNL     1      -2.761   6.680 128.120  0.00  0.00    +0.000 OA
ATOM     21  H   UNL     1      -1.905   6.265 127.914  0.00  0.00    +0.000 HD
ENDBRANCH  10  20
BRANCH   1  22
ATOM     22  C   UNL     1      -8.356  -3.070 127.120  0.00  0.00    +0.000 C 
ATOM     23  C   UNL     1      -9.027  -4.259 127.821  0.00  0.00    +0.000 C 
BRANCH  22  24
ATOM     24  C   UNL     1      -9.302  -2.597 125.970  0.00  0.00    +0.000 C 
BRANCH  24  25
ATOM     25  C   UNL     1      -8.715  -2.739 124.570  0.00  0.00    +0.000 C 
BRANCH  25  26
ATOM     26  C   UNL     1      -7.398  -3.456 124.393  0.00  0.00    +0.000 C 
BRANCH  26  27
ATOM     27  C   UNL     1      -6.451  -2.616 123.488  0.00  0.00    +0.000 C 
ATOM     28  C   UNL     1      -6.630  -1.103 123.652  0.00  0.00    +0.000 C 
ATOM     29  C   UNL     1      -5.023  -3.046 123.751  0.00  0.00    +0.000 C 
ENDBRANCH  26  27
ENDBRANCH  25  26
ENDBRANCH  24  25
ENDBRANCH  22  24
ENDBRANCH   1  22
TORSDOF 6
ENDMDL
MODEL 5
REMARK VINA RESULT:      -7.7      3.240      5.642
REMARK  Name = Cholesterol
REMARK  11 active torsions:
REMARK  status: ('A' for Active; 'I' for Inactive)
REMARK    1  A    between atoms: C_2  and  C_25
REMARK    2  A    between atoms: C_13  and  O_14
REMARK    3  A    between atoms: C_17  and  C_18
REMARK    4  A    between atoms: C_23  and  C_24
REMARK    5  A    between atoms: C_25  and  C_26
REMARK    6  A    between atoms: C_25  and  C_27
REMARK    7  A    between atoms: C_27  and  C_28
REMARK    8  A    between atoms: C_28  and  C_29
REMARK    9  A    between atoms: C_29  and  C_30
REMARK   10  A    between atoms: C_30  and  C_31
REMARK   11  A    between atoms: C_30  and  C_32
REMARK                            x       y       z     vdW  Elec       q    Type
REMARK                         _______ _______ _______ _____ _____    ______ ____
ROOT
ATOM      1  C   UNL     1      -6.804  -1.266 126.090  0.00  0.00    +0.000 C 
ATOM      2  C   UNL     1      -6.066  -2.382 126.890  0.00  0.00    +0.000 C 
ATOM      3  C   UNL     1      -6.167  -2.015 128.389  0.00  0.00    +0.000 C 
ATOM      4  C   UNL     1      -7.153  -0.859 128.423  0.00  0.00    +0.000 C 
ATOM      5  C   UNL     1      -7.145   0.125 129.606  0.00  0.00    +0.000 C 
ATOM      6  C   UNL     1      -7.385  -0.621 130.905  0.00  0.00    +0.000 C 
ATOM      7  C   UNL     1      -7.707   0.291 132.039  0.00  0.00    +0.000 C 
ATOM      8  C   UNL     1      -8.043   1.599 131.911  0.00  0.00    +0.000 C 
ATOM      9  C   UNL     1      -8.309   2.431 133.135  0.00  0.00    +0.000 C 
ATOM     10  C   UNL     1      -9.638   3.183 133.047  0.00  0.00    +0.000 C 
ATOM     11  C   UNL     1      -9.754   3.977 131.750  0.00  0.00    +0.000 C 
ATOM     12  C   UNL     1      -9.550   3.072 130.539  0.00  0.00    +0.000 C 
ATOM     13  C   UNL     1      -8.198   2.296 130.560  0.00  0.00    +0.000 C 
ATOM     14  C   UNL     1      -7.031   3.302 130.377  0.00  0.00    +0.000 C 
ATOM     15  C   UNL     1      -8.237   1.223 129.421  0.00  0.00    +0.000 C 
ATOM     16  C   UNL     1      -8.202   1.842 128.025  0.00  0.00    +0.000 C 
ATOM     17  C   UNL     1      -8.154   0.767 126.958  0.00  0.00    +0.000 C 
ATOM     18  C   UNL     1      -6.867  -0.115 127.115  0.00  0.00    +0.000 C 
ATOM     19  C   UNL     1      -5.431   0.559 127.253  0.00  0.00    +0.000 C 
ENDROOT
BRANCH  10  20
ATOM     20  O   UNL     1      -9.767   4.069 134.155  0.00  0.00    +0.000 OA
ATOM     21  H   UNL     1      -8.895   4.135 134.583  0.00  0.00    +0.000 HD
ENDBRANCH  10  20
BRANCH   1  22
ATOM     22  C   UNL     1      -6.153  -0.939 124.709  0.00  0.00    +0.000 C 
ATOM     23  C   UNL     1      -5.194  -2.068 124.307  0.00  0.00    +0.000 C 
BRANCH  22  24
ATOM     24  C   UNL     1      -7.167  -0.734 123.538  0.00  0.00    +0.000 C 
BRANCH  24  25
ATOM     25  C   UNL     1      -7.772  -2.023 122.993  0.00  0.00    +0.000 C 
BRANCH  25  26
ATOM     26  C   UNL     1      -9.217  -2.343 123.294  0.00  0.00    +0.000 C 
BRANCH  26  27
ATOM     27  C   UNL     1      -9.302  -3.451 124.383  0.00  0.00    +0.000 C 
ATOM     28  C   UNL     1      -8.021  -4.282 124.512  0.00  0.00    +0.000 C 
ATOM     29  C   UNL     1      -9.692  -2.809 125.697  0.00  0.00    +0.000 C 
ENDBRANCH  26  27
ENDBRANCH  25  26
ENDBRANCH  24  25
ENDBRANCH  22  24
ENDBRANCH   1  22
TORSDOF 6
ENDMDL
MODEL 6
REMARK VINA RESULT:      -7.6      4.143      8.114
REMARK  Name = Cholesterol
REMARK  11 active torsions:
REMARK  status: ('A' for Active; 'I' for Inactive)
REMARK    1  A    between atoms: C_2  and  C_25
REMARK    2  A    between atoms: C_13  and  O_14
REMARK    3  A    between atoms: C_17  and  C_18
REMARK    4  A    between atoms: C_23  and  C_24
REMARK    5  A    between atoms: C_25  and  C_26
REMARK    6  A    between atoms: C_25  and  C_27
REMARK    7  A    between atoms: C_27  and  C_28
REMARK    8  A    between atoms: C_28  and  C_29
REMARK    9  A    between atoms: C_29  and  C_30
REMARK   10  A    between atoms: C_30  and  C_31
REMARK   11  A    between atoms: C_30  and  C_32
REMARK                            x       y       z     vdW  Elec       q    Type
REMARK                         _______ _______ _______ _____ _____    ______ ____
ROOT
ATOM      1  C   UNL     1      -6.508  -1.227 127.687  0.00  0.00    +0.000 C 
ATOM      2  C   UNL     1      -5.302  -2.077 127.187  0.00  0.00    +0.000 C 
ATOM      3  C   UNL     1      -4.905  -3.033 128.336  0.00  0.00    +0.000 C 
ATOM      4  C   UNL     1      -6.029  -2.883 129.348  0.00  0.00    +0.000 C 
ATOM      5  C   UNL     1      -5.787  -3.238 130.826  0.00  0.00    +0.000 C 
ATOM      6  C   UNL     1      -5.351  -4.686 130.948  0.00  0.00    +0.000 C 
ATOM      7  C   UNL     1      -5.410  -5.185 132.351  0.00  0.00    +0.000 C 
ATOM      8  C   UNL     1      -6.042  -4.556 133.373  0.00  0.00    +0.000 C 
ATOM      9  C   UNL     1      -5.998  -5.139 134.758  0.00  0.00    +0.000 C 
ATOM     10  C   UNL     1      -7.391  -5.259 135.381  0.00  0.00    +0.000 C 
ATOM     11  C   UNL     1      -8.157  -3.941 135.313  0.00  0.00    +0.000 C 
ATOM     12  C   UNL     1      -8.235  -3.432 133.877  0.00  0.00    +0.000 C 
ATOM     13  C   UNL     1      -6.843  -3.267 133.196  0.00  0.00    +0.000 C 
ATOM     14  C   UNL     1      -6.078  -2.103 133.880  0.00  0.00    +0.000 C 
ATOM     15  C   UNL     1      -7.077  -3.004 131.670  0.00  0.00    +0.000 C 
ATOM     16  C   UNL     1      -7.706  -1.639 131.396  0.00  0.00    +0.000 C 
ATOM     17  C   UNL     1      -7.834  -1.392 129.906  0.00  0.00    +0.000 C 
ATOM     18  C   UNL     1      -6.426  -1.409 129.217  0.00  0.00    +0.000 C 
ATOM     19  C   UNL     1      -5.226  -0.537 129.797  0.00  0.00    +0.000 C 
ENDROOT
BRANCH  10  20
ATOM     20  O   UNL     1      -7.279  -5.668 136.741  0.00  0.00    +0.000 OA
ATOM     21  H   UNL     1      -7.497  -6.616 136.784  0.00  0.00    +0.000 HD
ENDBRANCH  10  20
BRANCH   1  22
ATOM     22  C   UNL     1      -6.514   0.242 127.157  0.00  0.00    +0.000 C 
ATOM     23  C   UNL     1      -5.369   0.435 126.154  0.00  0.00    +0.000 C 
BRANCH  22  24
ATOM     24  C   UNL     1      -7.840   0.681 126.457  0.00  0.00    +0.000 C 
BRANCH  24  25
ATOM     25  C   UNL     1      -8.810  -0.459 126.168  0.00  0.00    +0.000 C 
BRANCH  25  26
ATOM     26  C   UNL     1      -8.795  -1.112 124.806  0.00  0.00    +0.000 C 
BRANCH  26  27
ATOM     27  C   UNL     1      -8.668  -2.655 124.957  0.00  0.00    +0.000 C 
ATOM     28  C   UNL     1      -9.184  -3.184 126.299  0.00  0.00    +0.000 C 
ATOM     29  C   UNL     1      -9.366  -3.315 123.786  0.00  0.00    +0.000 C 
ENDBRANCH  26  27
ENDBRANCH  25  26
ENDBRANCH  24  25
ENDBRANCH  22  24
ENDBRANCH   1  22
TORSDOF 6
ENDMDL
MODEL 7
REMARK VINA RESULT:      -7.6      3.077      6.338
REMARK  Name = Cholesterol
REMARK  11 active torsions:
REMARK  status: ('A' for Active; 'I' for Inactive)
REMARK    1  A    between atoms: C_2  and  C_25
REMARK    2  A    between atoms: C_13  and  O_14
REMARK    3  A    between atoms: C_17  and  C_18
REMARK    4  A    between atoms: C_23  and  C_24
REMARK    5  A    between atoms: C_25  and  C_26
REMARK    6  A    between atoms: C_25  and  C_27
REMARK    7  A    between atoms: C_27  and  C_28
REMARK    8  A    between atoms: C_28  and  C_29
REMARK    9  A    between atoms: C_29  and  C_30
REMARK   10  A    between atoms: C_30  and  C_31
REMARK   11  A    between atoms: C_30  and  C_32
REMARK                            x       y       z     vdW  Elec       q    Type
REMARK                         _______ _______ _______ _____ _____    ______ ____
ROOT
ATOM      1  C   UNL     1      -5.977   0.304 125.473  0.00  0.00    +0.000 C 
ATOM      2  C   UNL     1      -5.588   1.688 126.072  0.00  0.00    +0.000 C 
ATOM      3  C   UNL     1      -5.291   1.472 127.574  0.00  0.00    +0.000 C 
ATOM      4  C   UNL     1      -5.275  -0.039 127.735  0.00  0.00    +0.000 C 
ATOM      5  C   UNL     1      -5.533  -0.670 129.115  0.00  0.00    +0.000 C 
ATOM      6  C   UNL     1      -4.510  -0.167 130.116  0.00  0.00    +0.000 C 
ATOM      7  C   UNL     1      -4.498  -0.967 131.374  0.00  0.00    +0.000 C 
ATOM      8  C   UNL     1      -5.097  -2.174 131.532  0.00  0.00    +0.000 C 
ATOM      9  C   UNL     1      -5.050  -2.868 132.864  0.00  0.00    +0.000 C 
ATOM     10  C   UNL     1      -4.571  -4.317 132.745  0.00  0.00    +0.000 C 
ATOM     11  C   UNL     1      -5.364  -5.091 131.697  0.00  0.00    +0.000 C 
ATOM     12  C   UNL     1      -5.318  -4.382 130.348  0.00  0.00    +0.000 C 
ATOM     13  C   UNL     1      -5.818  -2.906 130.401  0.00  0.00    +0.000 C 
ATOM     14  C   UNL     1      -7.343  -2.896 130.687  0.00  0.00    +0.000 C 
ATOM     15  C   UNL     1      -5.469  -2.226 129.034  0.00  0.00    +0.000 C 
ATOM     16  C   UNL     1      -6.294  -2.778 127.873  0.00  0.00    +0.000 C 
ATOM     17  C   UNL     1      -5.986  -2.033 126.589  0.00  0.00    +0.000 C 
ATOM     18  C   UNL     1      -6.334  -0.511 126.733  0.00  0.00    +0.000 C 
ATOM     19  C   UNL     1      -7.754  -0.049 127.285  0.00  0.00    +0.000 C 
ENDROOT
BRANCH  10  20
ATOM     20  O   UNL     1      -4.692  -4.971 134.005  0.00  0.00    +0.000 OA
ATOM     21  H   UNL     1      -5.498  -5.517 133.979  0.00  0.00    +0.000 HD
ENDBRANCH  10  20
BRANCH   1  22
ATOM     22  C   UNL     1      -7.066   0.379 124.356  0.00  0.00    +0.000 C 
ATOM     23  C   UNL     1      -7.250   1.836 123.908  0.00  0.00    +0.000 C 
BRANCH  22  24
ATOM     24  C   UNL     1      -6.763  -0.477 123.085  0.00  0.00    +0.000 C 
BRANCH  24  25
ATOM     25  C   UNL     1      -7.564  -1.770 122.987  0.00  0.00    +0.000 C 
BRANCH  25  26
ATOM     26  C   UNL     1      -8.911  -1.855 123.665  0.00  0.00    +0.000 C 
BRANCH  26  27
ATOM     27  C   UNL     1      -9.038  -3.203 124.432  0.00  0.00    +0.000 C 
ATOM     28  C   UNL     1      -7.758  -4.045 124.404  0.00  0.00    +0.000 C 
ATOM     29  C   UNL     1      -9.491  -2.913 125.848  0.00  0.00    +0.000 C 
ENDBRANCH  26  27
ENDBRANCH  25  26
ENDBRANCH  24  25
ENDBRANCH  22  24
ENDBRANCH   1  22
TORSDOF 6
ENDMDL
MODEL 8
REMARK VINA RESULT:      -7.5      3.218      6.697
REMARK  Name = Cholesterol
REMARK  11 active torsions:
REMARK  status: ('A' for Active; 'I' for Inactive)
REMARK    1  A    between atoms: C_2  and  C_25
REMARK    2  A    between atoms: C_13  and  O_14
REMARK    3  A    between atoms: C_17  and  C_18
REMARK    4  A    between atoms: C_23  and  C_24
REMARK    5  A    between atoms: C_25  and  C_26
REMARK    6  A    between atoms: C_25  and  C_27
REMARK    7  A    between atoms: C_27  and  C_28
REMARK    8  A    between atoms: C_28  and  C_29
REMARK    9  A    between atoms: C_29  and  C_30
REMARK   10  A    between atoms: C_30  and  C_31
REMARK   11  A    between atoms: C_30  and  C_32
REMARK                            x       y       z     vdW  Elec       q    Type
REMARK                         _______ _______ _______ _____ _____    ______ ____
ROOT
ATOM      1  C   UNL     1      -8.460  -1.372 125.232  0.00  0.00    +0.000 C 
ATOM      2  C   UNL     1      -9.473  -2.530 125.472  0.00  0.00    +0.000 C 
ATOM      3  C   UNL     1      -9.012  -3.291 126.737  0.00  0.00    +0.000 C 
ATOM      4  C   UNL     1      -7.915  -2.413 127.318  0.00  0.00    +0.000 C 
ATOM      5  C   UNL     1      -6.853  -3.023 128.249  0.00  0.00    +0.000 C 
ATOM      6  C   UNL     1      -7.521  -3.651 129.458  0.00  0.00    +0.000 C 
ATOM      7  C   UNL     1      -6.553  -3.972 130.545  0.00  0.00    +0.000 C 
ATOM      8  C   UNL     1      -5.279  -3.512 130.611  0.00  0.00    +0.000 C 
ATOM      9  C   UNL     1      -4.382  -3.938 131.739  0.00  0.00    +0.000 C 
ATOM     10  C   UNL     1      -3.716  -2.747 132.431  0.00  0.00    +0.000 C 
ATOM     11  C   UNL     1      -3.020  -1.828 131.432  0.00  0.00    +0.000 C 
ATOM     12  C   UNL     1      -3.993  -1.366 130.351  0.00  0.00    +0.000 C 
ATOM     13  C   UNL     1      -4.686  -2.539 129.593  0.00  0.00    +0.000 C 
ATOM     14  C   UNL     1      -3.629  -3.287 128.738  0.00  0.00    +0.000 C 
ATOM     15  C   UNL     1      -5.836  -1.936 128.716  0.00  0.00    +0.000 C 
ATOM     16  C   UNL     1      -5.312  -1.098 127.552  0.00  0.00    +0.000 C 
ATOM     17  C   UNL     1      -6.454  -0.609 126.682  0.00  0.00    +0.000 C 
ATOM     18  C   UNL     1      -7.247  -1.817 126.074  0.00  0.00    +0.000 C 
ATOM     19  C   UNL     1      -6.483  -2.999 125.329  0.00  0.00    +0.000 C 
ENDROOT
BRANCH  10  20
ATOM     20  O   UNL     1      -2.764  -3.211 133.384  0.00  0.00    +0.000 OA
ATOM     21  H   UNL     1      -1.936  -3.398 132.909  0.00  0.00    +0.000 HD
ENDBRANCH  10  20
BRANCH   1  22
ATOM     22  C   UNL     1      -8.191  -1.064 123.725  0.00  0.00    +0.000 C 
ATOM     23  C   UNL     1      -8.959  -2.062 122.848  0.00  0.00    +0.000 C 
BRANCH  22  24
ATOM     24  C   UNL     1      -8.587   0.377 123.269  0.00  0.00    +0.000 C 
BRANCH  24  25
ATOM     25  C   UNL     1      -7.486   1.418 123.433  0.00  0.00    +0.000 C 
BRANCH  25  26
ATOM     26  C   UNL     1      -7.683   2.797 122.850  0.00  0.00    +0.000 C 
BRANCH  26  27
ATOM     27  C   UNL     1      -6.397   3.246 122.098  0.00  0.00    +0.000 C 
ATOM     28  C   UNL     1      -6.673   3.837 120.712  0.00  0.00    +0.000 C 
ATOM     29  C   UNL     1      -5.634   4.213 122.980  0.00  0.00    +0.000 C 
ENDBRANCH  26  27
ENDBRANCH  25  26
ENDBRANCH  24  25
ENDBRANCH  22  24
ENDBRANCH   1  22
TORSDOF 6
ENDMDL
MODEL 9
REMARK VINA RESULT:      -7.5      3.763      6.951
REMARK  Name = Cholesterol
REMARK  11 active torsions:
REMARK  status: ('A' for Active; 'I' for Inactive)
REMARK    1  A    between atoms: C_2  and  C_25
REMARK    2  A    between atoms: C_13  and  O_14
REMARK    3  A    between atoms: C_17  and  C_18
REMARK    4  A    between atoms: C_23  and  C_24
REMARK    5  A    between atoms: C_25  and  C_26
REMARK    6  A    between atoms: C_25  and  C_27
REMARK    7  A    between atoms: C_27  and  C_28
REMARK    8  A    between atoms: C_28  and  C_29
REMARK    9  A    between atoms: C_29  and  C_30
REMARK   10  A    between atoms: C_30  and  C_31
REMARK   11  A    between atoms: C_30  and  C_32
REMARK                            x       y       z     vdW  Elec       q    Type
REMARK                         _______ _______ _______ _____ _____    ______ ____
ROOT
ATOM      1  C   UNL     1      -7.226  -1.494 126.750  0.00  0.00    +0.000 C 
ATOM      2  C   UNL     1      -6.337  -0.219 126.647  0.00  0.00    +0.000 C 
ATOM      3  C   UNL     1      -5.391  -0.219 127.871  0.00  0.00    +0.000 C 
ATOM      4  C   UNL     1      -5.588  -1.591 128.493  0.00  0.00    +0.000 C 
ATOM      5  C   UNL     1      -5.254  -1.820 129.977  0.00  0.00    +0.000 C 
ATOM      6  C   UNL     1      -3.797  -1.486 130.239  0.00  0.00    +0.000 C 
ATOM      7  C   UNL     1      -3.325  -1.982 131.563  0.00  0.00    +0.000 C 
ATOM      8  C   UNL     1      -3.988  -2.875 132.339  0.00  0.00    +0.000 C 
ATOM      9  C   UNL     1      -3.429  -3.271 133.677  0.00  0.00    +0.000 C 
ATOM     10  C   UNL     1      -3.357  -4.790 133.849  0.00  0.00    +0.000 C 
ATOM     11  C   UNL     1      -4.693  -5.458 133.540  0.00  0.00    +0.000 C 
ATOM     12  C   UNL     1      -5.178  -5.083 132.143  0.00  0.00    +0.000 C 
ATOM     13  C   UNL     1      -5.295  -3.545 131.915  0.00  0.00    +0.000 C 
ATOM     14  C   UNL     1      -6.450  -2.988 132.789  0.00  0.00    +0.000 C 
ATOM     15  C   UNL     1      -5.536  -3.298 130.388  0.00  0.00    +0.000 C 
ATOM     16  C   UNL     1      -6.912  -3.772 129.924  0.00  0.00    +0.000 C 
ATOM     17  C   UNL     1      -7.136  -3.435 128.463  0.00  0.00    +0.000 C 
ATOM     18  C   UNL     1      -7.069  -1.885 128.234  0.00  0.00    +0.000 C 
ATOM     19  C   UNL     1      -7.919  -0.891 129.143  0.00  0.00    +0.000 C 
ENDROOT
BRANCH  10  20
ATOM     20  O   UNL     1      -2.969  -5.108 135.182  0.00  0.00    +0.000 OA
ATOM     21  H   UNL     1      -2.036  -5.385 135.161  0.00  0.00    +0.000 HD
ENDBRANCH  10  20
BRANCH   1  22
ATOM     22  C   UNL     1      -8.685  -1.295 126.229  0.00  0.00    +0.000 C 
ATOM     23  C   UNL     1      -8.767  -0.007 125.399  0.00  0.00    +0.000 C 
BRANCH  22  24
ATOM     24  C   UNL     1      -9.234  -2.465 125.352  0.00  0.00    +0.000 C 
BRANCH  24  25
ATOM     25  C   UNL     1      -8.339  -2.849 124.179  0.00  0.00    +0.000 C 
BRANCH  25  26
ATOM     26  C   UNL     1      -7.262  -3.888 124.384  0.00  0.00    +0.000 C 
BRANCH  26  27
ATOM     27  C   UNL     1      -5.860  -3.253 124.156  0.00  0.00    +0.000 C 
ATOM     28  C   UNL     1      -4.780  -4.273 123.779  0.00  0.00    +0.000 C 
ATOM     29  C   UNL     1      -5.987  -2.158 123.118  0.00  0.00    +0.000 C 
ENDBRANCH  26  27
ENDBRANCH  25  26
ENDBRANCH  24  25
ENDBRANCH  22  24
ENDBRANCH   1  22
TORSDOF 6
ENDMDL
