MODEL 1
REMARK VINA RESULT:      -7.6      0.000      0.000
REMARK  Name = Cholic Acid
REMARK  11 active torsions:
REMARK  status: ('A' for Active; 'I' for Inactive)
REMARK    1  A    between atoms: C_2  and  C_3
REMARK    2  A    between atoms: C_2  and  C_4
REMARK    3  A    between atoms: C_2  and  C_9
REMARK    4  A    between atoms: C_4  and  C_5
REMARK    5  A    between atoms: C_5  and  C_6
REMARK    6  A    between atoms: C_6  and  O_7
REMARK    7  A    between atoms: C_17  and  O_19
REMARK    8  A    between atoms: C_24  and  O_26
REMARK    9  A    between atoms: C_29  and  C_30
REMARK   10  A    between atoms: C_34  and  O_36
REMARK   11  A    between atoms: C_37  and  C_38
REMARK                            x       y       z     vdW  Elec       q    Type
REMARK                         _______ _______ _______ _____ _____    ______ ____
ROOT
ATOM      1  C   UNL     1      -7.528   2.724 123.163  0.00  0.00    +0.000 C 
ATOM      2  C   UNL     1      -7.071   1.230 123.099  0.00  0.00    +0.000 C 
ATOM      3  C   UNL     1      -6.566   0.856 124.487  0.00  0.00    +0.000 C 
ATOM      4  C   UNL     1      -7.139   1.940 125.378  0.00  0.00    +0.000 C 
ATOM      5  C   UNL     1      -6.522   2.082 126.769  0.00  0.00    +0.000 C 
ATOM      6  C   UNL     1      -6.502   0.759 127.535  0.00  0.00    +0.000 C 
ATOM      7  C   UNL     1      -5.980   0.954 128.955  0.00  0.00    +0.000 C 
ATOM      8  C   UNL     1      -6.661   2.102 129.728  0.00  0.00    +0.000 C 
ATOM      9  C   UNL     1      -8.082   1.687 130.157  0.00  0.00    +0.000 C 
ATOM     10  C   UNL     1      -8.808   2.778 130.931  0.00  0.00    +0.000 C 
ATOM     11  C   UNL     1      -8.851   4.069 130.125  0.00  0.00    +0.000 C 
ATOM     12  C   UNL     1      -7.443   4.517 129.754  0.00  0.00    +0.000 C 
ATOM     13  C   UNL     1      -6.643   3.455 128.947  0.00  0.00    +0.000 C 
ATOM     14  C   UNL     1      -5.184   3.979 128.860  0.00  0.00    +0.000 C 
ATOM     15  C   UNL     1      -7.251   3.231 127.522  0.00  0.00    +0.000 C 
ATOM     16  C   UNL     1      -7.328   4.539 126.690  0.00  0.00    +0.000 C 
ATOM     17  C   UNL     1      -7.812   4.330 125.254  0.00  0.00    +0.000 C 
ATOM     18  C   UNL     1      -6.970   3.235 124.546  0.00  0.00    +0.000 C 
ATOM     19  C   UNL     1      -5.449   3.622 124.504  0.00  0.00    +0.000 C 
ENDROOT
BRANCH   1  20
ATOM     20  C   UNL     1      -7.214   3.560 121.875  0.00  0.00    +0.000 C 
ATOM     21  C   UNL     1      -8.450   3.697 120.981  0.00  0.00    +0.000 C 
BRANCH  20  22
ATOM     22  C   UNL     1      -6.016   2.988 121.115  0.00  0.00    +0.000 C 
BRANCH  22  23
ATOM     23  C   UNL     1      -4.771   3.814 120.939  0.00  0.00    +0.000 C 
BRANCH  23  24
ATOM     24  C   UNL     1      -5.005   5.175 120.298  0.00  0.00    +0.000 C 
ATOM     25  O   UNL     1      -5.697   5.292 119.305  0.00  0.00    +0.000 OA
BRANCH  24  26
ATOM     26  O   UNL     1      -4.375   6.252 120.826  0.00  0.00    +0.000 OA
ATOM     27  H   UNL     1      -3.625   6.652 120.358  0.00  0.00    +0.000 HD
ENDBRANCH  24  26
ENDBRANCH  23  24
ENDBRANCH  22  23
ENDBRANCH  20  22
ENDBRANCH   1  20
BRANCH   6  28
ATOM     28  O   UNL     1      -7.785   0.153 127.580  0.00  0.00    +0.000 OA
ATOM     29  H   UNL     1      -8.415   0.781 127.968  0.00  0.00    +0.000 HD
ENDBRANCH   6  28
BRANCH  10  30
ATOM     30  O   UNL     1     -10.144   2.369 131.203  0.00  0.00    +0.000 OA
ATOM     31  H   UNL     1     -10.672   2.556 130.408  0.00  0.00    +0.000 HD
ENDBRANCH  10  30
BRANCH  17  32
ATOM     32  O   UNL     1      -9.200   3.996 125.263  0.00  0.00    +0.000 OA
ATOM     33  H   UNL     1      -9.288   3.026 125.263  0.00  0.00    +0.000 HD
ENDBRANCH  17  32
TORSDOF 8
ENDMDL
MODEL 2
REMARK VINA RESULT:      -7.5      4.308      5.709
REMARK  Name = Cholic Acid
REMARK  11 active torsions:
REMARK  status: ('A' for Active; 'I' for Inactive)
REMARK    1  A    between atoms: C_2  and  C_3
REMARK    2  A    between atoms: C_2  and  C_4
REMARK    3  A    between atoms: C_2  and  C_9
REMARK    4  A    between atoms: C_4  and  C_5
REMARK    5  A    between atoms: C_5  and  C_6
REMARK    6  A    between atoms: C_6  and  O_7
REMARK    7  A    between atoms: C_17  and  O_19
REMARK    8  A    between atoms: C_24  and  O_26
REMARK    9  A    between atoms: C_29  and  C_30
REMARK   10  A    between atoms: C_34  and  O_36
REMARK   11  A    between atoms: C_37  and  C_38
REMARK                            x       y       z     vdW  Elec       q    Type
REMARK                         _______ _______ _______ _____ _____    ______ ____
ROOT
ATOM      1  C   UNL     1      -8.311  -1.322 125.114  0.00  0.00    +0.000 C 
ATOM      2  C   UNL     1      -9.274  -2.518 125.410  0.00  0.00    +0.000 C 
ATOM      3  C   UNL     1      -8.702  -3.266 126.608  0.00  0.00    +0.000 C 
ATOM      4  C   UNL     1      -7.734  -2.273 127.219  0.00  0.00    +0.000 C 
ATOM      5  C   UNL     1      -6.716  -2.832 128.213  0.00  0.00    +0.000 C 
ATOM      6  C   UNL     1      -7.374  -3.644 129.328  0.00  0.00    +0.000 C 
ATOM      7  C   UNL     1      -6.345  -4.097 130.360  0.00  0.00    +0.000 C 
ATOM      8  C   UNL     1      -5.431  -2.968 130.879  0.00  0.00    +0.000 C 
ATOM      9  C   UNL     1      -6.209  -2.055 131.848  0.00  0.00    +0.000 C 
ATOM     10  C   UNL     1      -5.358  -0.921 132.401  0.00  0.00    +0.000 C 
ATOM     11  C   UNL     1      -4.753  -0.102 131.269  0.00  0.00    +0.000 C 
ATOM     12  C   UNL     1      -3.931  -0.991 130.345  0.00  0.00    +0.000 C 
ATOM     13  C   UNL     1      -4.740  -2.168 129.729  0.00  0.00    +0.000 C 
ATOM     14  C   UNL     1      -3.707  -3.083 129.015  0.00  0.00    +0.000 C 
ATOM     15  C   UNL     1      -5.832  -1.660 128.730  0.00  0.00    +0.000 C 
ATOM     16  C   UNL     1      -5.241  -0.802 127.579  0.00  0.00    +0.000 C 
ATOM     17  C   UNL     1      -6.270  -0.387 126.526  0.00  0.00    +0.000 C 
ATOM     18  C   UNL     1      -7.041  -1.627 125.996  0.00  0.00    +0.000 C 
ATOM     19  C   UNL     1      -6.064  -2.672 125.348  0.00  0.00    +0.000 C 
ENDROOT
BRANCH   1  20
ATOM     20  C   UNL     1      -8.107  -1.007 123.592  0.00  0.00    +0.000 C 
ATOM     21  C   UNL     1      -7.081   0.111 123.383  0.00  0.00    +0.000 C 
BRANCH  20  22
ATOM     22  C   UNL     1      -9.438  -0.702 122.900  0.00  0.00    +0.000 C 
BRANCH  22  23
ATOM     23  C   UNL     1      -9.862   0.724 122.681  0.00  0.00    +0.000 C 
BRANCH  23  24
ATOM     24  C   UNL     1     -10.497   1.386 123.896  0.00  0.00    +0.000 C 
ATOM     25  O   UNL     1      -9.817   1.941 124.737  0.00  0.00    +0.000 OA
BRANCH  24  26
ATOM     26  O   UNL     1     -11.839   1.291 124.052  0.00  0.00    +0.000 OA
ATOM     27  H   UNL     1     -12.424   1.940 123.630  0.00  0.00    +0.000 HD
ENDBRANCH  24  26
ENDBRANCH  23  24
ENDBRANCH  22  23
ENDBRANCH  20  22
ENDBRANCH   1  20
BRANCH   6  28
ATOM     28  O   UNL     1      -8.408  -2.918 129.975  0.00  0.00    +0.000 OA
ATOM     29  H   UNL     1      -9.028  -2.590 129.303  0.00  0.00    +0.000 HD
ENDBRANCH   6  28
BRANCH  10  30
ATOM     30  O   UNL     1      -6.163  -0.062 133.201  0.00  0.00    +0.000 OA
ATOM     31  H   UNL     1      -6.658   0.518 132.597  0.00  0.00    +0.000 HD
ENDBRANCH  10  30
BRANCH  17  32
ATOM     32  O   UNL     1      -7.160   0.580 127.085  0.00  0.00    +0.000 OA
ATOM     33  H   UNL     1      -7.981   0.587 126.560  0.00  0.00    +0.000 HD
ENDBRANCH  17  32
TORSDOF 8
ENDMDL
MODEL 3
REMARK VINA RESULT:      -7.4      5.833      7.269
REMARK  Name = Cholic Acid
REMARK  11 active torsions:
REMARK  status: ('A' for Active; 'I' for Inactive)
REMARK    1  A    between atoms: C_2  and  C_3
REMARK    2  A    between atoms: C_2  and  C_4
REMARK    3  A    between atoms: C_2  and  C_9
REMARK    4  A    between atoms: C_4  and  C_5
REMARK    5  A    between atoms: C_5  and  C_6
REMARK    6  A    between atoms: C_6  and  O_7
REMARK    7  A    between atoms: C_17  and  O_19
REMARK    8  A    between atoms: C_24  and  O_26
REMARK    9  A    between atoms: C_29  and  C_30
REMARK   10  A    between atoms: C_34  and  O_36
REMARK   11  A    between atoms: C_37  and  C_38
REMARK                            x       y       z     vdW  Elec       q    Type
REMARK                         _______ _______ _______ _____ _____    ______ ____
ROOT
ATOM      1  C   UNL     1     -11.219   5.614 130.869  0.00  0.00    +0.000 C 
ATOM      2  C   UNL     1     -11.595   4.191 130.340  0.00  0.00    +0.000 C 
ATOM      3  C   UNL     1     -10.320   3.357 130.352  0.00  0.00    +0.000 C 
ATOM      4  C   UNL     1      -9.395   4.135 131.266  0.00  0.00    +0.000 C 
ATOM      5  C   UNL     1      -7.910   3.779 131.204  0.00  0.00    +0.000 C 
ATOM      6  C   UNL     1      -7.661   2.283 131.392  0.00  0.00    +0.000 C 
ATOM      7  C   UNL     1      -6.168   1.973 131.431  0.00  0.00    +0.000 C 
ATOM      8  C   UNL     1      -5.364   2.857 132.406  0.00  0.00    +0.000 C 
ATOM      9  C   UNL     1      -5.634   2.427 133.861  0.00  0.00    +0.000 C 
ATOM     10  C   UNL     1      -4.864   3.261 134.875  0.00  0.00    +0.000 C 
ATOM     11  C   UNL     1      -5.166   4.742 134.694  0.00  0.00    +0.000 C 
ATOM     12  C   UNL     1      -4.840   5.185 133.273  0.00  0.00    +0.000 C 
ATOM     13  C   UNL     1      -5.603   4.384 132.179  0.00  0.00    +0.000 C 
ATOM     14  C   UNL     1      -4.985   4.805 130.818  0.00  0.00    +0.000 C 
ATOM     15  C   UNL     1      -7.140   4.674 132.217  0.00  0.00    +0.000 C 
ATOM     16  C   UNL     1      -7.472   6.182 132.058  0.00  0.00    +0.000 C 
ATOM     17  C   UNL     1      -8.971   6.479 131.977  0.00  0.00    +0.000 C 
ATOM     18  C   UNL     1      -9.643   5.613 130.877  0.00  0.00    +0.000 C 
ATOM     19  C   UNL     1      -9.007   5.886 129.468  0.00  0.00    +0.000 C 
ENDROOT
BRANCH   1  20
ATOM     20  C   UNL     1     -11.963   6.795 130.155  0.00  0.00    +0.000 C 
ATOM     21  C   UNL     1     -12.871   7.554 131.127  0.00  0.00    +0.000 C 
BRANCH  20  22
ATOM     22  C   UNL     1     -12.722   6.312 128.918  0.00  0.00    +0.000 C 
BRANCH  22  23
ATOM     23  C   UNL     1     -12.769   7.168 127.682  0.00  0.00    +0.000 C 
BRANCH  23  24
ATOM     24  C   UNL     1     -11.405   7.511 127.101  0.00  0.00    +0.000 C 
ATOM     25  O   UNL     1     -10.808   6.725 126.391  0.00  0.00    +0.000 OA
BRANCH  24  26
ATOM     26  O   UNL     1     -10.838   8.693 127.442  0.00  0.00    +0.000 OA
ATOM     27  H   UNL     1      -9.964   8.708 127.865  0.00  0.00    +0.000 HD
ENDBRANCH  24  26
ENDBRANCH  23  24
ENDBRANCH  22  23
ENDBRANCH  20  22
ENDBRANCH   1  20
BRANCH   6  28
ATOM     28  O   UNL     1      -8.280   1.785 132.568  0.00  0.00    +0.000 OA
ATOM     29  H   UNL     1      -7.724   2.009 133.333  0.00  0.00    +0.000 HD
ENDBRANCH   6  28
BRANCH  10  30
ATOM     30  O   UNL     1      -5.238   2.881 136.195  0.00  0.00    +0.000 OA
ATOM     31  H   UNL     1      -4.563   3.233 136.801  0.00  0.00    +0.000 HD
ENDBRANCH  10  30
BRANCH  17  32
ATOM     32  O   UNL     1      -9.570   6.258 133.254  0.00  0.00    +0.000 OA
ATOM     33  H   UNL     1     -10.148   7.015 133.463  0.00  0.00    +0.000 HD
ENDBRANCH  17  32
TORSDOF 8
ENDMDL
MODEL 4
REMARK VINA RESULT:      -7.4      3.745      5.572
REMARK  Name = Cholic Acid
REMARK  11 active torsions:
REMARK  status: ('A' for Active; 'I' for Inactive)
REMARK    1  A    between atoms: C_2  and  C_3
REMARK    2  A    between atoms: C_2  and  C_4
REMARK    3  A    between atoms: C_2  and  C_9
REMARK    4  A    between atoms: C_4  and  C_5
REMARK    5  A    between atoms: C_5  and  C_6
REMARK    6  A    between atoms: C_6  and  O_7
REMARK    7  A    between atoms: C_17  and  O_19
REMARK    8  A    between atoms: C_24  and  O_26
REMARK    9  A    between atoms: C_29  and  C_30
REMARK   10  A    between atoms: C_34  and  O_36
REMARK   11  A    between atoms: C_37  and  C_38
REMARK                            x       y       z     vdW  Elec       q    Type
REMARK                         _______ _______ _______ _____ _____    ______ ____
ROOT
ATOM      1  C   UNL     1      -7.312  -1.892 126.623  0.00  0.00    +0.000 C 
ATOM      2  C   UNL     1      -6.218  -1.952 125.508  0.00  0.00    +0.000 C 
ATOM      3  C   UNL     1      -5.698  -0.534 125.313  0.00  0.00    +0.000 C 
ATOM      4  C   UNL     1      -6.151   0.187 126.567  0.00  0.00    +0.000 C 
ATOM      5  C   UNL     1      -6.123   1.715 126.528  0.00  0.00    +0.000 C 
ATOM      6  C   UNL     1      -4.762   2.261 126.099  0.00  0.00    +0.000 C 
ATOM      7  C   UNL     1      -4.732   3.785 126.172  0.00  0.00    +0.000 C 
ATOM      8  C   UNL     1      -5.231   4.363 127.512  0.00  0.00    +0.000 C 
ATOM      9  C   UNL     1      -4.173   4.149 128.612  0.00  0.00    +0.000 C 
ATOM     10  C   UNL     1      -4.606   4.704 129.962  0.00  0.00    +0.000 C 
ATOM     11  C   UNL     1      -5.941   4.108 130.385  0.00  0.00    +0.000 C 
ATOM     12  C   UNL     1      -7.005   4.374 129.328  0.00  0.00    +0.000 C 
ATOM     13  C   UNL     1      -6.638   3.821 127.921  0.00  0.00    +0.000 C 
ATOM     14  C   UNL     1      -7.708   4.375 126.941  0.00  0.00    +0.000 C 
ATOM     15  C   UNL     1      -6.609   2.256 127.903  0.00  0.00    +0.000 C 
ATOM     16  C   UNL     1      -7.954   1.625 128.355  0.00  0.00    +0.000 C 
ATOM     17  C   UNL     1      -7.990   0.100 128.238  0.00  0.00    +0.000 C 
ATOM     18  C   UNL     1      -7.583  -0.350 126.808  0.00  0.00    +0.000 C 
ATOM     19  C   UNL     1      -8.546   0.252 125.725  0.00  0.00    +0.000 C 
ENDROOT
BRANCH   1  20
ATOM     20  C   UNL     1      -8.536  -2.844 126.392  0.00  0.00    +0.000 C 
ATOM     21  C   UNL     1      -8.761  -3.768 127.592  0.00  0.00    +0.000 C 
BRANCH  20  22
ATOM     22  C   UNL     1      -8.398  -3.624 125.083  0.00  0.00    +0.000 C 
BRANCH  22  23
ATOM     23  C   UNL     1      -9.379  -3.397 123.965  0.00  0.00    +0.000 C 
BRANCH  23  24
ATOM     24  C   UNL     1      -9.039  -2.221 123.060  0.00  0.00    +0.000 C 
ATOM     25  O   UNL     1      -7.942  -2.119 122.546  0.00  0.00    +0.000 OA
BRANCH  24  26
ATOM     26  O   UNL     1      -9.971  -1.253 122.886  0.00  0.00    +0.000 OA
ATOM     27  H   UNL     1      -9.760  -0.331 123.105  0.00  0.00    +0.000 HD
ENDBRANCH  24  26
ENDBRANCH  23  24
ENDBRANCH  22  23
ENDBRANCH  20  22
ENDBRANCH   1  20
BRANCH   6  28
ATOM     28  O   UNL     1      -3.704   1.727 126.880  0.00  0.00    +0.000 OA
ATOM     29  H   UNL     1      -2.858   1.978 126.475  0.00  0.00    +0.000 HD
ENDBRANCH   6  28
BRANCH  10  30
ATOM     30  O   UNL     1      -3.632   4.382 130.950  0.00  0.00    +0.000 OA
ATOM     31  H   UNL     1      -3.892   4.834 131.771  0.00  0.00    +0.000 HD
ENDBRANCH  10  30
BRANCH  17  32
ATOM     32  O   UNL     1      -7.137  -0.474 129.228  0.00  0.00    +0.000 OA
ATOM     33  H   UNL     1      -6.210  -0.325 128.966  0.00  0.00    +0.000 HD
ENDBRANCH  17  32
TORSDOF 8
ENDMDL
MODEL 5
REMARK VINA RESULT:      -7.3      3.736      8.521
REMARK  Name = Cholic Acid
REMARK  11 active torsions:
REMARK  status: ('A' for Active; 'I' for Inactive)
REMARK    1  A    between atoms: C_2  and  C_3
REMARK    2  A    between atoms: C_2  and  C_4
REMARK    3  A    between atoms: C_2  and  C_9
REMARK    4  A    between atoms: C_4  and  C_5
REMARK    5  A    between atoms: C_5  and  C_6
REMARK    6  A    between atoms: C_6  and  O_7
REMARK    7  A    between atoms: C_17  and  O_19
REMARK    8  A    between atoms: C_24  and  O_26
REMARK    9  A    between atoms: C_29  and  C_30
REMARK   10  A    between atoms: C_34  and  O_36
REMARK   11  A    between atoms: C_37  and  C_38
REMARK                            x       y       z     vdW  Elec       q    Type
REMARK                         _______ _______ _______ _____ _____    ______ ____
ROOT
ATOM      1  C   UNL     1      -7.758   0.519 130.237  0.00  0.00    +0.000 C 
ATOM      2  C   UNL     1      -8.269   1.914 129.750  0.00  0.00    +0.000 C 
ATOM      3  C   UNL     1      -8.128   1.939 128.233  0.00  0.00    +0.000 C 
ATOM      4  C   UNL     1      -7.980   0.475 127.866  0.00  0.00    +0.000 C 
ATOM      5  C   UNL     1      -7.445   0.170 126.467  0.00  0.00    +0.000 C 
ATOM      6  C   UNL     1      -8.235   0.886 125.372  0.00  0.00    +0.000 C 
ATOM      7  C   UNL     1      -7.747   0.478 123.985  0.00  0.00    +0.000 C 
ATOM      8  C   UNL     1      -7.645  -1.046 123.773  0.00  0.00    +0.000 C 
ATOM      9  C   UNL     1      -9.051  -1.657 123.611  0.00  0.00    +0.000 C 
ATOM     10  C   UNL     1      -9.019  -3.163 123.393  0.00  0.00    +0.000 C 
ATOM     11  C   UNL     1      -8.265  -3.853 124.522  0.00  0.00    +0.000 C 
ATOM     12  C   UNL     1      -6.853  -3.296 124.643  0.00  0.00    +0.000 C 
ATOM     13  C   UNL     1      -6.807  -1.759 124.882  0.00  0.00    +0.000 C 
ATOM     14  C   UNL     1      -5.317  -1.340 124.750  0.00  0.00    +0.000 C 
ATOM     15  C   UNL     1      -7.382  -1.374 126.286  0.00  0.00    +0.000 C 
ATOM     16  C   UNL     1      -6.644  -2.085 127.452  0.00  0.00    +0.000 C 
ATOM     17  C   UNL     1      -7.110  -1.641 128.840  0.00  0.00    +0.000 C 
ATOM     18  C   UNL     1      -7.053  -0.094 128.967  0.00  0.00    +0.000 C 
ATOM     19  C   UNL     1      -5.596   0.444 128.738  0.00  0.00    +0.000 C 
ENDROOT
BRANCH   1  20
ATOM     20  C   UNL     1      -6.969   0.547 131.591  0.00  0.00    +0.000 C 
ATOM     21  C   UNL     1      -7.547  -0.453 132.597  0.00  0.00    +0.000 C 
BRANCH  20  22
ATOM     22  C   UNL     1      -6.894   1.962 132.166  0.00  0.00    +0.000 C 
BRANCH  22  23
ATOM     23  C   UNL     1      -7.615   2.295 133.443  0.00  0.00    +0.000 C 
BRANCH  23  24
ATOM     24  C   UNL     1      -8.899   3.090 133.252  0.00  0.00    +0.000 C 
ATOM     25  O   UNL     1      -8.951   4.275 133.522  0.00  0.00    +0.000 OA
BRANCH  24  26
ATOM     26  O   UNL     1     -10.005   2.434 132.828  0.00  0.00    +0.000 OA
ATOM     27  H   UNL     1     -10.859   2.590 133.264  0.00  0.00    +0.000 HD
ENDBRANCH  24  26
ENDBRANCH  23  24
ENDBRANCH  22  23
ENDBRANCH  20  22
ENDBRANCH   1  20
BRANCH   6  28
ATOM     28  O   UNL     1      -9.629   0.640 125.476  0.00  0.00    +0.000 OA
ATOM     29  H   UNL     1     -10.096   1.216 124.849  0.00  0.00    +0.000 HD
ENDBRANCH   6  28
BRANCH  10  30
ATOM     30  O   UNL     1     -10.347  -3.673 123.357  0.00  0.00    +0.000 OA
ATOM     31  H   UNL     1     -10.284  -4.639 123.261  0.00  0.00    +0.000 HD
ENDBRANCH  10  30
BRANCH  17  32
ATOM     32  O   UNL     1      -8.428  -2.135 129.081  0.00  0.00    +0.000 OA
ATOM     33  H   UNL     1      -8.686  -2.710 128.338  0.00  0.00    +0.000 HD
ENDBRANCH  17  32
TORSDOF 8
ENDMDL
MODEL 6
REMARK VINA RESULT:      -7.2      3.255      5.652
REMARK  Name = Cholic Acid
REMARK  11 active torsions:
REMARK  status: ('A' for Active; 'I' for Inactive)
REMARK    1  A    between atoms: C_2  and  C_3
REMARK    2  A    between atoms: C_2  and  C_4
REMARK    3  A    between atoms: C_2  and  C_9
REMARK    4  A    between atoms: C_4  and  C_5
REMARK    5  A    between atoms: C_5  and  C_6
REMARK    6  A    between atoms: C_6  and  O_7
REMARK    7  A    between atoms: C_17  and  O_19
REMARK    8  A    between atoms: C_24  and  O_26
REMARK    9  A    between atoms: C_29  and  C_30
REMARK   10  A    between atoms: C_34  and  O_36
REMARK   11  A    between atoms: C_37  and  C_38
REMARK                            x       y       z     vdW  Elec       q    Type
REMARK                         _______ _______ _______ _____ _____    ______ ____
ROOT
ATOM      1  C   UNL     1      -7.024   1.927 125.912  0.00  0.00    +0.000 C 
ATOM      2  C   UNL     1      -7.828   2.923 126.811  0.00  0.00    +0.000 C 
ATOM      3  C   UNL     1      -8.246   2.160 128.062  0.00  0.00    +0.000 C 
ATOM      4  C   UNL     1      -7.334   0.950 128.062  0.00  0.00    +0.000 C 
ATOM      5  C   UNL     1      -7.736  -0.213 128.970  0.00  0.00    +0.000 C 
ATOM      6  C   UNL     1      -7.982   0.232 130.411  0.00  0.00    +0.000 C 
ATOM      7  C   UNL     1      -8.277  -0.963 131.313  0.00  0.00    +0.000 C 
ATOM      8  C   UNL     1      -7.258  -2.115 131.190  0.00  0.00    +0.000 C 
ATOM      9  C   UNL     1      -5.938  -1.735 131.888  0.00  0.00    +0.000 C 
ATOM     10  C   UNL     1      -4.890  -2.836 131.807  0.00  0.00    +0.000 C 
ATOM     11  C   UNL     1      -4.633  -3.226 130.358  0.00  0.00    +0.000 C 
ATOM     12  C   UNL     1      -5.926  -3.663 129.682  0.00  0.00    +0.000 C 
ATOM     13  C   UNL     1      -7.043  -2.581 129.715  0.00  0.00    +0.000 C 
ATOM     14  C   UNL     1      -8.336  -3.270 129.198  0.00  0.00    +0.000 C 
ATOM     15  C   UNL     1      -6.672  -1.340 128.835  0.00  0.00    +0.000 C 
ATOM     16  C   UNL     1      -6.382  -1.717 127.357  0.00  0.00    +0.000 C 
ATOM     17  C   UNL     1      -6.129  -0.511 126.451  0.00  0.00    +0.000 C 
ATOM     18  C   UNL     1      -7.283   0.521 126.576  0.00  0.00    +0.000 C 
ATOM     19  C   UNL     1      -8.662  -0.116 126.179  0.00  0.00    +0.000 C 
ENDROOT
BRANCH   1  20
ATOM     20  C   UNL     1      -7.275   2.086 124.373  0.00  0.00    +0.000 C 
ATOM     21  C   UNL     1      -6.260   3.038 123.735  0.00  0.00    +0.000 C 
BRANCH  20  22
ATOM     22  C   UNL     1      -8.718   2.504 124.082  0.00  0.00    +0.000 C 
BRANCH  22  23
ATOM     23  C   UNL     1      -9.394   2.045 122.819  0.00  0.00    +0.000 C 
BRANCH  23  24
ATOM     24  C   UNL     1     -10.514   1.037 123.037  0.00  0.00    +0.000 C 
ATOM     25  O   UNL     1     -10.561   0.002 122.400  0.00  0.00    +0.000 OA
BRANCH  24  26
ATOM     26  O   UNL     1     -11.496   1.345 123.917  0.00  0.00    +0.000 OA
ATOM     27  H   UNL     1     -12.322   0.836 123.921  0.00  0.00    +0.000 HD
ENDBRANCH  24  26
ENDBRANCH  23  24
ENDBRANCH  22  23
ENDBRANCH  20  22
ENDBRANCH   1  20
BRANCH   6  28
ATOM     28  O   UNL     1      -6.885   0.963 130.936  0.00  0.00    +0.000 OA
ATOM     29  H   UNL     1      -7.213   1.578 131.613  0.00  0.00    +0.000 HD
ENDBRANCH   6  28
BRANCH  10  30
ATOM     30  O   UNL     1      -3.668  -2.381 132.377  0.00  0.00    +0.000 OA
ATOM     31  H   UNL     1      -3.351  -3.077 132.978  0.00  0.00    +0.000 HD
ENDBRANCH  10  30
BRANCH  17  32
ATOM     32  O   UNL     1      -4.869   0.075 126.778  0.00  0.00    +0.000 OA
ATOM     33  H   UNL     1      -4.405  -0.511 127.403  0.00  0.00    +0.000 HD
ENDBRANCH  17  32
TORSDOF 8
ENDMDL
MODEL 7
REMARK VINA RESULT:      -7.2      3.613      5.843
REMARK  Name = Cholic Acid
REMARK  11 active torsions:
REMARK  status: ('A' for Active; 'I' for Inactive)
REMARK    1  A    between atoms: C_2  and  C_3
REMARK    2  A    between atoms: C_2  and  C_4
REMARK    3  A    between atoms: C_2  and  C_9
REMARK    4  A    between atoms: C_4  and  C_5
REMARK    5  A    between atoms: C_5  and  C_6
REMARK    6  A    between atoms: C_6  and  O_7
REMARK    7  A    between atoms: C_17  and  O_19
REMARK    8  A    between atoms: C_24  and  O_26
REMARK    9  A    between atoms: C_29  and  C_30
REMARK   10  A    between atoms: C_34  and  O_36
REMARK   11  A    between atoms: C_37  and  C_38
REMARK                            x       y       z     vdW  Elec       q    Type
REMARK                         _______ _______ _______ _____ _____    ______ ____
ROOT
ATOM      1  C   UNL     1      -5.104   2.208 126.509  0.00  0.00    +0.000 C 
ATOM      2  C   UNL     1      -4.835   3.283 125.406  0.00  0.00    +0.000 C 
ATOM      3  C   UNL     1      -4.647   4.617 126.117  0.00  0.00    +0.000 C 
ATOM      4  C   UNL     1      -4.372   4.219 127.553  0.00  0.00    +0.000 C 
ATOM      5  C   UNL     1      -4.507   5.318 128.607  0.00  0.00    +0.000 C 
ATOM      6  C   UNL     1      -3.686   6.560 128.263  0.00  0.00    +0.000 C 
ATOM      7  C   UNL     1      -3.757   7.595 129.382  0.00  0.00    +0.000 C 
ATOM      8  C   UNL     1      -3.457   7.029 130.786  0.00  0.00    +0.000 C 
ATOM      9  C   UNL     1      -1.948   6.759 130.940  0.00  0.00    +0.000 C 
ATOM     10  C   UNL     1      -1.585   6.202 132.310  0.00  0.00    +0.000 C 
ATOM     11  C   UNL     1      -2.385   4.941 132.606  0.00  0.00    +0.000 C 
ATOM     12  C   UNL     1      -3.880   5.221 132.517  0.00  0.00    +0.000 C 
ATOM     13  C   UNL     1      -4.328   5.781 131.136  0.00  0.00    +0.000 C 
ATOM     14  C   UNL     1      -5.810   6.216 131.301  0.00  0.00    +0.000 C 
ATOM     15  C   UNL     1      -4.174   4.714 130.002  0.00  0.00    +0.000 C 
ATOM     16  C   UNL     1      -4.962   3.408 130.293  0.00  0.00    +0.000 C 
ATOM     17  C   UNL     1      -4.921   2.394 129.149  0.00  0.00    +0.000 C 
ATOM     18  C   UNL     1      -5.359   3.056 127.814  0.00  0.00    +0.000 C 
ATOM     19  C   UNL     1      -6.816   3.631 127.913  0.00  0.00    +0.000 C 
ENDROOT
BRANCH   1  20
ATOM     20  C   UNL     1      -6.152   1.111 126.113  0.00  0.00    +0.000 C 
ATOM     21  C   UNL     1      -5.568  -0.298 126.255  0.00  0.00    +0.000 C 
BRANCH  20  22
ATOM     22  C   UNL     1      -6.720   1.360 124.715  0.00  0.00    +0.000 C 
BRANCH  22  23
ATOM     23  C   UNL     1      -8.175   1.701 124.544  0.00  0.00    +0.000 C 
BRANCH  23  24
ATOM     24  C   UNL     1      -8.449   3.176 124.286  0.00  0.00    +0.000 C 
ATOM     25  O   UNL     1      -8.824   3.912 125.178  0.00  0.00    +0.000 OA
BRANCH  24  26
ATOM     26  O   UNL     1      -8.322   3.642 123.020  0.00  0.00    +0.000 OA
ATOM     27  H   UNL     1      -8.630   4.536 122.799  0.00  0.00    +0.000 HD
ENDBRANCH  24  26
ENDBRANCH  23  24
ENDBRANCH  22  23
ENDBRANCH  20  22
ENDBRANCH   1  20
BRANCH   6  28
ATOM     28  O   UNL     1      -2.329   6.243 127.995  0.00  0.00    +0.000 OA
ATOM     29  H   UNL     1      -2.155   6.384 127.050  0.00  0.00    +0.000 HD
ENDBRANCH   6  28
BRANCH  10  30
ATOM     30  O   UNL     1      -0.199   5.879 132.348  0.00  0.00    +0.000 OA
ATOM     31  H   UNL     1      -0.129   4.912 132.424  0.00  0.00    +0.000 HD
ENDBRANCH  10  30
BRANCH  17  32
ATOM     32  O   UNL     1      -3.609   1.839 129.050  0.00  0.00    +0.000 OA
ATOM     33  H   UNL     1      -3.478   1.507 128.143  0.00  0.00    +0.000 HD
ENDBRANCH  17  32
TORSDOF 8
ENDMDL
MODEL 8
REMARK VINA RESULT:      -7.2      2.964      5.131
REMARK  Name = Cholic Acid
REMARK  11 active torsions:
REMARK  status: ('A' for Active; 'I' for Inactive)
REMARK    1  A    between atoms: C_2  and  C_3
REMARK    2  A    between atoms: C_2  and  C_4
REMARK    3  A    between atoms: C_2  and  C_9
REMARK    4  A    between atoms: C_4  and  C_5
REMARK    5  A    between atoms: C_5  and  C_6
REMARK    6  A    between atoms: C_6  and  O_7
REMARK    7  A    between atoms: C_17  and  O_19
REMARK    8  A    between atoms: C_24  and  O_26
REMARK    9  A    between atoms: C_29  and  C_30
REMARK   10  A    between atoms: C_34  and  O_36
REMARK   11  A    between atoms: C_37  and  C_38
REMARK                            x       y       z     vdW  Elec       q    Type
REMARK                         _______ _______ _______ _____ _____    ______ ____
ROOT
ATOM      1  C   UNL     1      -8.211   1.888 125.266  0.00  0.00    +0.000 C 
ATOM      2  C   UNL     1      -8.904   1.231 126.504  0.00  0.00    +0.000 C 
ATOM      3  C   UNL     1      -7.990   1.457 127.701  0.00  0.00    +0.000 C 
ATOM      4  C   UNL     1      -7.070   2.571 127.241  0.00  0.00    +0.000 C 
ATOM      5  C   UNL     1      -5.795   2.788 128.055  0.00  0.00    +0.000 C 
ATOM      6  C   UNL     1      -6.077   2.953 129.548  0.00  0.00    +0.000 C 
ATOM      7  C   UNL     1      -4.799   3.274 130.318  0.00  0.00    +0.000 C 
ATOM      8  C   UNL     1      -3.972   4.429 129.717  0.00  0.00    +0.000 C 
ATOM      9  C   UNL     1      -4.653   5.780 130.008  0.00  0.00    +0.000 C 
ATOM     10  C   UNL     1      -3.880   6.964 129.444  0.00  0.00    +0.000 C 
ATOM     11  C   UNL     1      -3.653   6.793 127.948  0.00  0.00    +0.000 C 
ATOM     12  C   UNL     1      -2.923   5.487 127.662  0.00  0.00    +0.000 C 
ATOM     13  C   UNL     1      -3.662   4.229 128.199  0.00  0.00    +0.000 C 
ATOM     14  C   UNL     1      -2.681   3.037 128.026  0.00  0.00    +0.000 C 
ATOM     15  C   UNL     1      -5.003   3.974 127.433  0.00  0.00    +0.000 C 
ATOM     16  C   UNL     1      -4.800   3.821 125.901  0.00  0.00    +0.000 C 
ATOM     17  C   UNL     1      -6.077   3.458 125.142  0.00  0.00    +0.000 C 
ATOM     18  C   UNL     1      -6.752   2.209 125.771  0.00  0.00    +0.000 C 
ATOM     19  C   UNL     1      -5.792   0.967 125.744  0.00  0.00    +0.000 C 
ENDROOT
BRANCH   1  20
ATOM     20  C   UNL     1      -8.380   1.095 123.924  0.00  0.00    +0.000 C 
ATOM     21  C   UNL     1      -9.189   1.896 122.899  0.00  0.00    +0.000 C 
BRANCH  20  22
ATOM     22  C   UNL     1      -8.975  -0.293 124.166  0.00  0.00    +0.000 C 
BRANCH  22  23
ATOM     23  C   UNL     1      -9.121  -1.259 123.021  0.00  0.00    +0.000 C 
BRANCH  23  24
ATOM     24  C   UNL     1      -9.053  -2.726 123.424  0.00  0.00    +0.000 C 
ATOM     25  O   UNL     1      -7.999  -3.242 123.742  0.00  0.00    +0.000 OA
BRANCH  24  26
ATOM     26  O   UNL     1     -10.187  -3.464 123.362  0.00  0.00    +0.000 OA
ATOM     27  H   UNL     1     -10.288  -4.247 123.926  0.00  0.00    +0.000 HD
ENDBRANCH  24  26
ENDBRANCH  23  24
ENDBRANCH  22  23
ENDBRANCH  20  22
ENDBRANCH   1  20
BRANCH   6  28
ATOM     28  O   UNL     1      -7.046   3.960 129.797  0.00  0.00    +0.000 OA
ATOM     29  H   UNL     1      -6.913   4.686 129.166  0.00  0.00    +0.000 HD
ENDBRANCH   6  28
BRANCH  10  30
ATOM     30  O   UNL     1      -4.614   8.164 129.657  0.00  0.00    +0.000 OA
ATOM     31  H   UNL     1      -5.237   8.259 128.915  0.00  0.00    +0.000 HD
ENDBRANCH  10  30
BRANCH  17  32
ATOM     32  O   UNL     1      -6.961   4.580 125.133  0.00  0.00    +0.000 OA
ATOM     33  H   UNL     1      -6.430   5.395 125.089  0.00  0.00    +0.000 HD
ENDBRANCH  17  32
TORSDOF 8
ENDMDL
MODEL 9
REMARK VINA RESULT:      -7.2      2.230      3.419
REMARK  Name = Cholic Acid
REMARK  11 active torsions:
REMARK  status: ('A' for Active; 'I' for Inactive)
REMARK    1  A    between atoms: C_2  and  C_3
REMARK    2  A    between atoms: C_2  and  C_4
REMARK    3  A    between atoms: C_2  and  C_9
REMARK    4  A    between atoms: C_4  and  C_5
REMARK    5  A    between atoms: C_5  and  C_6
REMARK    6  A    between atoms: C_6  and  O_7
REMARK    7  A    between atoms: C_17  and  O_19
REMARK    8  A    between atoms: C_24  and  O_26
REMARK    9  A    between atoms: C_29  and  C_30
REMARK   10  A    between atoms: C_34  and  O_36
REMARK   11  A    between atoms: C_37  and  C_38
REMARK                            x       y       z     vdW  Elec       q    Type
REMARK                         _______ _______ _______ _____ _____    ______ ____
ROOT
ATOM      1  C   UNL     1      -6.467   3.127 123.260  0.00  0.00    +0.000 C 
ATOM      2  C   UNL     1      -5.388   4.164 123.717  0.00  0.00    +0.000 C 
ATOM      3  C   UNL     1      -5.220   4.002 125.222  0.00  0.00    +0.000 C 
ATOM      4  C   UNL     1      -5.832   2.644 125.504  0.00  0.00    +0.000 C 
ATOM      5  C   UNL     1      -6.167   2.333 126.963  0.00  0.00    +0.000 C 
ATOM      6  C   UNL     1      -4.974   2.550 127.894  0.00  0.00    +0.000 C 
ATOM      7  C   UNL     1      -5.307   2.131 129.322  0.00  0.00    +0.000 C 
ATOM      8  C   UNL     1      -5.930   0.724 129.440  0.00  0.00    +0.000 C 
ATOM      9  C   UNL     1      -4.852  -0.356 129.224  0.00  0.00    +0.000 C 
ATOM     10  C   UNL     1      -5.405  -1.770 129.333  0.00  0.00    +0.000 C 
ATOM     11  C   UNL     1      -6.561  -1.971 128.363  0.00  0.00    +0.000 C 
ATOM     12  C   UNL     1      -7.657  -0.944 128.616  0.00  0.00    +0.000 C 
ATOM     13  C   UNL     1      -7.168   0.529 128.508  0.00  0.00    +0.000 C 
ATOM     14  C   UNL     1      -8.339   1.417 129.013  0.00  0.00    +0.000 C 
ATOM     15  C   UNL     1      -6.769   0.900 127.041  0.00  0.00    +0.000 C 
ATOM     16  C   UNL     1      -7.925   0.681 126.029  0.00  0.00    +0.000 C 
ATOM     17  C   UNL     1      -7.599   1.142 124.607  0.00  0.00    +0.000 C 
ATOM     18  C   UNL     1      -7.096   2.612 124.611  0.00  0.00    +0.000 C 
ATOM     19  C   UNL     1      -8.173   3.583 125.212  0.00  0.00    +0.000 C 
ENDROOT
BRANCH   1  20
ATOM     20  C   UNL     1      -7.430   3.637 122.134  0.00  0.00    +0.000 C 
ATOM     21  C   UNL     1      -8.750   2.861 122.131  0.00  0.00    +0.000 C 
BRANCH  20  22
ATOM     22  C   UNL     1      -6.748   3.617 120.764  0.00  0.00    +0.000 C 
BRANCH  22  23
ATOM     23  C   UNL     1      -5.300   4.002 120.639  0.00  0.00    +0.000 C 
BRANCH  23  24
ATOM     24  C   UNL     1      -5.067   5.421 120.138  0.00  0.00    +0.000 C 
ATOM     25  O   UNL     1      -5.538   5.801 119.083  0.00  0.00    +0.000 OA
BRANCH  24  26
ATOM     26  O   UNL     1      -4.271   6.238 120.867  0.00  0.00    +0.000 OA
ATOM     27  H   UNL     1      -4.514   7.170 120.991  0.00  0.00    +0.000 HD
ENDBRANCH  24  26
ENDBRANCH  23  24
ENDBRANCH  22  23
ENDBRANCH  20  22
ENDBRANCH   1  20
BRANCH   6  28
ATOM     28  O   UNL     1      -3.820   1.852 127.450  0.00  0.00    +0.000 OA
ATOM     29  H   UNL     1      -4.052   1.333 126.663  0.00  0.00    +0.000 HD
ENDBRANCH   6  28
BRANCH  10  30
ATOM     30  O   UNL     1      -4.383  -2.712 129.021  0.00  0.00    +0.000 OA
ATOM     31  H   UNL     1      -4.729  -3.293 128.321  0.00  0.00    +0.000 HD
ENDBRANCH  10  30
BRANCH  17  32
ATOM     32  O   UNL     1      -6.634   0.263 124.030  0.00  0.00    +0.000 OA
ATOM     33  H   UNL     1      -6.665   0.359 123.061  0.00  0.00    +0.000 HD
ENDBRANCH  17  32
TORSDOF 8
ENDMDL
