MODEL 1
REMARK VINA RESULT:      -7.5      0.000      0.000
REMARK  Name = Cianidanol
REMARK  6 active torsions:
REMARK  status: ('A' for Active; 'I' for Inactive)
REMARK    1  A    between atoms: O_1  and  C_2
REMARK    2  A    between atoms: C_5  and  O_6
REMARK    3  A    between atoms: C_8  and  O_9
REMARK    4  A    between atoms: C_13  and  C_14
REMARK    5  A    between atoms: C_17  and  O_18
REMARK    6  A    between atoms: C_19  and  O_20
REMARK                            x       y       z     vdW  Elec       q    Type
REMARK                         _______ _______ _______ _____ _____    ______ ____
ROOT
ATOM      1  C   UNL     1      -9.682   5.533 132.079  0.00  0.00    +0.000 C 
ATOM      2  C   UNL     1      -9.293   4.234 132.766  0.00  0.00    +0.000 C 
ATOM      3  C   UNL     1      -8.931   3.165 131.785  0.00  0.00    +0.000 A 
ATOM      4  C   UNL     1      -8.231   2.019 132.186  0.00  0.00    +0.000 A 
ATOM      5  C   UNL     1      -7.883   1.024 131.276  0.00  0.00    +0.000 A 
ATOM      6  C   UNL     1      -8.249   1.177 129.943  0.00  0.00    +0.000 A 
ATOM      7  C   UNL     1      -8.959   2.297 129.519  0.00  0.00    +0.000 A 
ATOM      8  C   UNL     1      -9.318   3.289 130.438  0.00  0.00    +0.000 A 
ATOM      9  O   UNL     1     -10.017   4.371 129.945  0.00  0.00    +0.000 OA
ATOM     10  C   UNL     1     -10.665   5.181 130.951  0.00  0.00    +0.000 C 
ENDROOT
BRANCH  10  11
ATOM     11  C   UNL     1     -11.278   6.438 130.338  0.00  0.00    +0.000 A 
ATOM     12  C   UNL     1     -12.408   7.023 130.948  0.00  0.00    +0.000 A 
ATOM     13  C   UNL     1     -12.957   8.219 130.471  0.00  0.00    +0.000 A 
ATOM     14  C   UNL     1     -12.372   8.843 129.379  0.00  0.00    +0.000 A 
ATOM     15  C   UNL     1     -11.247   8.287 128.775  0.00  0.00    +0.000 A 
ATOM     16  C   UNL     1     -10.698   7.094 129.238  0.00  0.00    +0.000 A 
BRANCH  14  17
ATOM     17  O   UNL     1     -12.869  10.012 128.871  0.00  0.00    +0.000 OA
ATOM     18  H   UNL     1     -12.859   9.945 127.900  0.00  0.00    +0.000 HD
ENDBRANCH  14  17
BRANCH  15  19
ATOM     19  O   UNL     1     -10.658   8.919 127.714  0.00  0.00    +0.000 OA
ATOM     20  H   UNL     1      -9.709   8.697 127.790  0.00  0.00    +0.000 HD
ENDBRANCH  15  19
ENDBRANCH  10  11
BRANCH   1  21
ATOM     21  O   UNL     1     -10.260   6.387 133.070  0.00  0.00    +0.000 OA
ATOM     22  H   UNL     1      -9.980   6.051 133.939  0.00  0.00    +0.000 HD
ENDBRANCH   1  21
BRANCH   4  23
ATOM     23  O   UNL     1      -7.840   1.797 133.479  0.00  0.00    +0.000 OA
ATOM     24  H   UNL     1      -8.615   1.764 134.062  0.00  0.00    +0.000 HD
ENDBRANCH   4  23
BRANCH   6  25
ATOM     25  O   UNL     1      -7.924   0.225 129.019  0.00  0.00    +0.000 OA
ATOM     26  H   UNL     1      -8.680  -0.374 128.906  0.00  0.00    +0.000 HD
ENDBRANCH   6  25
TORSDOF 6
ENDMDL
MODEL 2
REMARK VINA RESULT:      -7.3      1.703      3.327
REMARK  Name = Cianidanol
REMARK  6 active torsions:
REMARK  status: ('A' for Active; 'I' for Inactive)
REMARK    1  A    between atoms: O_1  and  C_2
REMARK    2  A    between atoms: C_5  and  O_6
REMARK    3  A    between atoms: C_8  and  O_9
REMARK    4  A    between atoms: C_13  and  C_14
REMARK    5  A    between atoms: C_17  and  O_18
REMARK    6  A    between atoms: C_19  and  O_20
REMARK                            x       y       z     vdW  Elec       q    Type
REMARK                         _______ _______ _______ _____ _____    ______ ____
ROOT
ATOM      1  C   UNL     1     -10.445   4.430 131.180  0.00  0.00    +0.000 C 
ATOM      2  C   UNL     1      -9.384   3.473 131.700  0.00  0.00    +0.000 C 
ATOM      3  C   UNL     1      -8.645   4.035 132.872  0.00  0.00    +0.000 A 
ATOM      4  C   UNL     1      -7.876   3.213 133.706  0.00  0.00    +0.000 A 
ATOM      5  C   UNL     1      -7.192   3.729 134.805  0.00  0.00    +0.000 A 
ATOM      6  C   UNL     1      -7.275   5.091 135.066  0.00  0.00    +0.000 A 
ATOM      7  C   UNL     1      -8.019   5.935 134.245  0.00  0.00    +0.000 A 
ATOM      8  C   UNL     1      -8.694   5.416 133.135  0.00  0.00    +0.000 A 
ATOM      9  O   UNL     1      -9.413   6.311 132.370  0.00  0.00    +0.000 OA
ATOM     10  C   UNL     1      -9.795   5.819 131.066  0.00  0.00    +0.000 C 
ENDROOT
BRANCH  10  11
ATOM     11  C   UNL     1     -10.718   6.805 130.353  0.00  0.00    +0.000 A 
ATOM     12  C   UNL     1     -11.897   7.236 130.998  0.00  0.00    +0.000 A 
ATOM     13  C   UNL     1     -12.734   8.199 130.421  0.00  0.00    +0.000 A 
ATOM     14  C   UNL     1     -12.391   8.742 129.191  0.00  0.00    +0.000 A 
ATOM     15  C   UNL     1     -11.223   8.339 128.548  0.00  0.00    +0.000 A 
ATOM     16  C   UNL     1     -10.389   7.377 129.112  0.00  0.00    +0.000 A 
BRANCH  14  17
ATOM     17  O   UNL     1     -13.174   9.684 128.581  0.00  0.00    +0.000 OA
ATOM     18  H   UNL     1     -12.585  10.329 128.151  0.00  0.00    +0.000 HD
ENDBRANCH  14  17
BRANCH  15  19
ATOM     19  O   UNL     1     -10.876   8.896 127.348  0.00  0.00    +0.000 OA
ATOM     20  H   UNL     1      -9.939   9.150 127.456  0.00  0.00    +0.000 HD
ENDBRANCH  15  19
ENDBRANCH  10  11
BRANCH   1  21
ATOM     21  O   UNL     1     -10.898   3.927 129.920  0.00  0.00    +0.000 OA
ATOM     22  H   UNL     1     -10.767   4.633 129.264  0.00  0.00    +0.000 HD
ENDBRANCH   1  21
BRANCH   4  23
ATOM     23  O   UNL     1      -7.744   1.865 133.510  0.00  0.00    +0.000 OA
ATOM     24  H   UNL     1      -6.937   1.677 133.006  0.00  0.00    +0.000 HD
ENDBRANCH   4  23
BRANCH   6  25
ATOM     25  O   UNL     1      -6.622   5.636 136.136  0.00  0.00    +0.000 OA
ATOM     26  H   UNL     1      -7.215   6.264 136.579  0.00  0.00    +0.000 HD
ENDBRANCH   6  25
TORSDOF 6
ENDMDL
MODEL 3
REMARK VINA RESULT:      -7.1      7.449      9.251
REMARK  Name = Cianidanol
REMARK  6 active torsions:
REMARK  status: ('A' for Active; 'I' for Inactive)
REMARK    1  A    between atoms: O_1  and  C_2
REMARK    2  A    between atoms: C_5  and  O_6
REMARK    3  A    between atoms: C_8  and  O_9
REMARK    4  A    between atoms: C_13  and  C_14
REMARK    5  A    between atoms: C_17  and  O_18
REMARK    6  A    between atoms: C_19  and  O_20
REMARK                            x       y       z     vdW  Elec       q    Type
REMARK                         _______ _______ _______ _____ _____    ______ ____
ROOT
ATOM      1  C   UNL     1      -7.303   2.976 124.287  0.00  0.00    +0.000 C 
ATOM      2  C   UNL     1      -8.052   2.048 125.229  0.00  0.00    +0.000 C 
ATOM      3  C   UNL     1      -7.667   0.616 125.031  0.00  0.00    +0.000 A 
ATOM      4  C   UNL     1      -7.969  -0.355 125.996  0.00  0.00    +0.000 A 
ATOM      5  C   UNL     1      -7.605  -1.688 125.822  0.00  0.00    +0.000 A 
ATOM      6  C   UNL     1      -6.935  -2.055 124.660  0.00  0.00    +0.000 A 
ATOM      7  C   UNL     1      -6.636  -1.114 123.678  0.00  0.00    +0.000 A 
ATOM      8  C   UNL     1      -7.014   0.222 123.850  0.00  0.00    +0.000 A 
ATOM      9  O   UNL     1      -6.681   1.098 122.837  0.00  0.00    +0.000 OA
ATOM     10  C   UNL     1      -7.378   2.363 122.879  0.00  0.00    +0.000 C 
ENDROOT
BRANCH  10  11
ATOM     11  C   UNL     1      -6.838   3.327 121.825  0.00  0.00    +0.000 A 
ATOM     12  C   UNL     1      -5.550   3.879 121.991  0.00  0.00    +0.000 A 
ATOM     13  C   UNL     1      -4.978   4.704 121.015  0.00  0.00    +0.000 A 
ATOM     14  C   UNL     1      -5.694   4.977 119.858  0.00  0.00    +0.000 A 
ATOM     15  C   UNL     1      -6.960   4.428 119.672  0.00  0.00    +0.000 A 
ATOM     16  C   UNL     1      -7.539   3.612 120.641  0.00  0.00    +0.000 A 
BRANCH  14  17
ATOM     17  O   UNL     1      -5.184   5.778 118.873  0.00  0.00    +0.000 OA
ATOM     18  H   UNL     1      -4.280   6.030 119.130  0.00  0.00    +0.000 HD
ENDBRANCH  14  17
BRANCH  15  19
ATOM     19  O   UNL     1      -7.651   4.679 118.518  0.00  0.00    +0.000 OA
ATOM     20  H   UNL     1      -7.816   5.643 118.535  0.00  0.00    +0.000 HD
ENDBRANCH  15  19
ENDBRANCH  10  11
BRANCH   1  21
ATOM     21  O   UNL     1      -7.926   4.261 124.364  0.00  0.00    +0.000 OA
ATOM     22  H   UNL     1      -7.464   4.765 125.055  0.00  0.00    +0.000 HD
ENDBRANCH   1  21
BRANCH   4  23
ATOM     23  O   UNL     1      -8.628  -0.071 127.161  0.00  0.00    +0.000 OA
ATOM     24  H   UNL     1      -9.038  -0.875 127.518  0.00  0.00    +0.000 HD
ENDBRANCH   4  23
BRANCH   6  25
ATOM     25  O   UNL     1      -6.559  -3.352 124.454  0.00  0.00    +0.000 OA
ATOM     26  H   UNL     1      -6.085  -3.670 125.239  0.00  0.00    +0.000 HD
ENDBRANCH   6  25
TORSDOF 6
ENDMDL
MODEL 4
REMARK VINA RESULT:      -7.0      7.292      9.815
REMARK  Name = Cianidanol
REMARK  6 active torsions:
REMARK  status: ('A' for Active; 'I' for Inactive)
REMARK    1  A    between atoms: O_1  and  C_2
REMARK    2  A    between atoms: C_5  and  O_6
REMARK    3  A    between atoms: C_8  and  O_9
REMARK    4  A    between atoms: C_13  and  C_14
REMARK    5  A    between atoms: C_17  and  O_18
REMARK    6  A    between atoms: C_19  and  O_20
REMARK                            x       y       z     vdW  Elec       q    Type
REMARK                         _______ _______ _______ _____ _____    ______ ____
ROOT
ATOM      1  C   UNL     1      -6.002  -1.548 127.940  0.00  0.00    +0.000 C 
ATOM      2  C   UNL     1      -5.640  -1.936 126.516  0.00  0.00    +0.000 C 
ATOM      3  C   UNL     1      -6.841  -2.345 125.723  0.00  0.00    +0.000 A 
ATOM      4  C   UNL     1      -6.796  -2.415 124.323  0.00  0.00    +0.000 A 
ATOM      5  C   UNL     1      -7.913  -2.786 123.578  0.00  0.00    +0.000 A 
ATOM      6  C   UNL     1      -9.090  -3.099 124.247  0.00  0.00    +0.000 A 
ATOM      7  C   UNL     1      -9.160  -3.054 125.637  0.00  0.00    +0.000 A 
ATOM      8  C   UNL     1      -8.033  -2.693 126.383  0.00  0.00    +0.000 A 
ATOM      9  O   UNL     1      -8.176  -2.667 127.755  0.00  0.00    +0.000 OA
ATOM     10  C   UNL     1      -6.934  -2.639 128.492  0.00  0.00    +0.000 C 
ENDROOT
BRANCH  10  11
ATOM     11  C   UNL     1      -7.184  -2.450 129.987  0.00  0.00    +0.000 A 
ATOM     12  C   UNL     1      -6.710  -3.422 130.893  0.00  0.00    +0.000 A 
ATOM     13  C   UNL     1      -6.843  -3.256 132.277  0.00  0.00    +0.000 A 
ATOM     14  C   UNL     1      -7.449  -2.107 132.764  0.00  0.00    +0.000 A 
ATOM     15  C   UNL     1      -7.908  -1.131 131.884  0.00  0.00    +0.000 A 
ATOM     16  C   UNL     1      -7.786  -1.291 130.506  0.00  0.00    +0.000 A 
BRANCH  14  17
ATOM     17  O   UNL     1      -7.606  -1.895 134.106  0.00  0.00    +0.000 OA
ATOM     18  H   UNL     1      -8.557  -1.950 134.309  0.00  0.00    +0.000 HD
ENDBRANCH  14  17
BRANCH  15  19
ATOM     19  O   UNL     1      -8.482   0.012 132.369  0.00  0.00    +0.000 OA
ATOM     20  H   UNL     1      -8.421   0.651 131.632  0.00  0.00    +0.000 HD
ENDBRANCH  15  19
ENDBRANCH  10  11
BRANCH   1  21
ATOM     21  O   UNL     1      -4.782  -1.439 128.678  0.00  0.00    +0.000 OA
ATOM     22  H   UNL     1      -4.917  -0.756 129.359  0.00  0.00    +0.000 HD
ENDBRANCH   1  21
BRANCH   4  23
ATOM     23  O   UNL     1      -5.673  -2.125 123.597  0.00  0.00    +0.000 OA
ATOM     24  H   UNL     1      -4.906  -2.042 124.185  0.00  0.00    +0.000 HD
ENDBRANCH   4  23
BRANCH   6  25
ATOM     25  O   UNL     1     -10.209  -3.465 123.552  0.00  0.00    +0.000 OA
ATOM     26  H   UNL     1     -10.772  -2.684 123.430  0.00  0.00    +0.000 HD
ENDBRANCH   6  25
TORSDOF 6
ENDMDL
MODEL 5
REMARK VINA RESULT:      -6.9      8.377     10.689
REMARK  Name = Cianidanol
REMARK  6 active torsions:
REMARK  status: ('A' for Active; 'I' for Inactive)
REMARK    1  A    between atoms: O_1  and  C_2
REMARK    2  A    between atoms: C_5  and  O_6
REMARK    3  A    between atoms: C_8  and  O_9
REMARK    4  A    between atoms: C_13  and  C_14
REMARK    5  A    between atoms: C_17  and  O_18
REMARK    6  A    between atoms: C_19  and  O_20
REMARK                            x       y       z     vdW  Elec       q    Type
REMARK                         _______ _______ _______ _____ _____    ______ ____
ROOT
ATOM      1  C   UNL     1      -8.863  -3.866 127.569  0.00  0.00    +0.000 C 
ATOM      2  C   UNL     1      -9.589  -3.565 126.268  0.00  0.00    +0.000 C 
ATOM      3  C   UNL     1      -8.674  -2.989 125.234  0.00  0.00    +0.000 A 
ATOM      4  C   UNL     1      -9.040  -2.953 123.882  0.00  0.00    +0.000 A 
ATOM      5  C   UNL     1      -8.189  -2.427 122.913  0.00  0.00    +0.000 A 
ATOM      6  C   UNL     1      -6.955  -1.923 123.306  0.00  0.00    +0.000 A 
ATOM      7  C   UNL     1      -6.571  -1.932 124.645  0.00  0.00    +0.000 A 
ATOM      8  C   UNL     1      -7.434  -2.449 125.618  0.00  0.00    +0.000 A 
ATOM      9  O   UNL     1      -6.985  -2.428 126.922  0.00  0.00    +0.000 OA
ATOM     10  C   UNL     1      -8.012  -2.634 127.918  0.00  0.00    +0.000 C 
ENDROOT
BRANCH  10  11
ATOM     11  C   UNL     1      -7.409  -2.755 129.316  0.00  0.00    +0.000 A 
ATOM     12  C   UNL     1      -7.786  -1.829 130.311  0.00  0.00    +0.000 A 
ATOM     13  C   UNL     1      -7.323  -1.944 131.628  0.00  0.00    +0.000 A 
ATOM     14  C   UNL     1      -6.481  -2.996 131.958  0.00  0.00    +0.000 A 
ATOM     15  C   UNL     1      -6.111  -3.928 130.991  0.00  0.00    +0.000 A 
ATOM     16  C   UNL     1      -6.561  -3.816 129.677  0.00  0.00    +0.000 A 
BRANCH  14  17
ATOM     17  O   UNL     1      -5.998  -3.156 133.228  0.00  0.00    +0.000 OA
ATOM     18  H   UNL     1      -6.709  -3.537 133.773  0.00  0.00    +0.000 HD
ENDBRANCH  14  17
BRANCH  15  19
ATOM     19  O   UNL     1      -5.302  -4.977 131.327  0.00  0.00    +0.000 OA
ATOM     20  H   UNL     1      -4.787  -5.161 130.516  0.00  0.00    +0.000 HD
ENDBRANCH  15  19
ENDBRANCH  10  11
BRANCH   1  21
ATOM     21  O   UNL     1      -9.856  -4.149 128.559  0.00  0.00    +0.000 OA
ATOM     22  H   UNL     1     -10.239  -3.299 128.835  0.00  0.00    +0.000 HD
ENDBRANCH   1  21
BRANCH   4  23
ATOM     23  O   UNL     1     -10.239  -3.426 123.419  0.00  0.00    +0.000 OA
ATOM     24  H   UNL     1     -10.230  -3.469 122.450  0.00  0.00    +0.000 HD
ENDBRANCH   4  23
BRANCH   6  25
ATOM     25  O   UNL     1      -6.091  -1.401 122.386  0.00  0.00    +0.000 OA
ATOM     26  H   UNL     1      -6.259  -1.819 121.525  0.00  0.00    +0.000 HD
ENDBRANCH   6  25
TORSDOF 6
ENDMDL
MODEL 6
REMARK VINA RESULT:      -6.7      2.947      6.551
REMARK  Name = Cianidanol
REMARK  6 active torsions:
REMARK  status: ('A' for Active; 'I' for Inactive)
REMARK    1  A    between atoms: O_1  and  C_2
REMARK    2  A    between atoms: C_5  and  O_6
REMARK    3  A    between atoms: C_8  and  O_9
REMARK    4  A    between atoms: C_13  and  C_14
REMARK    5  A    between atoms: C_17  and  O_18
REMARK    6  A    between atoms: C_19  and  O_20
REMARK                            x       y       z     vdW  Elec       q    Type
REMARK                         _______ _______ _______ _____ _____    ______ ____
ROOT
ATOM      1  C   UNL     1      -9.392   5.789 132.156  0.00  0.00    +0.000 C 
ATOM      2  C   UNL     1     -10.734   6.503 132.174  0.00  0.00    +0.000 C 
ATOM      3  C   UNL     1     -11.260   6.744 130.795  0.00  0.00    +0.000 A 
ATOM      4  C   UNL     1     -12.606   7.073 130.580  0.00  0.00    +0.000 A 
ATOM      5  C   UNL     1     -13.104   7.290 129.297  0.00  0.00    +0.000 A 
ATOM      6  C   UNL     1     -12.239   7.184 128.215  0.00  0.00    +0.000 A 
ATOM      7  C   UNL     1     -10.894   6.874 128.399  0.00  0.00    +0.000 A 
ATOM      8  C   UNL     1     -10.393   6.669 129.690  0.00  0.00    +0.000 A 
ATOM      9  O   UNL     1      -9.052   6.362 129.796  0.00  0.00    +0.000 OA
ATOM     10  C   UNL     1      -8.504   6.504 131.125  0.00  0.00    +0.000 C 
ENDROOT
BRANCH  10  11
ATOM     11  C   UNL     1      -7.065   5.995 131.185  0.00  0.00    +0.000 A 
ATOM     12  C   UNL     1      -6.021   6.908 131.441  0.00  0.00    +0.000 A 
ATOM     13  C   UNL     1      -4.695   6.480 131.585  0.00  0.00    +0.000 A 
ATOM     14  C   UNL     1      -4.408   5.127 131.479  0.00  0.00    +0.000 A 
ATOM     15  C   UNL     1      -5.429   4.210 131.242  0.00  0.00    +0.000 A 
ATOM     16  C   UNL     1      -6.749   4.629 131.090  0.00  0.00    +0.000 A 
BRANCH  14  17
ATOM     17  O   UNL     1      -3.131   4.654 131.609  0.00  0.00    +0.000 OA
ATOM     18  H   UNL     1      -3.154   3.690 131.478  0.00  0.00    +0.000 HD
ENDBRANCH  14  17
BRANCH  15  19
ATOM     19  O   UNL     1      -5.144   2.875 131.163  0.00  0.00    +0.000 OA
ATOM     20  H   UNL     1      -5.708   2.462 131.848  0.00  0.00    +0.000 HD
ENDBRANCH  15  19
ENDBRANCH  10  11
BRANCH   1  21
ATOM     21  O   UNL     1      -8.857   5.848 133.481  0.00  0.00    +0.000 OA
ATOM     22  H   UNL     1      -7.902   5.671 133.415  0.00  0.00    +0.000 HD
ENDBRANCH   1  21
BRANCH   4  23
ATOM     23  O   UNL     1     -13.515   7.199 131.595  0.00  0.00    +0.000 OA
ATOM     24  H   UNL     1     -14.418   7.174 131.240  0.00  0.00    +0.000 HD
ENDBRANCH   4  23
BRANCH   6  25
ATOM     25  O   UNL     1     -12.690   7.387 126.941  0.00  0.00    +0.000 OA
ATOM     26  H   UNL     1     -12.242   6.763 126.346  0.00  0.00    +0.000 HD
ENDBRANCH   6  25
TORSDOF 6
ENDMDL
MODEL 7
REMARK VINA RESULT:      -6.7      6.730     10.375
REMARK  Name = Cianidanol
REMARK  6 active torsions:
REMARK  status: ('A' for Active; 'I' for Inactive)
REMARK    1  A    between atoms: O_1  and  C_2
REMARK    2  A    between atoms: C_5  and  O_6
REMARK    3  A    between atoms: C_8  and  O_9
REMARK    4  A    between atoms: C_13  and  C_14
REMARK    5  A    between atoms: C_17  and  O_18
REMARK    6  A    between atoms: C_19  and  O_20
REMARK                            x       y       z     vdW  Elec       q    Type
REMARK                         _______ _______ _______ _____ _____    ______ ____
ROOT
ATOM      1  C   UNL     1      -7.907  -2.378 125.580  0.00  0.00    +0.000 C 
ATOM      2  C   UNL     1      -8.931  -1.804 124.614  0.00  0.00    +0.000 C 
ATOM      3  C   UNL     1      -8.957  -0.309 124.646  0.00  0.00    +0.000 A 
ATOM      4  C   UNL     1      -9.565   0.428 123.621  0.00  0.00    +0.000 A 
ATOM      5  C   UNL     1      -9.585   1.820 123.640  0.00  0.00    +0.000 A 
ATOM      6  C   UNL     1      -8.992   2.484 124.707  0.00  0.00    +0.000 A 
ATOM      7  C   UNL     1      -8.394   1.778 125.748  0.00  0.00    +0.000 A 
ATOM      8  C   UNL     1      -8.387   0.379 125.732  0.00  0.00    +0.000 A 
ATOM      9  O   UNL     1      -7.774  -0.252 126.795  0.00  0.00    +0.000 OA
ATOM     10  C   UNL     1      -8.087  -1.656 126.925  0.00  0.00    +0.000 C 
ENDROOT
BRANCH  10  11
ATOM     11  C   UNL     1      -7.248  -2.310 128.021  0.00  0.00    +0.000 A 
ATOM     12  C   UNL     1      -7.897  -3.003 129.065  0.00  0.00    +0.000 A 
ATOM     13  C   UNL     1      -7.171  -3.686 130.049  0.00  0.00    +0.000 A 
ATOM     14  C   UNL     1      -5.785  -3.683 129.989  0.00  0.00    +0.000 A 
ATOM     15  C   UNL     1      -5.129  -3.016 128.957  0.00  0.00    +0.000 A 
ATOM     16  C   UNL     1      -5.843  -2.329 127.979  0.00  0.00    +0.000 A 
BRANCH  14  17
ATOM     17  O   UNL     1      -5.026  -4.332 130.925  0.00  0.00    +0.000 OA
ATOM     18  H   UNL     1      -4.415  -4.926 130.455  0.00  0.00    +0.000 HD
ENDBRANCH  14  17
BRANCH  15  19
ATOM     19  O   UNL     1      -3.764  -3.038 128.888  0.00  0.00    +0.000 OA
ATOM     20  H   UNL     1      -3.470  -3.057 129.821  0.00  0.00    +0.000 HD
ENDBRANCH  15  19
ENDBRANCH  10  11
BRANCH   1  21
ATOM     21  O   UNL     1      -8.146  -3.786 125.672  0.00  0.00    +0.000 OA
ATOM     22  H   UNL     1      -8.047  -4.154 124.777  0.00  0.00    +0.000 HD
ENDBRANCH   1  21
BRANCH   4  23
ATOM     23  O   UNL     1     -10.171  -0.155 122.541  0.00  0.00    +0.000 OA
ATOM     24  H   UNL     1     -10.052   0.397 121.752  0.00  0.00    +0.000 HD
ENDBRANCH   4  23
BRANCH   6  25
ATOM     25  O   UNL     1      -8.988   3.850 124.762  0.00  0.00    +0.000 OA
ATOM     26  H   UNL     1      -8.169   4.144 125.193  0.00  0.00    +0.000 HD
ENDBRANCH   6  25
TORSDOF 6
ENDMDL
MODEL 8
REMARK VINA RESULT:      -6.6      3.185      3.792
REMARK  Name = Cianidanol
REMARK  6 active torsions:
REMARK  status: ('A' for Active; 'I' for Inactive)
REMARK    1  A    between atoms: O_1  and  C_2
REMARK    2  A    between atoms: C_5  and  O_6
REMARK    3  A    between atoms: C_8  and  O_9
REMARK    4  A    between atoms: C_13  and  C_14
REMARK    5  A    between atoms: C_17  and  O_18
REMARK    6  A    between atoms: C_19  and  O_20
REMARK                            x       y       z     vdW  Elec       q    Type
REMARK                         _______ _______ _______ _____ _____    ______ ____
ROOT
ATOM      1  C   UNL     1      -9.219   6.222 132.552  0.00  0.00    +0.000 C 
ATOM      2  C   UNL     1      -8.058   5.436 133.139  0.00  0.00    +0.000 C 
ATOM      3  C   UNL     1      -6.739   5.904 132.613  0.00  0.00    +0.000 A 
ATOM      4  C   UNL     1      -5.540   5.563 133.255  0.00  0.00    +0.000 A 
ATOM      5  C   UNL     1      -4.309   6.003 132.776  0.00  0.00    +0.000 A 
ATOM      6  C   UNL     1      -4.278   6.792 131.632  0.00  0.00    +0.000 A 
ATOM      7  C   UNL     1      -5.452   7.134 130.964  0.00  0.00    +0.000 A 
ATOM      8  C   UNL     1      -6.686   6.679 131.441  0.00  0.00    +0.000 A 
ATOM      9  O   UNL     1      -7.806   7.060 130.731  0.00  0.00    +0.000 OA
ATOM     10  C   UNL     1      -8.999   6.303 131.033  0.00  0.00    +0.000 C 
ENDROOT
BRANCH  10  11
ATOM     11  C   UNL     1     -10.219   6.891 130.326  0.00  0.00    +0.000 A 
ATOM     12  C   UNL     1     -11.474   6.849 130.970  0.00  0.00    +0.000 A 
ATOM     13  C   UNL     1     -12.606   7.445 130.400  0.00  0.00    +0.000 A 
ATOM     14  C   UNL     1     -12.486   8.093 129.179  0.00  0.00    +0.000 A 
ATOM     15  C   UNL     1     -11.251   8.155 128.538  0.00  0.00    +0.000 A 
ATOM     16  C   UNL     1     -10.121   7.560 129.094  0.00  0.00    +0.000 A 
BRANCH  14  17
ATOM     17  O   UNL     1     -13.559   8.689 128.576  0.00  0.00    +0.000 OA
ATOM     18  H   UNL     1     -14.327   8.100 128.681  0.00  0.00    +0.000 HD
ENDBRANCH  14  17
BRANCH  15  19
ATOM     19  O   UNL     1     -11.132   8.817 127.347  0.00  0.00    +0.000 OA
ATOM     20  H   UNL     1     -11.336   9.749 127.561  0.00  0.00    +0.000 HD
ENDBRANCH  15  19
ENDBRANCH  10  11
BRANCH   1  21
ATOM     21  O   UNL     1     -10.424   5.534 132.900  0.00  0.00    +0.000 OA
ATOM     22  H   UNL     1     -10.399   5.377 133.859  0.00  0.00    +0.000 HD
ENDBRANCH   1  21
BRANCH   4  23
ATOM     23  O   UNL     1      -5.491   4.788 134.382  0.00  0.00    +0.000 OA
ATOM     24  H   UNL     1      -6.190   4.116 134.357  0.00  0.00    +0.000 HD
ENDBRANCH   4  23
BRANCH   6  25
ATOM     25  O   UNL     1      -3.090   7.247 131.131  0.00  0.00    +0.000 OA
ATOM     26  H   UNL     1      -3.272   7.899 130.435  0.00  0.00    +0.000 HD
ENDBRANCH   6  25
TORSDOF 6
ENDMDL
MODEL 9
REMARK VINA RESULT:      -6.5      8.563     10.598
REMARK  Name = Cianidanol
REMARK  6 active torsions:
REMARK  status: ('A' for Active; 'I' for Inactive)
REMARK    1  A    between atoms: O_1  and  C_2
REMARK    2  A    between atoms: C_5  and  O_6
REMARK    3  A    between atoms: C_8  and  O_9
REMARK    4  A    between atoms: C_13  and  C_14
REMARK    5  A    between atoms: C_17  and  O_18
REMARK    6  A    between atoms: C_19  and  O_20
REMARK                            x       y       z     vdW  Elec       q    Type
REMARK                         _______ _______ _______ _____ _____    ______ ____
ROOT
ATOM      1  C   UNL     1      -7.571  -3.214 128.194  0.00  0.00    +0.000 C 
ATOM      2  C   UNL     1      -8.576  -2.940 127.087  0.00  0.00    +0.000 C 
ATOM      3  C   UNL     1      -7.909  -2.696 125.771  0.00  0.00    +0.000 A 
ATOM      4  C   UNL     1      -8.630  -2.758 124.570  0.00  0.00    +0.000 A 
ATOM      5  C   UNL     1      -8.013  -2.541 123.341  0.00  0.00    +0.000 A 
ATOM      6  C   UNL     1      -6.654  -2.250 123.314  0.00  0.00    +0.000 A 
ATOM      7  C   UNL     1      -5.916  -2.167 124.492  0.00  0.00    +0.000 A 
ATOM      8  C   UNL     1      -6.541  -2.372 125.727  0.00  0.00    +0.000 A 
ATOM      9  O   UNL     1      -5.746  -2.277 126.851  0.00  0.00    +0.000 OA
ATOM     10  C   UNL     1      -6.471  -2.146 128.093  0.00  0.00    +0.000 C 
ENDROOT
BRANCH  10  11
ATOM     11  C   UNL     1      -5.527  -2.208 129.293  0.00  0.00    +0.000 A 
ATOM     12  C   UNL     1      -4.600  -3.267 129.385  0.00  0.00    +0.000 A 
ATOM     13  C   UNL     1      -3.660  -3.326 130.422  0.00  0.00    +0.000 A 
ATOM     14  C   UNL     1      -3.640  -2.315 131.373  0.00  0.00    +0.000 A 
ATOM     15  C   UNL     1      -4.538  -1.255 131.287  0.00  0.00    +0.000 A 
ATOM     16  C   UNL     1      -5.480  -1.192 130.263  0.00  0.00    +0.000 A 
BRANCH  14  17
ATOM     17  O   UNL     1      -2.745  -2.323 132.407  0.00  0.00    +0.000 OA
ATOM     18  H   UNL     1      -3.195  -2.688 133.189  0.00  0.00    +0.000 HD
ENDBRANCH  14  17
BRANCH  15  19
ATOM     19  O   UNL     1      -4.498  -0.248 132.212  0.00  0.00    +0.000 OA
ATOM     20  H   UNL     1      -5.398   0.133 132.202  0.00  0.00    +0.000 HD
ENDBRANCH  15  19
ENDBRANCH  10  11
BRANCH   1  21
ATOM     21  O   UNL     1      -8.277  -3.165 129.437  0.00  0.00    +0.000 OA
ATOM     22  H   UNL     1      -7.815  -3.757 130.055  0.00  0.00    +0.000 HD
ENDBRANCH   1  21
BRANCH   4  23
ATOM     23  O   UNL     1      -9.970  -3.034 124.517  0.00  0.00    +0.000 OA
ATOM     24  H   UNL     1     -10.291  -2.958 123.605  0.00  0.00    +0.000 HD
ENDBRANCH   4  23
BRANCH   6  25
ATOM     25  O   UNL     1      -6.012  -2.033 122.128  0.00  0.00    +0.000 OA
ATOM     26  H   UNL     1      -6.480  -2.513 121.426  0.00  0.00    +0.000 HD
ENDBRANCH   6  25
TORSDOF 6
ENDMDL
