MODEL 1
REMARK VINA RESULT:      -6.9      0.000      0.000
REMARK  Name = Ciclopirox
REMARK  3 active torsions:
REMARK  status: ('A' for Active; 'I' for Inactive)
REMARK    1  A    between atoms: C_1  and  C_2
REMARK    2  A    between atoms: N_6  and  O_7
REMARK    3  A    between atoms: C_8  and  C_10
REMARK                            x       y       z     vdW  Elec       q    Type
REMARK                         _______ _______ _______ _____ _____    ______ ____
ROOT
ATOM      1  C   UNL     1     -13.067   9.637 129.533  0.00  0.00    +0.000 C 
ATOM      2  C   UNL     1     -12.096   8.620 129.016  0.00  0.00    +0.000 A 
ATOM      3  C   UNL     1     -11.887   8.436 127.701  0.00  0.00    +0.000 A 
ATOM      4  C   UNL     1     -10.905   7.426 127.236  0.00  0.00    +0.000 A 
ATOM      5  O   UNL     1     -10.699   7.249 126.036  0.00  0.00    +0.000 OA
ATOM      6  N   UNL     1     -10.257   6.733 128.236  0.00  0.00    +0.000 N 
ATOM      7  C   UNL     1     -10.455   6.905 129.589  0.00  0.00    +0.000 A 
ATOM      8  C   UNL     1     -11.360   7.826 129.982  0.00  0.00    +0.000 A 
ENDROOT
BRANCH   7   9
ATOM      9  C   UNL     1      -9.609   6.125 130.578  0.00  0.00    +0.000 C 
ATOM     10  C   UNL     1      -8.327   6.920 130.881  0.00  0.00    +0.000 C 
ATOM     11  C   UNL     1      -7.433   6.201 131.879  0.00  0.00    +0.000 C 
ATOM     12  C   UNL     1      -8.192   5.866 133.159  0.00  0.00    +0.000 C 
ATOM     13  C   UNL     1      -9.445   5.048 132.858  0.00  0.00    +0.000 C 
ATOM     14  C   UNL     1     -10.363   5.775 131.874  0.00  0.00    +0.000 C 
ENDBRANCH   7   9
BRANCH   6  15
ATOM     15  O   UNL     1      -9.293   5.786 127.828  0.00  0.00    +0.000 OA
ATOM     16  H   UNL     1      -9.760   4.943 128.002  0.00  0.00    +0.000 HD
ENDBRANCH   6  15
TORSDOF 2
ENDMDL
MODEL 2
REMARK VINA RESULT:      -6.6      2.555      3.282
REMARK  Name = Ciclopirox
REMARK  3 active torsions:
REMARK  status: ('A' for Active; 'I' for Inactive)
REMARK    1  A    between atoms: C_1  and  C_2
REMARK    2  A    between atoms: N_6  and  O_7
REMARK    3  A    between atoms: C_8  and  C_10
REMARK                            x       y       z     vdW  Elec       q    Type
REMARK                         _______ _______ _______ _____ _____    ______ ____
ROOT
ATOM      1  C   UNL     1     -11.030   8.297 127.546  0.00  0.00    +0.000 C 
ATOM      2  C   UNL     1     -11.079   7.743 128.938  0.00  0.00    +0.000 A 
ATOM      3  C   UNL     1     -12.219   7.694 129.647  0.00  0.00    +0.000 A 
ATOM      4  C   UNL     1     -12.221   7.124 131.016  0.00  0.00    +0.000 A 
ATOM      5  O   UNL     1     -13.258   7.067 131.677  0.00  0.00    +0.000 OA
ATOM      6  N   UNL     1     -11.000   6.669 131.465  0.00  0.00    +0.000 N 
ATOM      7  C   UNL     1      -9.818   6.710 130.755  0.00  0.00    +0.000 A 
ATOM      8  C   UNL     1      -9.846   7.240 129.515  0.00  0.00    +0.000 A 
ENDROOT
BRANCH   7   9
ATOM      9  C   UNL     1      -8.563   6.097 131.349  0.00  0.00    +0.000 C 
ATOM     10  C   UNL     1      -8.377   4.681 130.778  0.00  0.00    +0.000 C 
ATOM     11  C   UNL     1      -7.125   4.007 131.321  0.00  0.00    +0.000 C 
ATOM     12  C   UNL     1      -5.889   4.868 131.084  0.00  0.00    +0.000 C 
ATOM     13  C   UNL     1      -6.064   6.261 131.681  0.00  0.00    +0.000 C 
ATOM     14  C   UNL     1      -7.306   6.956 131.122  0.00  0.00    +0.000 C 
ENDBRANCH   7   9
BRANCH   6  15
ATOM     15  O   UNL     1     -10.972   6.092 132.752  0.00  0.00    +0.000 OA
ATOM     16  H   UNL     1     -10.278   5.409 132.647  0.00  0.00    +0.000 HD
ENDBRANCH   6  15
TORSDOF 2
ENDMDL
MODEL 3
REMARK VINA RESULT:      -6.4      9.830     10.829
REMARK  Name = Ciclopirox
REMARK  3 active torsions:
REMARK  status: ('A' for Active; 'I' for Inactive)
REMARK    1  A    between atoms: C_1  and  C_2
REMARK    2  A    between atoms: N_6  and  O_7
REMARK    3  A    between atoms: C_8  and  C_10
REMARK                            x       y       z     vdW  Elec       q    Type
REMARK                         _______ _______ _______ _____ _____    ______ ____
ROOT
ATOM      1  C   UNL     1      -4.864  -3.234 123.285  0.00  0.00    +0.000 C 
ATOM      2  C   UNL     1      -6.152  -2.620 123.743  0.00  0.00    +0.000 A 
ATOM      3  C   UNL     1      -7.041  -2.099 122.881  0.00  0.00    +0.000 A 
ATOM      4  C   UNL     1      -8.309  -1.514 123.380  0.00  0.00    +0.000 A 
ATOM      5  O   UNL     1      -9.136  -1.038 122.602  0.00  0.00    +0.000 OA
ATOM      6  N   UNL     1      -8.479  -1.559 124.746  0.00  0.00    +0.000 N 
ATOM      7  C   UNL     1      -7.581  -2.087 125.649  0.00  0.00    +0.000 A 
ATOM      8  C   UNL     1      -6.433  -2.606 125.167  0.00  0.00    +0.000 A 
ENDROOT
BRANCH   7   9
ATOM      9  C   UNL     1      -7.940  -2.140 127.123  0.00  0.00    +0.000 C 
ATOM     10  C   UNL     1      -8.485  -3.539 127.459  0.00  0.00    +0.000 C 
ATOM     11  C   UNL     1      -8.854  -3.670 128.929  0.00  0.00    +0.000 C 
ATOM     12  C   UNL     1      -7.678  -3.303 129.828  0.00  0.00    +0.000 C 
ATOM     13  C   UNL     1      -7.162  -1.901 129.515  0.00  0.00    +0.000 C 
ATOM     14  C   UNL     1      -6.764  -1.768 128.044  0.00  0.00    +0.000 C 
ENDBRANCH   7   9
BRANCH   6  15
ATOM     15  O   UNL     1      -9.689  -1.038 125.252  0.00  0.00    +0.000 OA
ATOM     16  H   UNL     1     -10.195  -1.857 125.433  0.00  0.00    +0.000 HD
ENDBRANCH   6  15
TORSDOF 2
ENDMDL
MODEL 4
REMARK VINA RESULT:      -6.3      2.937      5.569
REMARK  Name = Ciclopirox
REMARK  3 active torsions:
REMARK  status: ('A' for Active; 'I' for Inactive)
REMARK    1  A    between atoms: C_1  and  C_2
REMARK    2  A    between atoms: N_6  and  O_7
REMARK    3  A    between atoms: C_8  and  C_10
REMARK                            x       y       z     vdW  Elec       q    Type
REMARK                         _______ _______ _______ _____ _____    ______ ____
ROOT
ATOM      1  C   UNL     1      -8.908   2.306 129.561  0.00  0.00    +0.000 C 
ATOM      2  C   UNL     1      -9.232   3.357 130.579  0.00  0.00    +0.000 A 
ATOM      3  C   UNL     1      -8.981   3.185 131.888  0.00  0.00    +0.000 A 
ATOM      4  C   UNL     1      -9.306   4.260 132.856  0.00  0.00    +0.000 A 
ATOM      5  O   UNL     1      -9.078   4.120 134.058  0.00  0.00    +0.000 OA
ATOM      6  N   UNL     1      -9.859   5.397 132.309  0.00  0.00    +0.000 N 
ATOM      7  C   UNL     1     -10.125   5.595 130.970  0.00  0.00    +0.000 A 
ATOM      8  C   UNL     1      -9.825   4.597 130.114  0.00  0.00    +0.000 A 
ENDROOT
BRANCH   7   9
ATOM      9  C   UNL     1     -10.663   6.934 130.501  0.00  0.00    +0.000 C 
ATOM     10  C   UNL     1     -10.180   7.194 129.063  0.00  0.00    +0.000 C 
ATOM     11  C   UNL     1     -10.694   8.519 128.520  0.00  0.00    +0.000 C 
ATOM     12  C   UNL     1     -12.213   8.603 128.618  0.00  0.00    +0.000 C 
ATOM     13  C   UNL     1     -12.686   8.379 130.052  0.00  0.00    +0.000 C 
ATOM     14  C   UNL     1     -12.196   7.037 130.598  0.00  0.00    +0.000 C 
ENDBRANCH   7   9
BRANCH   6  15
ATOM     15  O   UNL     1     -10.151   6.452 133.199  0.00  0.00    +0.000 OA
ATOM     16  H   UNL     1     -11.113   6.571 133.054  0.00  0.00    +0.000 HD
ENDBRANCH   6  15
TORSDOF 2
ENDMDL
MODEL 5
REMARK VINA RESULT:      -6.2      2.692      5.812
REMARK  Name = Ciclopirox
REMARK  3 active torsions:
REMARK  status: ('A' for Active; 'I' for Inactive)
REMARK    1  A    between atoms: C_1  and  C_2
REMARK    2  A    between atoms: N_6  and  O_7
REMARK    3  A    between atoms: C_8  and  C_10
REMARK                            x       y       z     vdW  Elec       q    Type
REMARK                         _______ _______ _______ _____ _____    ______ ____
ROOT
ATOM      1  C   UNL     1      -7.712   5.949 135.107  0.00  0.00    +0.000 C 
ATOM      2  C   UNL     1      -8.403   5.141 134.052  0.00  0.00    +0.000 A 
ATOM      3  C   UNL     1      -8.399   3.797 134.064  0.00  0.00    +0.000 A 
ATOM      4  C   UNL     1      -9.109   3.040 133.005  0.00  0.00    +0.000 A 
ATOM      5  O   UNL     1      -9.119   1.809 133.005  0.00  0.00    +0.000 OA
ATOM      6  N   UNL     1      -9.745   3.811 132.057  0.00  0.00    +0.000 N 
ATOM      7  C   UNL     1      -9.762   5.189 132.024  0.00  0.00    +0.000 A 
ATOM      8  C   UNL     1      -9.102   5.851 132.996  0.00  0.00    +0.000 A 
ENDROOT
BRANCH   7   9
ATOM      9  C   UNL     1     -10.574   5.906 130.961  0.00  0.00    +0.000 C 
ATOM     10  C   UNL     1     -11.856   6.467 131.600  0.00  0.00    +0.000 C 
ATOM     11  C   UNL     1     -12.716   7.213 130.591  0.00  0.00    +0.000 C 
ATOM     12  C   UNL     1     -11.920   8.310 129.892  0.00  0.00    +0.000 C 
ATOM     13  C   UNL     1     -10.667   7.744 129.230  0.00  0.00    +0.000 C 
ATOM     14  C   UNL     1      -9.783   7.014 130.242  0.00  0.00    +0.000 C 
ENDBRANCH   7   9
BRANCH   6  15
ATOM     15  O   UNL     1     -10.456   3.122 131.052  0.00  0.00    +0.000 OA
ATOM     16  H   UNL     1     -11.011   2.514 131.584  0.00  0.00    +0.000 HD
ENDBRANCH   6  15
TORSDOF 2
ENDMDL
MODEL 6
REMARK VINA RESULT:      -6.1     10.096     11.556
REMARK  Name = Ciclopirox
REMARK  3 active torsions:
REMARK  status: ('A' for Active; 'I' for Inactive)
REMARK    1  A    between atoms: C_1  and  C_2
REMARK    2  A    between atoms: N_6  and  O_7
REMARK    3  A    between atoms: C_8  and  C_10
REMARK                            x       y       z     vdW  Elec       q    Type
REMARK                         _______ _______ _______ _____ _____    ______ ____
ROOT
ATOM      1  C   UNL     1      -9.705  -4.251 128.250  0.00  0.00    +0.000 C 
ATOM      2  C   UNL     1      -8.436  -3.457 128.189  0.00  0.00    +0.000 A 
ATOM      3  C   UNL     1      -7.709  -3.188 129.286  0.00  0.00    +0.000 A 
ATOM      4  C   UNL     1      -6.451  -2.410 129.175  0.00  0.00    +0.000 A 
ATOM      5  O   UNL     1      -5.771  -2.159 130.170  0.00  0.00    +0.000 OA
ATOM      6  N   UNL     1      -6.117  -2.013 127.898  0.00  0.00    +0.000 N 
ATOM      7  C   UNL     1      -6.848  -2.277 126.759  0.00  0.00    +0.000 A 
ATOM      8  C   UNL     1      -7.991  -2.981 126.892  0.00  0.00    +0.000 A 
ENDROOT
BRANCH   7   9
ATOM      9  C   UNL     1      -6.314  -1.844 125.406  0.00  0.00    +0.000 C 
ATOM     10  C   UNL     1      -5.834  -3.085 124.634  0.00  0.00    +0.000 C 
ATOM     11  C   UNL     1      -5.296  -2.727 123.257  0.00  0.00    +0.000 C 
ATOM     12  C   UNL     1      -6.321  -1.936 122.452  0.00  0.00    +0.000 C 
ATOM     13  C   UNL     1      -6.769  -0.687 123.206  0.00  0.00    +0.000 C 
ATOM     14  C   UNL     1      -7.336  -1.040 124.582  0.00  0.00    +0.000 C 
ENDBRANCH   7   9
BRANCH   6  15
ATOM     15  O   UNL     1      -4.910  -1.297 127.752  0.00  0.00    +0.000 OA
ATOM     16  H   UNL     1      -4.511  -1.400 128.641  0.00  0.00    +0.000 HD
ENDBRANCH   6  15
TORSDOF 2
ENDMDL
MODEL 7
REMARK VINA RESULT:      -6.0      8.031      9.202
REMARK  Name = Ciclopirox
REMARK  3 active torsions:
REMARK  status: ('A' for Active; 'I' for Inactive)
REMARK    1  A    between atoms: C_1  and  C_2
REMARK    2  A    between atoms: N_6  and  O_7
REMARK    3  A    between atoms: C_8  and  C_10
REMARK                            x       y       z     vdW  Elec       q    Type
REMARK                         _______ _______ _______ _____ _____    ______ ____
ROOT
ATOM      1  C   UNL     1      -4.657   1.858 126.257  0.00  0.00    +0.000 C 
ATOM      2  C   UNL     1      -6.098   1.948 125.859  0.00  0.00    +0.000 A 
ATOM      3  C   UNL     1      -6.723   3.127 125.703  0.00  0.00    +0.000 A 
ATOM      4  C   UNL     1      -8.149   3.167 125.294  0.00  0.00    +0.000 A 
ATOM      5  O   UNL     1      -8.734   4.240 125.142  0.00  0.00    +0.000 OA
ATOM      6  N   UNL     1      -8.738   1.938 125.096  0.00  0.00    +0.000 N 
ATOM      7  C   UNL     1      -8.117   0.717 125.251  0.00  0.00    +0.000 A 
ATOM      8  C   UNL     1      -6.822   0.711 125.630  0.00  0.00    +0.000 A 
ENDROOT
BRANCH   7   9
ATOM      9  C   UNL     1      -8.871  -0.558 124.919  0.00  0.00    +0.000 C 
ATOM     10  C   UNL     1      -8.402  -1.078 123.549  0.00  0.00    +0.000 C 
ATOM     11  C   UNL     1      -9.109  -2.367 123.156  0.00  0.00    +0.000 C 
ATOM     12  C   UNL     1      -8.955  -3.432 124.236  0.00  0.00    +0.000 C 
ATOM     13  C   UNL     1      -9.453  -2.924 125.586  0.00  0.00    +0.000 C 
ATOM     14  C   UNL     1      -8.729  -1.643 126.002  0.00  0.00    +0.000 C 
ENDBRANCH   7   9
BRANCH   6  15
ATOM     15  O   UNL     1     -10.085   1.940 124.677  0.00  0.00    +0.000 OA
ATOM     16  H   UNL     1     -10.036   1.410 123.854  0.00  0.00    +0.000 HD
ENDBRANCH   6  15
TORSDOF 2
ENDMDL
MODEL 8
REMARK VINA RESULT:      -6.0      9.308     10.657
REMARK  Name = Ciclopirox
REMARK  3 active torsions:
REMARK  status: ('A' for Active; 'I' for Inactive)
REMARK    1  A    between atoms: C_1  and  C_2
REMARK    2  A    between atoms: N_6  and  O_7
REMARK    3  A    between atoms: C_8  and  C_10
REMARK                            x       y       z     vdW  Elec       q    Type
REMARK                         _______ _______ _______ _____ _____    ______ ____
ROOT
ATOM      1  C   UNL     1      -4.967  -3.640 123.973  0.00  0.00    +0.000 C 
ATOM      2  C   UNL     1      -6.231  -2.859 124.165  0.00  0.00    +0.000 A 
ATOM      3  C   UNL     1      -7.432  -3.456 124.256  0.00  0.00    +0.000 A 
ATOM      4  C   UNL     1      -8.655  -2.642 124.459  0.00  0.00    +0.000 A 
ATOM      5  O   UNL     1      -9.762  -3.174 124.550  0.00  0.00    +0.000 OA
ATOM      6  N   UNL     1      -8.449  -1.283 124.544  0.00  0.00    +0.000 N 
ATOM      7  C   UNL     1      -7.228  -0.649 124.453  0.00  0.00    +0.000 A 
ATOM      8  C   UNL     1      -6.134  -1.414 124.261  0.00  0.00    +0.000 A 
ENDROOT
BRANCH   7   9
ATOM      9  C   UNL     1      -7.144   0.854 124.646  0.00  0.00    +0.000 C 
ATOM     10  C   UNL     1      -5.965   1.176 125.580  0.00  0.00    +0.000 C 
ATOM     11  C   UNL     1      -5.812   2.672 125.809  0.00  0.00    +0.000 C 
ATOM     12  C   UNL     1      -5.693   3.423 124.488  0.00  0.00    +0.000 C 
ATOM     13  C   UNL     1      -6.882   3.128 123.577  0.00  0.00    +0.000 C 
ATOM     14  C   UNL     1      -7.028   1.628 123.320  0.00  0.00    +0.000 C 
ENDBRANCH   7   9
BRANCH   6  15
ATOM     15  O   UNL     1      -9.589  -0.481 124.768  0.00  0.00    +0.000 OA
ATOM     16  H   UNL     1      -9.683  -0.540 125.742  0.00  0.00    +0.000 HD
ENDBRANCH   6  15
TORSDOF 2
ENDMDL
MODEL 9
REMARK VINA RESULT:      -6.0      2.161      5.289
REMARK  Name = Ciclopirox
REMARK  3 active torsions:
REMARK  status: ('A' for Active; 'I' for Inactive)
REMARK    1  A    between atoms: C_1  and  C_2
REMARK    2  A    between atoms: N_6  and  O_7
REMARK    3  A    between atoms: C_8  and  C_10
REMARK                            x       y       z     vdW  Elec       q    Type
REMARK                         _______ _______ _______ _____ _____    ______ ____
ROOT
ATOM      1  C   UNL     1      -6.486   6.462 131.828  0.00  0.00    +0.000 C 
ATOM      2  C   UNL     1      -7.737   5.731 131.445  0.00  0.00    +0.000 A 
ATOM      3  C   UNL     1      -7.944   4.447 131.780  0.00  0.00    +0.000 A 
ATOM      4  C   UNL     1      -9.204   3.769 131.391  0.00  0.00    +0.000 A 
ATOM      5  O   UNL     1      -9.411   2.594 131.695  0.00  0.00    +0.000 OA
ATOM      6  N   UNL     1     -10.098   4.548 130.690  0.00  0.00    +0.000 N 
ATOM      7  C   UNL     1      -9.907   5.867 130.336  0.00  0.00    +0.000 A 
ATOM      8  C   UNL     1      -8.748   6.455 130.697  0.00  0.00    +0.000 A 
ENDROOT
BRANCH   7   9
ATOM      9  C   UNL     1     -11.018   6.625 129.631  0.00  0.00    +0.000 C 
ATOM     10  C   UNL     1     -11.924   7.283 130.686  0.00  0.00    +0.000 C 
ATOM     11  C   UNL     1     -13.056   8.075 130.049  0.00  0.00    +0.000 C 
ATOM     12  C   UNL     1     -12.522   9.103 129.058  0.00  0.00    +0.000 C 
ATOM     13  C   UNL     1     -11.652   8.441 127.994  0.00  0.00    +0.000 C 
ATOM     14  C   UNL     1     -10.494   7.664 128.623  0.00  0.00    +0.000 C 
ENDBRANCH   7   9
BRANCH   6  15
ATOM     15  O   UNL     1     -11.322   3.943 130.331  0.00  0.00    +0.000 OA
ATOM     16  H   UNL     1     -11.015   3.180 129.798  0.00  0.00    +0.000 HD
ENDBRANCH   6  15
TORSDOF 2
ENDMDL
