MODEL 1
REMARK VINA RESULT:      -9.3      0.000      0.000
REMARK  Name = Ciclesonide
REMARK  11 active torsions:
REMARK  status: ('A' for Active; 'I' for Inactive)
REMARK    1  A    between atoms: C_16  and  C_17
REMARK    2  A    between atoms: C_20  and  O_21
REMARK    3  A    between atoms: C_23  and  C_24
REMARK    4  A    between atoms: C_25  and  C_35
REMARK    5  A    between atoms: C_27  and  C_29
REMARK    6  A    between atoms: C_35  and  C_37
REMARK    7  A    between atoms: C_37  and  O_38
REMARK    8  A    between atoms: O_38  and  C_39
REMARK    9  A    between atoms: C_39  and  C_41
REMARK   10  A    between atoms: C_41  and  C_42
REMARK   11  A    between atoms: C_41  and  C_43
REMARK                            x       y       z     vdW  Elec       q    Type
REMARK                         _______ _______ _______ _____ _____    ______ ____
ROOT
ATOM      1  C   UNL     1      -8.582   6.281 130.851  0.00  0.00    +0.000 C 
ATOM      2  C   UNL     1      -7.411   6.369 131.825  0.00  0.00    +0.000 C 
ATOM      3  C   UNL     1      -7.081   5.005 131.733  0.00  0.00    +0.000 C 
ATOM      4  C   UNL     1      -6.297   4.697 129.851  0.00  0.00    +0.000 C 
ATOM      5  C   UNL     1      -4.954   5.272 129.614  0.00  0.00    +0.000 C 
ATOM      6  C   UNL     1      -4.774   4.877 128.191  0.00  0.00    +0.000 C 
ATOM      7  C   UNL     1      -4.461   3.281 128.222  0.00  0.00    +0.000 C 
ATOM      8  C   UNL     1      -3.280   2.675 128.004  0.00  0.00    +0.000 C 
ATOM      9  C   UNL     1      -2.914   3.649 127.018  0.00  0.00    +0.000 C 
ATOM     10  O   UNL     1      -2.100   4.514 127.285  0.00  0.00    +0.000 OA
ATOM     11  C   UNL     1      -4.011   3.490 125.805  0.00  0.00    +0.000 C 
ATOM     12  C   UNL     1      -5.310   3.070 126.235  0.00  0.00    +0.000 C 
ATOM     13  C   UNL     1      -5.609   2.463 127.655  0.00  0.00    +0.000 C 
ATOM     14  C   UNL     1      -5.396   0.936 127.237  0.00  0.00    +0.000 C 
ATOM     15  C   UNL     1      -6.350   2.683 129.252  0.00  0.00    +0.000 C 
ATOM     16  C   UNL     1      -8.012   1.874 130.369  0.00  0.00    +0.000 C 
ATOM     17  C   UNL     1      -8.526   2.334 131.783  0.00  0.00    +0.000 C 
ATOM     18  C   UNL     1      -8.746   4.102 132.170  0.00  0.00    +0.000 C 
ATOM     19  C   UNL     1      -9.317   3.403 133.452  0.00  0.00    +0.000 C 
ATOM     20  C   UNL     1      -9.637   5.206 131.284  0.00  0.00    +0.000 C 
ATOM     21  O   UNL     1     -10.061   4.546 130.064  0.00  0.00    +0.000 OA
ATOM     22  C   UNL     1      -9.021   4.734 129.141  0.00  0.00    +0.000 C 
ATOM     23  O   UNL     1      -8.483   6.056 129.447  0.00  0.00    +0.000 OA
ENDROOT
BRANCH  22  24
ATOM     24  C   UNL     1      -7.952   3.526 129.180  0.00  0.00    +0.000 C 
ATOM     25  C   UNL     1      -8.218   1.753 128.409  0.00  0.00    +0.000 C 
ATOM     26  C   UNL     1      -6.970   0.497 129.258  0.00  0.00    +0.000 C 
ATOM     27  C   UNL     1      -6.130   0.719 130.964  0.00  0.00    +0.000 C 
ATOM     28  C   UNL     1      -5.765   2.148 131.477  0.00  0.00    +0.000 C 
ATOM     29  C   UNL     1      -6.715   3.232 130.880  0.00  0.00    +0.000 C 
ENDBRANCH  22  24
BRANCH  16  30
ATOM     30  O   UNL     1      -8.601   0.417 130.561  0.00  0.00    +0.000 OA
ATOM     31  H   UNL     1      -9.298   0.334 131.239  0.00  0.00    +0.000 HD
ENDBRANCH  16  30
BRANCH  20  32
ATOM     32  C   UNL     1     -10.790   6.183 131.833  0.00  0.00    +0.000 C 
ATOM     33  O   UNL     1     -10.691   6.705 132.945  0.00  0.00    +0.000 OA
BRANCH  32  34
ATOM     34  C   UNL     1     -12.144   6.443 130.961  0.00  0.00    +0.000 C 
BRANCH  34  35
ATOM     35  O   UNL     1     -12.098   7.570 130.055  0.00  0.00    +0.000 OA
BRANCH  35  36
ATOM     36  C   UNL     1     -12.584   7.345 128.791  0.00  0.00    +0.000 C 
ATOM     37  O   UNL     1     -13.530   6.606 128.541  0.00  0.00    +0.000 OA
BRANCH  36  38
ATOM     38  C   UNL     1     -11.822   8.143 127.725  0.00  0.00    +0.000 C 
ATOM     39  C   UNL     1     -10.444   8.572 128.217  0.00  0.00    +0.000 C 
ATOM     40  C   UNL     1     -11.643   7.301 126.453  0.00  0.00    +0.000 C 
ENDBRANCH  36  38
ENDBRANCH  35  36
ENDBRANCH  34  35
ENDBRANCH  32  34
ENDBRANCH  20  32
TORSDOF 7
ENDMDL
MODEL 2
REMARK VINA RESULT:      -9.2      2.765      4.385
REMARK  Name = Ciclesonide
REMARK  11 active torsions:
REMARK  status: ('A' for Active; 'I' for Inactive)
REMARK    1  A    between atoms: C_16  and  C_17
REMARK    2  A    between atoms: C_20  and  O_21
REMARK    3  A    between atoms: C_23  and  C_24
REMARK    4  A    between atoms: C_25  and  C_35
REMARK    5  A    between atoms: C_27  and  C_29
REMARK    6  A    between atoms: C_35  and  C_37
REMARK    7  A    between atoms: C_37  and  O_38
REMARK    8  A    between atoms: O_38  and  C_39
REMARK    9  A    between atoms: C_39  and  C_41
REMARK   10  A    between atoms: C_41  and  C_42
REMARK   11  A    between atoms: C_41  and  C_43
REMARK                            x       y       z     vdW  Elec       q    Type
REMARK                         _______ _______ _______ _____ _____    ______ ____
ROOT
ATOM      1  C   UNL     1      -9.158   5.570 132.339  0.00  0.00    +0.000 C 
ATOM      2  C   UNL     1      -8.919   4.427 133.321  0.00  0.00    +0.000 C 
ATOM      3  C   UNL     1      -7.786   3.933 132.651  0.00  0.00    +0.000 C 
ATOM      4  C   UNL     1      -6.274   5.309 132.922  0.00  0.00    +0.000 C 
ATOM      5  C   UNL     1      -5.713   5.383 134.290  0.00  0.00    +0.000 C 
ATOM      6  C   UNL     1      -4.720   6.471 134.081  0.00  0.00    +0.000 C 
ATOM      7  C   UNL     1      -3.500   5.787 133.250  0.00  0.00    +0.000 C 
ATOM      8  C   UNL     1      -2.278   5.461 133.710  0.00  0.00    +0.000 C 
ATOM      9  C   UNL     1      -2.254   6.602 134.576  0.00  0.00    +0.000 C 
ATOM     10  O   UNL     1      -2.430   6.465 135.773  0.00  0.00    +0.000 OA
ATOM     11  C   UNL     1      -2.296   7.914 133.588  0.00  0.00    +0.000 C 
ATOM     12  C   UNL     1      -3.015   7.711 132.368  0.00  0.00    +0.000 C 
ATOM     13  C   UNL     1      -3.428   6.295 131.819  0.00  0.00    +0.000 C 
ATOM     14  C   UNL     1      -2.118   6.065 130.934  0.00  0.00    +0.000 C 
ATOM     15  C   UNL     1      -4.731   5.133 131.505  0.00  0.00    +0.000 C 
ATOM     16  C   UNL     1      -5.723   4.267 129.793  0.00  0.00    +0.000 C 
ATOM     17  C   UNL     1      -6.962   3.297 129.797  0.00  0.00    +0.000 C 
ATOM     18  C   UNL     1      -8.420   3.644 130.836  0.00  0.00    +0.000 C 
ATOM     19  C   UNL     1      -8.880   2.389 130.017  0.00  0.00    +0.000 C 
ATOM     20  C   UNL     1      -9.301   5.065 130.862  0.00  0.00    +0.000 C 
ATOM     21  O   UNL     1      -8.598   6.030 130.039  0.00  0.00    +0.000 OA
ATOM     22  C   UNL     1      -7.671   6.658 130.885  0.00  0.00    +0.000 C 
ATOM     23  O   UNL     1      -8.334   6.722 132.184  0.00  0.00    +0.000 OA
ENDROOT
BRANCH  22  24
ATOM     24  C   UNL     1      -6.240   5.913 130.874  0.00  0.00    +0.000 C 
ATOM     25  C   UNL     1      -4.909   6.039 129.454  0.00  0.00    +0.000 C 
ATOM     26  C   UNL     1      -3.691   4.504 129.585  0.00  0.00    +0.000 C 
ATOM     27  C   UNL     1      -4.067   2.835 130.445  0.00  0.00    +0.000 C 
ATOM     28  C   UNL     1      -4.999   2.791 131.697  0.00  0.00    +0.000 C 
ATOM     29  C   UNL     1      -6.031   3.962 131.685  0.00  0.00    +0.000 C 
ENDBRANCH  22  24
BRANCH  16  30
ATOM     30  O   UNL     1      -5.223   3.721 128.394  0.00  0.00    +0.000 OA
ATOM     31  H   UNL     1      -4.553   4.271 127.945  0.00  0.00    +0.000 HD
ENDBRANCH  16  30
BRANCH  20  32
ATOM     32  C   UNL     1     -10.892   5.221 130.689  0.00  0.00    +0.000 C 
ATOM     33  O   UNL     1     -11.522   4.446 129.967  0.00  0.00    +0.000 OA
BRANCH  32  34
ATOM     34  C   UNL     1     -11.689   6.451 131.406  0.00  0.00    +0.000 C 
BRANCH  34  35
ATOM     35  O   UNL     1     -12.980   6.775 130.839  0.00  0.00    +0.000 OA
BRANCH  35  36
ATOM     36  C   UNL     1     -12.966   7.279 129.562  0.00  0.00    +0.000 C 
ATOM     37  O   UNL     1     -13.544   6.761 128.613  0.00  0.00    +0.000 OA
BRANCH  36  38
ATOM     38  C   UNL     1     -12.160   8.581 129.460  0.00  0.00    +0.000 C 
ATOM     39  C   UNL     1     -11.100   8.506 128.366  0.00  0.00    +0.000 C 
ATOM     40  C   UNL     1     -13.090   9.763 129.154  0.00  0.00    +0.000 C 
ENDBRANCH  36  38
ENDBRANCH  35  36
ENDBRANCH  34  35
ENDBRANCH  32  34
ENDBRANCH  20  32
TORSDOF 7
ENDMDL
MODEL 3
REMARK VINA RESULT:      -9.0      1.737      2.471
REMARK  Name = Ciclesonide
REMARK  11 active torsions:
REMARK  status: ('A' for Active; 'I' for Inactive)
REMARK    1  A    between atoms: C_16  and  C_17
REMARK    2  A    between atoms: C_20  and  O_21
REMARK    3  A    between atoms: C_23  and  C_24
REMARK    4  A    between atoms: C_25  and  C_35
REMARK    5  A    between atoms: C_27  and  C_29
REMARK    6  A    between atoms: C_35  and  C_37
REMARK    7  A    between atoms: C_37  and  O_38
REMARK    8  A    between atoms: O_38  and  C_39
REMARK    9  A    between atoms: C_39  and  C_41
REMARK   10  A    between atoms: C_41  and  C_42
REMARK   11  A    between atoms: C_41  and  C_43
REMARK                            x       y       z     vdW  Elec       q    Type
REMARK                         _______ _______ _______ _____ _____    ______ ____
ROOT
ATOM      1  C   UNL     1      -9.291   5.842 130.875  0.00  0.00    +0.000 C 
ATOM      2  C   UNL     1      -8.868   5.799 132.339  0.00  0.00    +0.000 C 
ATOM      3  C   UNL     1      -7.988   4.715 132.174  0.00  0.00    +0.000 C 
ATOM      4  C   UNL     1      -6.378   5.402 131.085  0.00  0.00    +0.000 C 
ATOM      5  C   UNL     1      -5.468   6.324 131.800  0.00  0.00    +0.000 C 
ATOM      6  C   UNL     1      -4.502   6.603 130.703  0.00  0.00    +0.000 C 
ATOM      7  C   UNL     1      -3.594   5.260 130.577  0.00  0.00    +0.000 C 
ATOM      8  C   UNL     1      -2.316   5.097 130.965  0.00  0.00    +0.000 C 
ATOM      9  C   UNL     1      -1.990   6.446 130.606  0.00  0.00    +0.000 C 
ATOM     10  O   UNL     1      -1.848   7.291 131.470  0.00  0.00    +0.000 OA
ATOM     11  C   UNL     1      -2.216   6.542 128.982  0.00  0.00    +0.000 C 
ATOM     12  C   UNL     1      -3.246   5.687 128.476  0.00  0.00    +0.000 C 
ATOM     13  C   UNL     1      -3.877   4.499 129.292  0.00  0.00    +0.000 C 
ATOM     14  C   UNL     1      -2.868   3.377 128.767  0.00  0.00    +0.000 C 
ATOM     15  C   UNL     1      -5.285   3.861 130.162  0.00  0.00    +0.000 C 
ATOM     16  C   UNL     1      -6.750   2.296 129.905  0.00  0.00    +0.000 C 
ATOM     17  C   UNL     1      -7.999   1.998 130.814  0.00  0.00    +0.000 C 
ATOM     18  C   UNL     1      -9.102   3.344 131.360  0.00  0.00    +0.000 C 
ATOM     19  C   UNL     1      -9.840   2.067 131.890  0.00  0.00    +0.000 C 
ATOM     20  C   UNL     1      -9.855   4.467 130.377  0.00  0.00    +0.000 C 
ATOM     21  O   UNL     1      -9.340   4.286 129.033  0.00  0.00    +0.000 OA
ATOM     22  C   UNL     1      -8.184   5.077 128.951  0.00  0.00    +0.000 C 
ATOM     23  O   UNL     1      -8.470   6.243 129.781  0.00  0.00    +0.000 OA
ENDROOT
BRANCH  22  24
ATOM     24  C   UNL     1      -6.857   4.252 129.350  0.00  0.00    +0.000 C 
ATOM     25  C   UNL     1      -5.951   2.947 128.218  0.00  0.00    +0.000 C 
ATOM     26  C   UNL     1      -4.839   1.788 129.347  0.00  0.00    +0.000 C 
ATOM     27  C   UNL     1      -5.070   1.480 131.222  0.00  0.00    +0.000 C 
ATOM     28  C   UNL     1      -5.633   2.612 132.139  0.00  0.00    +0.000 C 
ATOM     29  C   UNL     1      -6.557   3.587 131.344  0.00  0.00    +0.000 C 
ENDBRANCH  22  24
BRANCH  16  30
ATOM     30  O   UNL     1      -6.677   0.794 129.409  0.00  0.00    +0.000 OA
ATOM     31  H   UNL     1      -7.479   0.462 128.961  0.00  0.00    +0.000 HD
ENDBRANCH  16  30
BRANCH  20  32
ATOM     32  C   UNL     1     -11.422   4.828 130.342  0.00  0.00    +0.000 C 
ATOM     33  O   UNL     1     -12.254   3.975 130.029  0.00  0.00    +0.000 OA
BRANCH  32  34
ATOM     34  C   UNL     1     -11.931   6.347 130.648  0.00  0.00    +0.000 C 
BRANCH  34  35
ATOM     35  O   UNL     1     -12.981   6.842 129.783  0.00  0.00    +0.000 OA
BRANCH  35  36
ATOM     36  C   UNL     1     -12.614   7.117 128.489  0.00  0.00    +0.000 C 
ATOM     37  O   UNL     1     -12.644   6.297 127.578  0.00  0.00    +0.000 OA
BRANCH  36  38
ATOM     38  C   UNL     1     -12.180   8.577 128.307  0.00  0.00    +0.000 C 
ATOM     39  C   UNL     1     -12.754   9.478 129.395  0.00  0.00    +0.000 C 
ATOM     40  C   UNL     1     -10.650   8.690 128.341  0.00  0.00    +0.000 C 
ENDBRANCH  36  38
ENDBRANCH  35  36
ENDBRANCH  34  35
ENDBRANCH  32  34
ENDBRANCH  20  32
TORSDOF 7
ENDMDL
MODEL 4
REMARK VINA RESULT:      -8.9      2.368      3.790
REMARK  Name = Ciclesonide
REMARK  11 active torsions:
REMARK  status: ('A' for Active; 'I' for Inactive)
REMARK    1  A    between atoms: C_16  and  C_17
REMARK    2  A    between atoms: C_20  and  O_21
REMARK    3  A    between atoms: C_23  and  C_24
REMARK    4  A    between atoms: C_25  and  C_35
REMARK    5  A    between atoms: C_27  and  C_29
REMARK    6  A    between atoms: C_35  and  C_37
REMARK    7  A    between atoms: C_37  and  O_38
REMARK    8  A    between atoms: O_38  and  C_39
REMARK    9  A    between atoms: C_39  and  C_41
REMARK   10  A    between atoms: C_41  and  C_42
REMARK   11  A    between atoms: C_41  and  C_43
REMARK                            x       y       z     vdW  Elec       q    Type
REMARK                         _______ _______ _______ _____ _____    ______ ____
ROOT
ATOM      1  C   UNL     1      -8.975   4.147 129.813  0.00  0.00    +0.000 C 
ATOM      2  C   UNL     1      -7.633   4.517 129.191  0.00  0.00    +0.000 C 
ATOM      3  C   UNL     1      -6.895   3.585 129.942  0.00  0.00    +0.000 C 
ATOM      4  C   UNL     1      -7.404   1.711 129.248  0.00  0.00    +0.000 C 
ATOM      5  C   UNL     1      -6.896   1.368 127.900  0.00  0.00    +0.000 C 
ATOM      6  C   UNL     1      -7.488   0.009 127.762  0.00  0.00    +0.000 C 
ATOM      7  C   UNL     1      -6.589  -0.951 128.719  0.00  0.00    +0.000 C 
ATOM      8  C   UNL     1      -5.682  -1.869 128.337  0.00  0.00    +0.000 C 
ATOM      9  C   UNL     1      -6.455  -2.214 127.181  0.00  0.00    +0.000 C 
ATOM     10  O   UNL     1      -6.111  -1.828 126.078  0.00  0.00    +0.000 OA
ATOM     11  C   UNL     1      -7.866  -2.829 127.755  0.00  0.00    +0.000 C 
ATOM     12  C   UNL     1      -8.290  -2.271 129.002  0.00  0.00    +0.000 C 
ATOM     13  C   UNL     1      -7.359  -1.420 129.943  0.00  0.00    +0.000 C 
ATOM     14  C   UNL     1      -6.833  -2.648 130.819  0.00  0.00    +0.000 C 
ATOM     15  C   UNL     1      -6.961   0.174 130.612  0.00  0.00    +0.000 C 
ATOM     16  C   UNL     1      -7.040   1.170 132.527  0.00  0.00    +0.000 C 
ATOM     17  C   UNL     1      -6.705   2.676 132.835  0.00  0.00    +0.000 C 
ATOM     18  C   UNL     1      -7.356   4.014 131.782  0.00  0.00    +0.000 C 
ATOM     19  C   UNL     1      -6.653   4.806 132.937  0.00  0.00    +0.000 C 
ATOM     20  C   UNL     1      -8.959   4.263 131.376  0.00  0.00    +0.000 C 
ATOM     21  O   UNL     1      -9.716   3.129 131.870  0.00  0.00    +0.000 OA
ATOM     22  C   UNL     1      -9.671   2.162 130.854  0.00  0.00    +0.000 C 
ATOM     23  O   UNL     1      -9.680   2.926 129.610  0.00  0.00    +0.000 OA
ENDROOT
BRANCH  22  24
ATOM     24  C   UNL     1      -8.427   1.150 131.036  0.00  0.00    +0.000 C 
ATOM     25  C   UNL     1      -8.339  -0.317 132.319  0.00  0.00    +0.000 C 
ATOM     26  C   UNL     1      -6.459  -0.805 132.600  0.00  0.00    +0.000 C 
ATOM     27  C   UNL     1      -4.940   0.314 132.271  0.00  0.00    +0.000 C 
ATOM     28  C   UNL     1      -4.976   1.363 131.114  0.00  0.00    +0.000 C 
ATOM     29  C   UNL     1      -6.432   1.841 130.818  0.00  0.00    +0.000 C 
ENDBRANCH  22  24
BRANCH  16  30
ATOM     30  O   UNL     1      -6.702   0.728 134.009  0.00  0.00    +0.000 OA
ATOM     31  H   UNL     1      -6.669  -0.235 134.162  0.00  0.00    +0.000 HD
ENDBRANCH  16  30
BRANCH  20  32
ATOM     32  C   UNL     1      -9.800   5.624 131.542  0.00  0.00    +0.000 C 
ATOM     33  O   UNL     1      -9.641   6.341 132.532  0.00  0.00    +0.000 OA
BRANCH  32  34
ATOM     34  C   UNL     1     -10.930   6.042 130.442  0.00  0.00    +0.000 C 
BRANCH  34  35
ATOM     35  O   UNL     1     -10.718   7.309 129.777  0.00  0.00    +0.000 OA
BRANCH  35  36
ATOM     36  C   UNL     1     -10.828   7.295 128.408  0.00  0.00    +0.000 C 
ATOM     37  O   UNL     1     -10.044   6.718 127.662  0.00  0.00    +0.000 OA
BRANCH  36  38
ATOM     38  C   UNL     1     -12.060   8.066 127.917  0.00  0.00    +0.000 C 
ATOM     39  C   UNL     1     -13.219   7.131 127.589  0.00  0.00    +0.000 C 
ATOM     40  C   UNL     1     -12.529   9.063 128.985  0.00  0.00    +0.000 C 
ENDBRANCH  36  38
ENDBRANCH  35  36
ENDBRANCH  34  35
ENDBRANCH  32  34
ENDBRANCH  20  32
TORSDOF 7
ENDMDL
MODEL 5
REMARK VINA RESULT:      -8.9      2.244      3.663
REMARK  Name = Ciclesonide
REMARK  11 active torsions:
REMARK  status: ('A' for Active; 'I' for Inactive)
REMARK    1  A    between atoms: C_16  and  C_17
REMARK    2  A    between atoms: C_20  and  O_21
REMARK    3  A    between atoms: C_23  and  C_24
REMARK    4  A    between atoms: C_25  and  C_35
REMARK    5  A    between atoms: C_27  and  C_29
REMARK    6  A    between atoms: C_35  and  C_37
REMARK    7  A    between atoms: C_37  and  O_38
REMARK    8  A    between atoms: O_38  and  C_39
REMARK    9  A    between atoms: C_39  and  C_41
REMARK   10  A    between atoms: C_41  and  C_42
REMARK   11  A    between atoms: C_41  and  C_43
REMARK                            x       y       z     vdW  Elec       q    Type
REMARK                         _______ _______ _______ _____ _____    ______ ____
ROOT
ATOM      1  C   UNL     1      -8.157   4.345 129.256  0.00  0.00    +0.000 C 
ATOM      2  C   UNL     1      -6.680   4.527 128.919  0.00  0.00    +0.000 C 
ATOM      3  C   UNL     1      -6.242   3.481 129.750  0.00  0.00    +0.000 C 
ATOM      4  C   UNL     1      -6.862   1.717 128.881  0.00  0.00    +0.000 C 
ATOM      5  C   UNL     1      -6.155   1.331 127.639  0.00  0.00    +0.000 C 
ATOM      6  C   UNL     1      -6.892   0.077 127.325  0.00  0.00    +0.000 C 
ATOM      7  C   UNL     1      -6.340  -1.024 128.387  0.00  0.00    +0.000 C 
ATOM      8  C   UNL     1      -5.513  -2.057 128.140  0.00  0.00    +0.000 C 
ATOM      9  C   UNL     1      -6.087  -2.260 126.842  0.00  0.00    +0.000 C 
ATOM     10  O   UNL     1      -5.484  -1.906 125.845  0.00  0.00    +0.000 OA
ATOM     11  C   UNL     1      -7.654  -2.674 127.107  0.00  0.00    +0.000 C 
ATOM     12  C   UNL     1      -8.231  -2.086 128.277  0.00  0.00    +0.000 C 
ATOM     13  C   UNL     1      -7.391  -1.400 129.418  0.00  0.00    +0.000 C 
ATOM     14  C   UNL     1      -7.224  -2.711 130.317  0.00  0.00    +0.000 C 
ATOM     15  C   UNL     1      -6.913   0.103 130.228  0.00  0.00    +0.000 C 
ATOM     16  C   UNL     1      -7.224   1.060 132.139  0.00  0.00    +0.000 C 
ATOM     17  C   UNL     1      -6.747   2.494 132.578  0.00  0.00    +0.000 C 
ATOM     18  C   UNL     1      -6.987   3.935 131.487  0.00  0.00    +0.000 C 
ATOM     19  C   UNL     1      -6.419   4.591 132.792  0.00  0.00    +0.000 C 
ATOM     20  C   UNL     1      -8.430   4.425 130.798  0.00  0.00    +0.000 C 
ATOM     21  O   UNL     1      -9.419   3.404 131.083  0.00  0.00    +0.000 OA
ATOM     22  C   UNL     1      -9.313   2.462 130.048  0.00  0.00    +0.000 C 
ATOM     23  O   UNL     1      -8.972   3.245 128.864  0.00  0.00    +0.000 OA
ENDROOT
BRANCH  22  24
ATOM     24  C   UNL     1      -8.283   1.275 130.413  0.00  0.00    +0.000 C 
ATOM     25  C   UNL     1      -8.647  -0.207 131.628  0.00  0.00    +0.000 C 
ATOM     26  C   UNL     1      -6.942  -0.971 132.229  0.00  0.00    +0.000 C 
ATOM     27  C   UNL     1      -5.245  -0.084 132.232  0.00  0.00    +0.000 C 
ATOM     28  C   UNL     1      -4.913   0.975 131.133  0.00  0.00    +0.000 C 
ATOM     29  C   UNL     1      -6.204   1.667 130.595  0.00  0.00    +0.000 C 
ENDBRANCH  22  24
BRANCH  16  30
ATOM     30  O   UNL     1      -7.246   0.543 133.635  0.00  0.00    +0.000 OA
ATOM     31  H   UNL     1      -7.389  -0.417 133.744  0.00  0.00    +0.000 HD
ENDBRANCH  16  30
BRANCH  20  32
ATOM     32  C   UNL     1      -9.088   5.891 130.867  0.00  0.00    +0.000 C 
ATOM     33  O   UNL     1      -8.967   6.584 131.879  0.00  0.00    +0.000 OA
BRANCH  32  34
ATOM     34  C   UNL     1      -9.989   6.456 129.631  0.00  0.00    +0.000 C 
BRANCH  34  35
ATOM     35  O   UNL     1     -11.336   5.932 129.547  0.00  0.00    +0.000 OA
BRANCH  35  36
ATOM     36  C   UNL     1     -12.278   6.573 130.313  0.00  0.00    +0.000 C 
ATOM     37  O   UNL     1     -12.377   6.446 131.528  0.00  0.00    +0.000 OA
BRANCH  36  38
ATOM     38  C   UNL     1     -13.184   7.486 129.476  0.00  0.00    +0.000 C 
ATOM     39  C   UNL     1     -12.655   8.915 129.426  0.00  0.00    +0.000 C 
ATOM     40  C   UNL     1     -13.294   6.959 128.038  0.00  0.00    +0.000 C 
ENDBRANCH  36  38
ENDBRANCH  35  36
ENDBRANCH  34  35
ENDBRANCH  32  34
ENDBRANCH  20  32
TORSDOF 7
ENDMDL
MODEL 6
REMARK VINA RESULT:      -8.8      3.247      6.121
REMARK  Name = Ciclesonide
REMARK  11 active torsions:
REMARK  status: ('A' for Active; 'I' for Inactive)
REMARK    1  A    between atoms: C_16  and  C_17
REMARK    2  A    between atoms: C_20  and  O_21
REMARK    3  A    between atoms: C_23  and  C_24
REMARK    4  A    between atoms: C_25  and  C_35
REMARK    5  A    between atoms: C_27  and  C_29
REMARK    6  A    between atoms: C_35  and  C_37
REMARK    7  A    between atoms: C_37  and  O_38
REMARK    8  A    between atoms: O_38  and  C_39
REMARK    9  A    between atoms: C_39  and  C_41
REMARK   10  A    between atoms: C_41  and  C_42
REMARK   11  A    between atoms: C_41  and  C_43
REMARK                            x       y       z     vdW  Elec       q    Type
REMARK                         _______ _______ _______ _____ _____    ______ ____
ROOT
ATOM      1  C   UNL     1      -8.200   1.766 132.258  0.00  0.00    +0.000 C 
ATOM      2  C   UNL     1      -9.407   0.862 132.030  0.00  0.00    +0.000 C 
ATOM      3  C   UNL     1      -8.757   0.031 131.101  0.00  0.00    +0.000 C 
ATOM      4  C   UNL     1      -7.352  -1.061 132.143  0.00  0.00    +0.000 C 
ATOM      5  C   UNL     1      -7.892  -2.106 133.041  0.00  0.00    +0.000 C 
ATOM      6  C   UNL     1      -6.614  -2.616 133.607  0.00  0.00    +0.000 C 
ATOM      7  C   UNL     1      -5.940  -3.501 132.421  0.00  0.00    +0.000 C 
ATOM      8  C   UNL     1      -5.847  -4.842 132.353  0.00  0.00    +0.000 C 
ATOM      9  C   UNL     1      -5.667  -4.944 133.771  0.00  0.00    +0.000 C 
ATOM     10  O   UNL     1      -6.582  -5.327 134.477  0.00  0.00    +0.000 OA
ATOM     11  C   UNL     1      -4.258  -4.167 134.099  0.00  0.00    +0.000 C 
ATOM     12  C   UNL     1      -3.965  -3.077 133.219  0.00  0.00    +0.000 C 
ATOM     13  C   UNL     1      -4.699  -2.837 131.848  0.00  0.00    +0.000 C 
ATOM     14  C   UNL     1      -3.665  -3.667 130.955  0.00  0.00    +0.000 C 
ATOM     15  C   UNL     1      -5.843  -1.856 130.914  0.00  0.00    +0.000 C 
ATOM     16  C   UNL     1      -5.786  -0.486 129.246  0.00  0.00    +0.000 C 
ATOM     17  C   UNL     1      -6.981   0.352 128.657  0.00  0.00    +0.000 C 
ATOM     18  C   UNL     1      -8.107   1.275 129.755  0.00  0.00    +0.000 C 
ATOM     19  C   UNL     1      -8.594   1.709 128.330  0.00  0.00    +0.000 C 
ATOM     20  C   UNL     1      -7.661   2.386 130.923  0.00  0.00    +0.000 C 
ATOM     21  O   UNL     1      -6.214   2.357 131.023  0.00  0.00    +0.000 OA
ATOM     22  C   UNL     1      -5.911   1.349 131.951  0.00  0.00    +0.000 C 
ATOM     23  O   UNL     1      -6.996   1.398 132.925  0.00  0.00    +0.000 OA
ENDROOT
BRANCH  22  24
ATOM     24  C   UNL     1      -5.685  -0.081 131.238  0.00  0.00    +0.000 C 
ATOM     25  C   UNL     1      -4.092  -0.611 130.244  0.00  0.00    +0.000 C 
ATOM     26  C   UNL     1      -4.550  -2.113 129.064  0.00  0.00    +0.000 C 
ATOM     27  C   UNL     1      -6.303  -2.566 128.441  0.00  0.00    +0.000 C 
ATOM     28  C   UNL     1      -7.549  -2.292 129.341  0.00  0.00    +0.000 C 
ATOM     29  C   UNL     1      -7.304  -1.094 130.311  0.00  0.00    +0.000 C 
ENDBRANCH  22  24
BRANCH  16  30
ATOM     30  O   UNL     1      -5.015  -0.471 127.863  0.00  0.00    +0.000 OA
ATOM     31  H   UNL     1      -4.216   0.088 127.836  0.00  0.00    +0.000 HD
ENDBRANCH  16  30
BRANCH  20  32
ATOM     32  C   UNL     1      -8.214   3.886 131.093  0.00  0.00    +0.000 C 
ATOM     33  O   UNL     1      -7.523   4.750 131.639  0.00  0.00    +0.000 OA
BRANCH  32  34
ATOM     34  C   UNL     1      -9.724   4.275 130.617  0.00  0.00    +0.000 C 
BRANCH  34  35
ATOM     35  O   UNL     1     -10.032   5.688 130.601  0.00  0.00    +0.000 OA
BRANCH  35  36
ATOM     36  C   UNL     1      -9.923   6.314 129.384  0.00  0.00    +0.000 C 
ATOM     37  O   UNL     1      -9.441   5.792 128.385  0.00  0.00    +0.000 OA
BRANCH  36  38
ATOM     38  C   UNL     1     -10.496   7.737 129.409  0.00  0.00    +0.000 C 
ATOM     39  C   UNL     1     -10.539   8.354 128.015  0.00  0.00    +0.000 C 
ATOM     40  C   UNL     1     -11.920   7.731 129.980  0.00  0.00    +0.000 C 
ENDBRANCH  36  38
ENDBRANCH  35  36
ENDBRANCH  34  35
ENDBRANCH  32  34
ENDBRANCH  20  32
TORSDOF 7
ENDMDL
MODEL 7
REMARK VINA RESULT:      -8.8      2.681      4.748
REMARK  Name = Ciclesonide
REMARK  11 active torsions:
REMARK  status: ('A' for Active; 'I' for Inactive)
REMARK    1  A    between atoms: C_16  and  C_17
REMARK    2  A    between atoms: C_20  and  O_21
REMARK    3  A    between atoms: C_23  and  C_24
REMARK    4  A    between atoms: C_25  and  C_35
REMARK    5  A    between atoms: C_27  and  C_29
REMARK    6  A    between atoms: C_35  and  C_37
REMARK    7  A    between atoms: C_37  and  O_38
REMARK    8  A    between atoms: O_38  and  C_39
REMARK    9  A    between atoms: C_39  and  C_41
REMARK   10  A    between atoms: C_41  and  C_42
REMARK   11  A    between atoms: C_41  and  C_43
REMARK                            x       y       z     vdW  Elec       q    Type
REMARK                         _______ _______ _______ _____ _____    ______ ____
ROOT
ATOM      1  C   UNL     1      -8.551   3.041 131.058  0.00  0.00    +0.000 C 
ATOM      2  C   UNL     1      -7.553   3.598 130.049  0.00  0.00    +0.000 C 
ATOM      3  C   UNL     1      -6.600   2.585 130.254  0.00  0.00    +0.000 C 
ATOM      4  C   UNL     1      -7.382   0.850 129.460  0.00  0.00    +0.000 C 
ATOM      5  C   UNL     1      -7.452   0.797 127.982  0.00  0.00    +0.000 C 
ATOM      6  C   UNL     1      -8.080  -0.543 127.822  0.00  0.00    +0.000 C 
ATOM      7  C   UNL     1      -6.898  -1.613 128.145  0.00  0.00    +0.000 C 
ATOM      8  C   UNL     1      -6.235  -2.388 127.267  0.00  0.00    +0.000 C 
ATOM      9  C   UNL     1      -7.408  -2.552 126.460  0.00  0.00    +0.000 C 
ATOM     10  O   UNL     1      -7.516  -1.946 125.410  0.00  0.00    +0.000 OA
ATOM     11  C   UNL     1      -8.492  -3.345 127.405  0.00  0.00    +0.000 C 
ATOM     12  C   UNL     1      -8.380  -3.058 128.802  0.00  0.00    +0.000 C 
ATOM     13  C   UNL     1      -7.136  -2.348 129.453  0.00  0.00    +0.000 C 
ATOM     14  C   UNL     1      -6.335  -3.688 129.796  0.00  0.00    +0.000 C 
ATOM     15  C   UNL     1      -6.472  -0.889 130.214  0.00  0.00    +0.000 C 
ATOM     16  C   UNL     1      -5.771  -0.279 132.163  0.00  0.00    +0.000 C 
ATOM     17  C   UNL     1      -5.308   1.158 132.605  0.00  0.00    +0.000 C 
ATOM     18  C   UNL     1      -6.292   2.632 132.174  0.00  0.00    +0.000 C 
ATOM     19  C   UNL     1      -5.174   3.230 133.095  0.00  0.00    +0.000 C 
ATOM     20  C   UNL     1      -7.919   2.861 132.482  0.00  0.00    +0.000 C 
ATOM     21  O   UNL     1      -8.446   1.612 132.998  0.00  0.00    +0.000 OA
ATOM     22  C   UNL     1      -8.825   0.858 131.877  0.00  0.00    +0.000 C 
ATOM     23  O   UNL     1      -9.305   1.842 130.911  0.00  0.00    +0.000 OA
ENDROOT
BRANCH  22  24
ATOM     24  C   UNL     1      -7.632  -0.096 131.358  0.00  0.00    +0.000 C 
ATOM     25  C   UNL     1      -7.073  -1.767 132.196  0.00  0.00    +0.000 C 
ATOM     26  C   UNL     1      -5.245  -2.190 131.616  0.00  0.00    +0.000 C 
ATOM     27  C   UNL     1      -3.959  -0.944 130.938  0.00  0.00    +0.000 C 
ATOM     28  C   UNL     1      -4.429   0.296 130.112  0.00  0.00    +0.000 C 
ATOM     29  C   UNL     1      -5.873   0.737 130.510  0.00  0.00    +0.000 C 
ENDBRANCH  22  24
BRANCH  16  30
ATOM     30  O   UNL     1      -4.887  -0.973 133.279  0.00  0.00    +0.000 OA
ATOM     31  H   UNL     1      -5.350  -1.177 134.113  0.00  0.00    +0.000 HD
ENDBRANCH  16  30
BRANCH  20  32
ATOM     32  C   UNL     1      -8.597   4.115 133.225  0.00  0.00    +0.000 C 
ATOM     33  O   UNL     1      -9.494   3.942 134.054  0.00  0.00    +0.000 OA
BRANCH  32  34
ATOM     34  C   UNL     1      -8.164   5.641 132.843  0.00  0.00    +0.000 C 
BRANCH  34  35
ATOM     35  O   UNL     1      -9.230   6.491 132.359  0.00  0.00    +0.000 OA
BRANCH  35  36
ATOM     36  C   UNL     1      -9.164   6.842 131.034  0.00  0.00    +0.000 C 
ATOM     37  O   UNL     1      -8.146   7.244 130.480  0.00  0.00    +0.000 OA
BRANCH  36  38
ATOM     38  C   UNL     1     -10.506   6.653 130.315  0.00  0.00    +0.000 C 
ATOM     39  C   UNL     1     -11.667   6.562 131.299  0.00  0.00    +0.000 C 
ATOM     40  C   UNL     1     -10.770   7.823 129.358  0.00  0.00    +0.000 C 
ENDBRANCH  36  38
ENDBRANCH  35  36
ENDBRANCH  34  35
ENDBRANCH  32  34
ENDBRANCH  20  32
TORSDOF 7
ENDMDL
MODEL 8
REMARK VINA RESULT:      -8.8      3.384      7.328
REMARK  Name = Ciclesonide
REMARK  11 active torsions:
REMARK  status: ('A' for Active; 'I' for Inactive)
REMARK    1  A    between atoms: C_16  and  C_17
REMARK    2  A    between atoms: C_20  and  O_21
REMARK    3  A    between atoms: C_23  and  C_24
REMARK    4  A    between atoms: C_25  and  C_35
REMARK    5  A    between atoms: C_27  and  C_29
REMARK    6  A    between atoms: C_35  and  C_37
REMARK    7  A    between atoms: C_37  and  O_38
REMARK    8  A    between atoms: O_38  and  C_39
REMARK    9  A    between atoms: C_39  and  C_41
REMARK   10  A    between atoms: C_41  and  C_42
REMARK   11  A    between atoms: C_41  and  C_43
REMARK                            x       y       z     vdW  Elec       q    Type
REMARK                         _______ _______ _______ _____ _____    ______ ____
ROOT
ATOM      1  C   UNL     1      -8.547   2.184 125.698  0.00  0.00    +0.000 C 
ATOM      2  C   UNL     1      -9.010   1.008 126.550  0.00  0.00    +0.000 C 
ATOM      3  C   UNL     1      -7.875   1.011 127.380  0.00  0.00    +0.000 C 
ATOM      4  C   UNL     1      -7.984   2.705 128.550  0.00  0.00    +0.000 C 
ATOM      5  C   UNL     1      -9.029   2.693 129.598  0.00  0.00    +0.000 C 
ATOM      6  C   UNL     1      -8.809   4.050 130.169  0.00  0.00    +0.000 C 
ATOM      7  C   UNL     1      -7.445   3.931 131.047  0.00  0.00    +0.000 C 
ATOM      8  C   UNL     1      -7.335   3.911 132.389  0.00  0.00    +0.000 C 
ATOM      9  C   UNL     1      -8.427   4.827 132.535  0.00  0.00    +0.000 C 
ATOM     10  O   UNL     1      -9.516   4.426 132.901  0.00  0.00    +0.000 OA
ATOM     11  C   UNL     1      -7.938   6.222 131.818  0.00  0.00    +0.000 C 
ATOM     12  C   UNL     1      -7.042   6.039 130.718  0.00  0.00    +0.000 C 
ATOM     13  C   UNL     1      -6.291   4.690 130.415  0.00  0.00    +0.000 C 
ATOM     14  C   UNL     1      -4.977   5.034 131.258  0.00  0.00    +0.000 C 
ATOM     15  C   UNL     1      -6.131   3.267 129.368  0.00  0.00    +0.000 C 
ATOM     16  C   UNL     1      -4.702   2.471 127.958  0.00  0.00    +0.000 C 
ATOM     17  C   UNL     1      -4.859   1.188 127.061  0.00  0.00    +0.000 C 
ATOM     18  C   UNL     1      -6.394   0.881 126.126  0.00  0.00    +0.000 C 
ATOM     19  C   UNL     1      -5.464  -0.281 125.637  0.00  0.00    +0.000 C 
ATOM     20  C   UNL     1      -7.134   1.940 125.064  0.00  0.00    +0.000 C 
ATOM     21  O   UNL     1      -6.432   3.206 125.148  0.00  0.00    +0.000 OA
ATOM     22  C   UNL     1      -7.044   3.919 126.191  0.00  0.00    +0.000 C 
ATOM     23  O   UNL     1      -8.451   3.539 126.127  0.00  0.00    +0.000 OA
ENDROOT
BRANCH  22  24
ATOM     24  C   UNL     1      -6.320   3.657 127.609  0.00  0.00    +0.000 C 
ATOM     25  C   UNL     1      -4.625   4.438 128.177  0.00  0.00    +0.000 C 
ATOM     26  C   UNL     1      -3.874   3.346 129.626  0.00  0.00    +0.000 C 
ATOM     27  C   UNL     1      -4.291   1.513 129.991  0.00  0.00    +0.000 C 
ATOM     28  C   UNL     1      -5.720   0.959 129.690  0.00  0.00    +0.000 C 
ATOM     29  C   UNL     1      -6.407   1.745 128.529  0.00  0.00    +0.000 C 
ENDBRANCH  22  24
BRANCH  16  30
ATOM     30  O   UNL     1      -3.122   2.367 127.935  0.00  0.00    +0.000 OA
ATOM     31  H   UNL     1      -2.646   3.181 128.187  0.00  0.00    +0.000 HD
ENDBRANCH  16  30
BRANCH  20  32
ATOM     32  C   UNL     1      -7.581   1.637 123.549  0.00  0.00    +0.000 C 
ATOM     33  O   UNL     1      -7.180   2.347 122.624  0.00  0.00    +0.000 OA
BRANCH  32  34
ATOM     34  C   UNL     1      -8.630   0.433 123.217  0.00  0.00    +0.000 C 
BRANCH  34  35
ATOM     35  O   UNL     1      -8.074  -0.903 123.227  0.00  0.00    +0.000 OA
BRANCH  35  36
ATOM     36  C   UNL     1      -8.897  -1.893 123.702  0.00  0.00    +0.000 C 
ATOM     37  O   UNL     1      -9.953  -2.221 123.172  0.00  0.00    +0.000 OA
BRANCH  36  38
ATOM     38  C   UNL     1      -8.334  -2.563 124.962  0.00  0.00    +0.000 C 
ATOM     39  C   UNL     1      -9.423  -2.831 125.995  0.00  0.00    +0.000 C 
ATOM     40  C   UNL     1      -7.664  -3.897 124.606  0.00  0.00    +0.000 C 
ENDBRANCH  36  38
ENDBRANCH  35  36
ENDBRANCH  34  35
ENDBRANCH  32  34
ENDBRANCH  20  32
TORSDOF 7
ENDMDL
MODEL 9
REMARK VINA RESULT:      -8.8      3.182      5.494
REMARK  Name = Ciclesonide
REMARK  11 active torsions:
REMARK  status: ('A' for Active; 'I' for Inactive)
REMARK    1  A    between atoms: C_16  and  C_17
REMARK    2  A    between atoms: C_20  and  O_21
REMARK    3  A    between atoms: C_23  and  C_24
REMARK    4  A    between atoms: C_25  and  C_35
REMARK    5  A    between atoms: C_27  and  C_29
REMARK    6  A    between atoms: C_35  and  C_37
REMARK    7  A    between atoms: C_37  and  O_38
REMARK    8  A    between atoms: O_38  and  C_39
REMARK    9  A    between atoms: C_39  and  C_41
REMARK   10  A    between atoms: C_41  and  C_42
REMARK   11  A    between atoms: C_41  and  C_43
REMARK                            x       y       z     vdW  Elec       q    Type
REMARK                         _______ _______ _______ _____ _____    ______ ____
ROOT
ATOM      1  C   UNL     1      -9.431   4.984 132.729  0.00  0.00    +0.000 C 
ATOM      2  C   UNL     1      -9.442   3.820 133.714  0.00  0.00    +0.000 C 
ATOM      3  C   UNL     1      -8.116   3.432 133.451  0.00  0.00    +0.000 C 
ATOM      4  C   UNL     1      -6.891   4.894 134.233  0.00  0.00    +0.000 C 
ATOM      5  C   UNL     1      -6.821   4.948 135.711  0.00  0.00    +0.000 C 
ATOM      6  C   UNL     1      -5.902   6.108 135.863  0.00  0.00    +0.000 C 
ATOM      7  C   UNL     1      -4.427   5.544 135.473  0.00  0.00    +0.000 C 
ATOM      8  C   UNL     1      -3.405   5.282 136.308  0.00  0.00    +0.000 C 
ATOM      9  C   UNL     1      -3.756   6.385 137.153  0.00  0.00    +0.000 C 
ATOM     10  O   UNL     1      -4.307   6.185 138.220  0.00  0.00    +0.000 OA
ATOM     11  C   UNL     1      -3.572   7.731 136.230  0.00  0.00    +0.000 C 
ATOM     12  C   UNL     1      -3.829   7.532 134.837  0.00  0.00    +0.000 C 
ATOM     13  C   UNL     1      -3.927   6.116 134.157  0.00  0.00    +0.000 C 
ATOM     14  C   UNL     1      -2.383   6.013 133.755  0.00  0.00    +0.000 C 
ATOM     15  C   UNL     1      -4.957   4.883 133.407  0.00  0.00    +0.000 C 
ATOM     16  C   UNL     1      -5.258   4.025 131.448  0.00  0.00    +0.000 C 
ATOM     17  C   UNL     1      -6.349   2.974 131.023  0.00  0.00    +0.000 C 
ATOM     18  C   UNL     1      -8.090   3.178 131.523  0.00  0.00    +0.000 C 
ATOM     19  C   UNL     1      -8.155   1.930 130.576  0.00  0.00    +0.000 C 
ATOM     20  C   UNL     1      -9.038   4.534 131.280  0.00  0.00    +0.000 C 
ATOM     21  O   UNL     1      -8.180   5.578 130.754  0.00  0.00    +0.000 OA
ATOM     22  C   UNL     1      -7.637   6.231 131.871  0.00  0.00    +0.000 C 
ATOM     23  O   UNL     1      -8.694   6.194 132.876  0.00  0.00    +0.000 OA
ENDROOT
BRANCH  22  24
ATOM     24  C   UNL     1      -6.229   5.586 132.324  0.00  0.00    +0.000 C 
ATOM     25  C   UNL     1      -4.517   5.861 131.431  0.00  0.00    +0.000 C 
ATOM     26  C   UNL     1      -3.296   4.408 131.932  0.00  0.00    +0.000 C 
ATOM     27  C   UNL     1      -3.803   2.682 132.588  0.00  0.00    +0.000 C 
ATOM     28  C   UNL     1      -5.091   2.522 133.457  0.00  0.00    +0.000 C 
ATOM     29  C   UNL     1      -6.149   3.620 133.123  0.00  0.00    +0.000 C 
ENDBRANCH  22  24
BRANCH  16  30
ATOM     30  O   UNL     1      -4.283   3.574 130.285  0.00  0.00    +0.000 OA
ATOM     31  H   UNL     1      -4.532   2.749 129.826  0.00  0.00    +0.000 HD
ENDBRANCH  16  30
BRANCH  20  32
ATOM     32  C   UNL     1     -10.490   4.589 130.590  0.00  0.00    +0.000 C 
ATOM     33  O   UNL     1     -11.058   3.552 130.242  0.00  0.00    +0.000 OA
BRANCH  32  34
ATOM     34  C   UNL     1     -11.204   6.021 130.272  0.00  0.00    +0.000 C 
BRANCH  34  35
ATOM     35  O   UNL     1     -11.326   6.362 128.871  0.00  0.00    +0.000 OA
BRANCH  35  36
ATOM     36  C   UNL     1     -11.061   7.669 128.546  0.00  0.00    +0.000 C 
ATOM     37  O   UNL     1      -9.942   8.169 128.566  0.00  0.00    +0.000 OA
BRANCH  36  38
ATOM     38  C   UNL     1     -12.326   8.431 128.129  0.00  0.00    +0.000 C 
ATOM     39  C   UNL     1     -13.449   7.484 127.720  0.00  0.00    +0.000 C 
ATOM     40  C   UNL     1     -12.828   9.307 129.285  0.00  0.00    +0.000 C 
ENDBRANCH  36  38
ENDBRANCH  35  36
ENDBRANCH  34  35
ENDBRANCH  32  34
ENDBRANCH  20  32
TORSDOF 7
ENDMDL
