MODEL 1
REMARK VINA RESULT:      -5.8      0.000      0.000
REMARK  Name = Cidofovir
REMARK  9 active torsions:
REMARK  status: ('A' for Active; 'I' for Inactive)
REMARK    1  A    between atoms: N_6  and  C_7
REMARK    2  A    between atoms: C_7  and  C_8
REMARK    3  A    between atoms: C_8  and  C_9
REMARK    4  A    between atoms: C_8  and  O_11
REMARK    5  A    between atoms: C_9  and  O_10
REMARK    6  A    between atoms: O_11  and  C_12
REMARK    7  A    between atoms: C_12  and  P_13
REMARK    8  A    between atoms: P_13  and  O_14
REMARK    9  A    between atoms: P_13  and  O_15
REMARK                            x       y       z     vdW  Elec       q    Type
REMARK                         _______ _______ _______ _____ _____    ______ ____
ROOT
ATOM      1  C   UNL     1     -11.473   5.907 130.374  0.00  0.00    +0.000 C 
ENDROOT
BRANCH   1   2
ATOM      2  C   UNL     1     -10.348   4.902 130.708  0.00  0.00    +0.000 C 
BRANCH   2   8
ATOM      3  N   UNL     1      -4.936   5.907 130.556  0.00  0.00    +0.000 N 
ATOM      4  C   UNL     1      -6.291   5.760 130.556  0.00  0.00    +0.000 A 
ATOM      5  N   UNL     1      -6.797   5.116 129.554  0.00  0.00    +0.000 NA
ATOM      6  C   UNL     1      -8.144   4.941 129.481  0.00  0.00    +0.000 A 
ATOM      7  O   UNL     1      -8.590   4.308 128.512  0.00  0.00    +0.000 OA
ATOM      8  N   UNL     1      -8.965   5.403 130.520  0.00  0.00    +0.000 N 
ATOM      9  C   UNL     1      -8.436   6.223 131.495  0.00  0.00    +0.000 A 
ATOM     10  C   UNL     1      -7.116   6.364 131.618  0.00  0.00    +0.000 A 
ATOM     11  H   UNL     1      -4.505   5.693 129.659  0.00  0.00    +0.000 HD
ATOM     12  H   UNL     1      -4.529   6.693 131.044  0.00  0.00    +0.000 HD
ENDBRANCH   2   8
ENDBRANCH   1   2
BRANCH   1  13
ATOM     13  C   UNL     1     -11.978   6.709 131.609  0.00  0.00    +0.000 C 
BRANCH  13  14
ATOM     14  O   UNL     1     -13.281   7.245 131.594  0.00  0.00    +0.000 OA
ATOM     15  H   UNL     1     -13.471   7.492 130.662  0.00  0.00    +0.000 HD
ENDBRANCH  13  14
ENDBRANCH   1  13
BRANCH   1  16
ATOM     16  O   UNL     1     -11.030   6.858 129.389  0.00  0.00    +0.000 OA
BRANCH  16  17
ATOM     17  C   UNL     1     -12.029   6.981 128.365  0.00  0.00    +0.000 C 
BRANCH  17  18
ATOM     18  P   UNL     1     -11.283   7.571 126.801  0.00  0.00    +0.000 P 
ATOM     19  O   UNL     1     -10.652   8.069 125.477  0.00  0.00    +0.000 OA
BRANCH  18  20
ATOM     20  O   UNL     1     -10.032   6.531 127.098  0.00  0.00    +0.000 OA
ATOM     21  H   UNL     1      -9.861   5.816 126.461  0.00  0.00    +0.000 HD
ENDBRANCH  18  20
BRANCH  18  22
ATOM     22  O   UNL     1     -12.331   6.557 126.021  0.00  0.00    +0.000 OA
ATOM     23  H   UNL     1     -12.052   6.181 125.168  0.00  0.00    +0.000 HD
ENDBRANCH  18  22
ENDBRANCH  17  18
ENDBRANCH  16  17
ENDBRANCH   1  16
TORSDOF 9
ENDMDL
MODEL 2
REMARK VINA RESULT:      -5.8      3.717      5.684
REMARK  Name = Cidofovir
REMARK  9 active torsions:
REMARK  status: ('A' for Active; 'I' for Inactive)
REMARK    1  A    between atoms: N_6  and  C_7
REMARK    2  A    between atoms: C_7  and  C_8
REMARK    3  A    between atoms: C_8  and  C_9
REMARK    4  A    between atoms: C_8  and  O_11
REMARK    5  A    between atoms: C_9  and  O_10
REMARK    6  A    between atoms: O_11  and  C_12
REMARK    7  A    between atoms: C_12  and  P_13
REMARK    8  A    between atoms: P_13  and  O_14
REMARK    9  A    between atoms: P_13  and  O_15
REMARK                            x       y       z     vdW  Elec       q    Type
REMARK                         _______ _______ _______ _____ _____    ______ ____
ROOT
ATOM      1  C   UNL     1      -8.769   6.583 130.957  0.00  0.00    +0.000 C 
ENDROOT
BRANCH   1   2
ATOM      2  C   UNL     1      -9.822   5.884 130.069  0.00  0.00    +0.000 C 
BRANCH   2   8
ATOM      3  N   UNL     1     -13.306   9.882 128.583  0.00  0.00    +0.000 N 
ATOM      4  C   UNL     1     -12.526   8.821 128.936  0.00  0.00    +0.000 A 
ATOM      5  N   UNL     1     -11.727   8.369 128.023  0.00  0.00    +0.000 NA
ATOM      6  C   UNL     1     -10.927   7.304 128.300  0.00  0.00    +0.000 A 
ATOM      7  O   UNL     1     -10.167   6.908 127.404  0.00  0.00    +0.000 OA
ATOM      8  N   UNL     1     -10.927   6.747 129.588  0.00  0.00    +0.000 N 
ATOM      9  C   UNL     1     -11.892   7.131 130.497  0.00  0.00    +0.000 A 
ATOM     10  C   UNL     1     -12.649   8.204 130.270  0.00  0.00    +0.000 A 
ATOM     11  H   UNL     1     -13.333  10.048 127.580  0.00  0.00    +0.000 HD
ATOM     12  H   UNL     1     -14.186  10.022 129.060  0.00  0.00    +0.000 HD
ENDBRANCH   2   8
ENDBRANCH   1   2
BRANCH   1  13
ATOM     13  C   UNL     1      -8.662   5.978 132.388  0.00  0.00    +0.000 C 
BRANCH  13  14
ATOM     14  O   UNL     1      -9.652   6.290 133.341  0.00  0.00    +0.000 OA
ATOM     15  H   UNL     1     -10.187   7.020 132.960  0.00  0.00    +0.000 HD
ENDBRANCH  13  14
ENDBRANCH   1  13
BRANCH   1  16
ATOM     16  O   UNL     1      -7.464   6.508 130.356  0.00  0.00    +0.000 OA
BRANCH  16  17
ATOM     17  C   UNL     1      -6.471   6.879 131.324  0.00  0.00    +0.000 C 
BRANCH  17  18
ATOM     18  P   UNL     1      -4.793   6.781 130.601  0.00  0.00    +0.000 P 
ATOM     19  O   UNL     1      -3.372   6.698 129.990  0.00  0.00    +0.000 OA
BRANCH  18  20
ATOM     20  O   UNL     1      -5.429   5.767 129.461  0.00  0.00    +0.000 OA
ATOM     21  H   UNL     1      -5.068   4.867 129.386  0.00  0.00    +0.000 HD
ENDBRANCH  18  20
BRANCH  18  22
ATOM     22  O   UNL     1      -5.104   8.246 129.901  0.00  0.00    +0.000 OA
ATOM     23  H   UNL     1      -5.194   8.279 128.933  0.00  0.00    +0.000 HD
ENDBRANCH  18  22
ENDBRANCH  17  18
ENDBRANCH  16  17
ENDBRANCH   1  16
TORSDOF 9
ENDMDL
MODEL 3
REMARK VINA RESULT:      -5.8      3.827      6.041
REMARK  Name = Cidofovir
REMARK  9 active torsions:
REMARK  status: ('A' for Active; 'I' for Inactive)
REMARK    1  A    between atoms: N_6  and  C_7
REMARK    2  A    between atoms: C_7  and  C_8
REMARK    3  A    between atoms: C_8  and  C_9
REMARK    4  A    between atoms: C_8  and  O_11
REMARK    5  A    between atoms: C_9  and  O_10
REMARK    6  A    between atoms: O_11  and  C_12
REMARK    7  A    between atoms: C_12  and  P_13
REMARK    8  A    between atoms: P_13  and  O_14
REMARK    9  A    between atoms: P_13  and  O_15
REMARK                            x       y       z     vdW  Elec       q    Type
REMARK                         _______ _______ _______ _____ _____    ______ ____
ROOT
ATOM      1  C   UNL     1      -9.157   5.474 130.810  0.00  0.00    +0.000 C 
ENDROOT
BRANCH   1   2
ATOM      2  C   UNL     1     -10.547   5.528 130.137  0.00  0.00    +0.000 C 
BRANCH   2   8
ATOM      3  N   UNL     1     -13.294  10.087 128.721  0.00  0.00    +0.000 N 
ATOM      4  C   UNL     1     -12.538   9.023 129.117  0.00  0.00    +0.000 A 
ATOM      5  N   UNL     1     -12.928   8.412 130.190  0.00  0.00    +0.000 NA
ATOM      6  C   UNL     1     -12.215   7.349 130.652  0.00  0.00    +0.000 A 
ATOM      7  O   UNL     1     -12.628   6.782 131.675  0.00  0.00    +0.000 OA
ATOM      8  N   UNL     1     -11.105   6.886 129.930  0.00  0.00    +0.000 N 
ATOM      9  C   UNL     1     -10.608   7.638 128.885  0.00  0.00    +0.000 A 
ATOM     10  C   UNL     1     -11.316   8.649 128.382  0.00  0.00    +0.000 A 
ATOM     11  H   UNL     1     -13.940  10.413 129.436  0.00  0.00    +0.000 HD
ATOM     12  H   UNL     1     -12.860  10.819 128.176  0.00  0.00    +0.000 HD
ENDBRANCH   2   8
ENDBRANCH   1   2
BRANCH   1  13
ATOM     13  C   UNL     1      -9.191   5.789 132.334  0.00  0.00    +0.000 C 
BRANCH  13  14
ATOM     14  O   UNL     1     -10.343   5.462 133.078  0.00  0.00    +0.000 OA
ATOM     15  H   UNL     1     -10.225   4.536 133.382  0.00  0.00    +0.000 HD
ENDBRANCH  13  14
ENDBRANCH   1  13
BRANCH   1  16
ATOM     16  O   UNL     1      -8.563   4.174 130.648  0.00  0.00    +0.000 OA
BRANCH  16  17
ATOM     17  C   UNL     1      -9.599   3.180 130.600  0.00  0.00    +0.000 C 
BRANCH  17  18
ATOM     18  P   UNL     1      -9.164   1.741 131.644  0.00  0.00    +0.000 P 
ATOM     19  O   UNL     1      -8.797   0.523 132.527  0.00  0.00    +0.000 OA
BRANCH  18  20
ATOM     20  O   UNL     1      -7.680   2.440 131.851  0.00  0.00    +0.000 OA
ATOM     21  H   UNL     1      -7.306   2.478 132.748  0.00  0.00    +0.000 HD
ENDBRANCH  18  20
BRANCH  18  22
ATOM     22  O   UNL     1     -10.010   2.477 132.858  0.00  0.00    +0.000 OA
ATOM     23  H   UNL     1      -9.560   3.169 133.374  0.00  0.00    +0.000 HD
ENDBRANCH  18  22
ENDBRANCH  17  18
ENDBRANCH  16  17
ENDBRANCH   1  16
TORSDOF 9
ENDMDL
MODEL 4
REMARK VINA RESULT:      -5.7      3.006      5.073
REMARK  Name = Cidofovir
REMARK  9 active torsions:
REMARK  status: ('A' for Active; 'I' for Inactive)
REMARK    1  A    between atoms: N_6  and  C_7
REMARK    2  A    between atoms: C_7  and  C_8
REMARK    3  A    between atoms: C_8  and  C_9
REMARK    4  A    between atoms: C_8  and  O_11
REMARK    5  A    between atoms: C_9  and  O_10
REMARK    6  A    between atoms: O_11  and  C_12
REMARK    7  A    between atoms: C_12  and  P_13
REMARK    8  A    between atoms: P_13  and  O_14
REMARK    9  A    between atoms: P_13  and  O_15
REMARK                            x       y       z     vdW  Elec       q    Type
REMARK                         _______ _______ _______ _____ _____    ______ ____
ROOT
ATOM      1  C   UNL     1      -9.380   6.408 130.807  0.00  0.00    +0.000 C 
ENDROOT
BRANCH   1   2
ATOM      2  C   UNL     1     -10.758   5.885 130.346  0.00  0.00    +0.000 C 
BRANCH   2   8
ATOM      3  N   UNL     1     -13.473  10.382 128.694  0.00  0.00    +0.000 N 
ATOM      4  C   UNL     1     -12.897   9.215 129.100  0.00  0.00    +0.000 A 
ATOM      5  N   UNL     1     -12.275   8.537 128.189  0.00  0.00    +0.000 NA
ATOM      6  C   UNL     1     -11.686   7.356 128.519  0.00  0.00    +0.000 A 
ATOM      7  O   UNL     1     -11.089   6.742 127.621  0.00  0.00    +0.000 OA
ATOM      8  N   UNL     1     -11.701   6.915 129.851  0.00  0.00    +0.000 N 
ATOM      9  C   UNL     1     -12.499   7.560 130.773  0.00  0.00    +0.000 A 
ATOM     10  C   UNL     1     -13.041   8.744 130.490  0.00  0.00    +0.000 A 
ATOM     11  H   UNL     1     -13.541  10.470 127.683  0.00  0.00    +0.000 HD
ATOM     12  H   UNL     1     -14.270  10.737 129.205  0.00  0.00    +0.000 HD
ENDBRANCH   2   8
ENDBRANCH   1   2
BRANCH   1  13
ATOM     13  C   UNL     1      -8.972   5.921 132.228  0.00  0.00    +0.000 C 
BRANCH  13  14
ATOM     14  O   UNL     1      -9.722   6.345 133.342  0.00  0.00    +0.000 OA
ATOM     15  H   UNL     1     -10.555   5.825 133.332  0.00  0.00    +0.000 HD
ENDBRANCH  13  14
ENDBRANCH   1  13
BRANCH   1  16
ATOM     16  O   UNL     1      -8.348   5.997 129.893  0.00  0.00    +0.000 OA
BRANCH  16  17
ATOM     17  C   UNL     1      -8.224   4.567 129.927  0.00  0.00    +0.000 C 
BRANCH  17  18
ATOM     18  P   UNL     1      -7.745   3.919 128.284  0.00  0.00    +0.000 P 
ATOM     19  O   UNL     1      -7.340   3.371 126.892  0.00  0.00    +0.000 OA
BRANCH  18  20
ATOM     20  O   UNL     1      -8.912   2.765 128.487  0.00  0.00    +0.000 OA
ATOM     21  H   UNL     1      -8.904   1.988 127.901  0.00  0.00    +0.000 HD
ENDBRANCH  18  20
BRANCH  18  22
ATOM     22  O   UNL     1      -8.649   5.142 127.635  0.00  0.00    +0.000 OA
ATOM     23  H   UNL     1      -9.619   5.069 127.685  0.00  0.00    +0.000 HD
ENDBRANCH  18  22
ENDBRANCH  17  18
ENDBRANCH  16  17
ENDBRANCH   1  16
TORSDOF 9
ENDMDL
MODEL 5
REMARK VINA RESULT:      -5.6      7.732      9.334
REMARK  Name = Cidofovir
REMARK  9 active torsions:
REMARK  status: ('A' for Active; 'I' for Inactive)
REMARK    1  A    between atoms: N_6  and  C_7
REMARK    2  A    between atoms: C_7  and  C_8
REMARK    3  A    between atoms: C_8  and  C_9
REMARK    4  A    between atoms: C_8  and  O_11
REMARK    5  A    between atoms: C_9  and  O_10
REMARK    6  A    between atoms: O_11  and  C_12
REMARK    7  A    between atoms: C_12  and  P_13
REMARK    8  A    between atoms: P_13  and  O_14
REMARK    9  A    between atoms: P_13  and  O_15
REMARK                            x       y       z     vdW  Elec       q    Type
REMARK                         _______ _______ _______ _____ _____    ______ ____
ROOT
ATOM      1  C   UNL     1      -7.069   2.625 124.094  0.00  0.00    +0.000 C 
ENDROOT
BRANCH   1   2
ATOM      2  C   UNL     1      -6.937   2.235 122.605  0.00  0.00    +0.000 C 
BRANCH   2   8
ATOM      3  N   UNL     1      -5.827   5.659 118.438  0.00  0.00    +0.000 N 
ATOM      4  C   UNL     1      -6.107   4.900 119.535  0.00  0.00    +0.000 A 
ATOM      5  N   UNL     1      -7.334   4.506 119.660  0.00  0.00    +0.000 NA
ATOM      6  C   UNL     1      -7.690   3.754 120.737  0.00  0.00    +0.000 A 
ATOM      7  O   UNL     1      -8.872   3.385 120.815  0.00  0.00    +0.000 OA
ATOM      8  N   UNL     1      -6.715   3.359 121.665  0.00  0.00    +0.000 N 
ATOM      9  C   UNL     1      -5.453   3.915 121.608  0.00  0.00    +0.000 A 
ATOM     10  C   UNL     1      -5.066   4.609 120.538  0.00  0.00    +0.000 A 
ATOM     11  H   UNL     1      -6.657   6.016 117.969  0.00  0.00    +0.000 HD
ATOM     12  H   UNL     1      -5.052   6.306 118.476  0.00  0.00    +0.000 HD
ENDBRANCH   2   8
ENDBRANCH   1   2
BRANCH   1  13
ATOM     13  C   UNL     1      -8.359   3.436 124.413  0.00  0.00    +0.000 C 
BRANCH  13  14
ATOM     14  O   UNL     1      -9.422   2.800 125.083  0.00  0.00    +0.000 OA
ATOM     15  H   UNL     1     -10.194   3.405 125.020  0.00  0.00    +0.000 HD
ENDBRANCH  13  14
ENDBRANCH   1  13
BRANCH   1  16
ATOM     16  O   UNL     1      -7.074   1.454 124.929  0.00  0.00    +0.000 OA
BRANCH  16  17
ATOM     17  C   UNL     1      -7.275   0.289 124.114  0.00  0.00    +0.000 C 
BRANCH  17  18
ATOM     18  P   UNL     1      -8.570  -0.787 124.830  0.00  0.00    +0.000 P 
ATOM     19  O   UNL     1      -9.667  -1.698 125.435  0.00  0.00    +0.000 OA
BRANCH  18  20
ATOM     20  O   UNL     1      -8.523   0.181 126.169  0.00  0.00    +0.000 OA
ATOM     21  H   UNL     1      -9.353   0.580 126.484  0.00  0.00    +0.000 HD
ENDBRANCH  18  20
BRANCH  18  22
ATOM     22  O   UNL     1      -9.654   0.046 123.900  0.00  0.00    +0.000 OA
ATOM     23  H   UNL     1      -9.760   0.999 124.067  0.00  0.00    +0.000 HD
ENDBRANCH  18  22
ENDBRANCH  17  18
ENDBRANCH  16  17
ENDBRANCH   1  16
TORSDOF 9
ENDMDL
MODEL 6
REMARK VINA RESULT:      -5.6      3.971      6.259
REMARK  Name = Cidofovir
REMARK  9 active torsions:
REMARK  status: ('A' for Active; 'I' for Inactive)
REMARK    1  A    between atoms: N_6  and  C_7
REMARK    2  A    between atoms: C_7  and  C_8
REMARK    3  A    between atoms: C_8  and  C_9
REMARK    4  A    between atoms: C_8  and  O_11
REMARK    5  A    between atoms: C_9  and  O_10
REMARK    6  A    between atoms: O_11  and  C_12
REMARK    7  A    between atoms: C_12  and  P_13
REMARK    8  A    between atoms: P_13  and  O_14
REMARK    9  A    between atoms: P_13  and  O_15
REMARK                            x       y       z     vdW  Elec       q    Type
REMARK                         _______ _______ _______ _____ _____    ______ ____
ROOT
ATOM      1  C   UNL     1      -9.812   5.078 130.331  0.00  0.00    +0.000 C 
ENDROOT
BRANCH   1   2
ATOM      2  C   UNL     1      -9.810   6.616 130.472  0.00  0.00    +0.000 C 
BRANCH   2   8
ATOM      3  N   UNL     1     -13.628  10.088 128.550  0.00  0.00    +0.000 N 
ATOM      4  C   UNL     1     -12.755   9.147 129.008  0.00  0.00    +0.000 A 
ATOM      5  N   UNL     1     -11.838   8.765 128.178  0.00  0.00    +0.000 NA
ATOM      6  C   UNL     1     -10.938   7.820 128.563  0.00  0.00    +0.000 A 
ATOM      7  O   UNL     1     -10.066   7.489 127.744  0.00  0.00    +0.000 OA
ATOM      8  N   UNL     1     -10.971   7.315 129.871  0.00  0.00    +0.000 N 
ATOM      9  C   UNL     1     -12.044   7.609 130.688  0.00  0.00    +0.000 A 
ATOM     10  C   UNL     1     -12.906   8.569 130.357  0.00  0.00    +0.000 A 
ATOM     11  H   UNL     1     -13.596  10.213 127.541  0.00  0.00    +0.000 HD
ATOM     12  H   UNL     1     -14.554  10.134 128.953  0.00  0.00    +0.000 HD
ENDBRANCH   2   8
ENDBRANCH   1   2
BRANCH   1  13
ATOM     13  C   UNL     1      -8.670   4.534 129.422  0.00  0.00    +0.000 C 
BRANCH  13  14
ATOM     14  O   UNL     1      -8.624   4.925 128.070  0.00  0.00    +0.000 OA
ATOM     15  H   UNL     1      -9.548   5.131 127.807  0.00  0.00    +0.000 HD
ENDBRANCH  13  14
ENDBRANCH   1  13
BRANCH   1  16
ATOM     16  O   UNL     1      -9.681   4.448 131.617  0.00  0.00    +0.000 OA
BRANCH  16  17
ATOM     17  C   UNL     1      -8.325   4.574 132.073  0.00  0.00    +0.000 C 
BRANCH  17  18
ATOM     18  P   UNL     1      -8.265   4.711 133.897  0.00  0.00    +0.000 P 
ATOM     19  O   UNL     1      -8.214   4.826 135.441  0.00  0.00    +0.000 OA
BRANCH  18  20
ATOM     20  O   UNL     1      -8.907   6.225 133.726  0.00  0.00    +0.000 OA
ATOM     21  H   UNL     1      -8.792   6.685 132.875  0.00  0.00    +0.000 HD
ENDBRANCH  18  20
BRANCH  18  22
ATOM     22  O   UNL     1      -9.647   3.804 133.923  0.00  0.00    +0.000 OA
ATOM     23  H   UNL     1     -10.057   3.572 133.071  0.00  0.00    +0.000 HD
ENDBRANCH  18  22
ENDBRANCH  17  18
ENDBRANCH  16  17
ENDBRANCH   1  16
TORSDOF 9
ENDMDL
MODEL 7
REMARK VINA RESULT:      -5.5      2.331      3.618
REMARK  Name = Cidofovir
REMARK  9 active torsions:
REMARK  status: ('A' for Active; 'I' for Inactive)
REMARK    1  A    between atoms: N_6  and  C_7
REMARK    2  A    between atoms: C_7  and  C_8
REMARK    3  A    between atoms: C_8  and  C_9
REMARK    4  A    between atoms: C_8  and  O_11
REMARK    5  A    between atoms: C_9  and  O_10
REMARK    6  A    between atoms: O_11  and  C_12
REMARK    7  A    between atoms: C_12  and  P_13
REMARK    8  A    between atoms: P_13  and  O_14
REMARK    9  A    between atoms: P_13  and  O_15
REMARK                            x       y       z     vdW  Elec       q    Type
REMARK                         _______ _______ _______ _____ _____    ______ ____
ROOT
ATOM      1  C   UNL     1      -8.659   6.883 131.084  0.00  0.00    +0.000 C 
ENDROOT
BRANCH   1   2
ATOM      2  C   UNL     1      -9.779   5.930 131.559  0.00  0.00    +0.000 C 
BRANCH   2   8
ATOM      3  N   UNL     1      -9.445   0.450 131.986  0.00  0.00    +0.000 N 
ATOM      4  C   UNL     1      -9.418   1.809 131.885  0.00  0.00    +0.000 A 
ATOM      5  N   UNL     1      -9.568   2.298 130.695  0.00  0.00    +0.000 NA
ATOM      6  C   UNL     1      -9.540   3.646 130.516  0.00  0.00    +0.000 A 
ATOM      7  O   UNL     1      -9.701   4.076 129.363  0.00  0.00    +0.000 OA
ATOM      8  N   UNL     1      -9.413   4.495 131.625  0.00  0.00    +0.000 N 
ATOM      9  C   UNL     1      -9.094   3.964 132.858  0.00  0.00    +0.000 A 
ATOM     10  C   UNL     1      -9.169   2.651 133.070  0.00  0.00    +0.000 A 
ATOM     11  H   UNL     1      -9.353  -0.025 131.091  0.00  0.00    +0.000 HD
ATOM     12  H   UNL     1      -8.957   0.007 132.752  0.00  0.00    +0.000 HD
ENDBRANCH   2   8
ENDBRANCH   1   2
BRANCH   1  13
ATOM     13  C   UNL     1      -7.293   6.173 130.856  0.00  0.00    +0.000 C 
BRANCH  13  14
ATOM     14  O   UNL     1      -6.986   5.667 129.578  0.00  0.00    +0.000 OA
ATOM     15  H   UNL     1      -6.559   4.794 129.718  0.00  0.00    +0.000 HD
ENDBRANCH  13  14
ENDBRANCH   1  13
BRANCH   1  16
ATOM     16  O   UNL     1      -9.027   7.526 129.851  0.00  0.00    +0.000 OA
BRANCH  16  17
ATOM     17  C   UNL     1     -10.458   7.563 129.741  0.00  0.00    +0.000 C 
BRANCH  17  18
ATOM     18  P   UNL     1     -10.986   7.208 128.025  0.00  0.00    +0.000 P 
ATOM     19  O   UNL     1     -11.433   6.907 126.573  0.00  0.00    +0.000 OA
BRANCH  18  20
ATOM     20  O   UNL     1      -9.577   6.360 127.851  0.00  0.00    +0.000 OA
ATOM     21  H   UNL     1      -9.625   5.393 127.758  0.00  0.00    +0.000 HD
ENDBRANCH  18  20
BRANCH  18  22
ATOM     22  O   UNL     1     -11.961   6.034 128.661  0.00  0.00    +0.000 OA
ATOM     23  H   UNL     1     -12.607   6.296 129.340  0.00  0.00    +0.000 HD
ENDBRANCH  18  22
ENDBRANCH  17  18
ENDBRANCH  16  17
ENDBRANCH   1  16
TORSDOF 9
ENDMDL
MODEL 8
REMARK VINA RESULT:      -5.5      2.752      3.288
REMARK  Name = Cidofovir
REMARK  9 active torsions:
REMARK  status: ('A' for Active; 'I' for Inactive)
REMARK    1  A    between atoms: N_6  and  C_7
REMARK    2  A    between atoms: C_7  and  C_8
REMARK    3  A    between atoms: C_8  and  C_9
REMARK    4  A    between atoms: C_8  and  O_11
REMARK    5  A    between atoms: C_9  and  O_10
REMARK    6  A    between atoms: O_11  and  C_12
REMARK    7  A    between atoms: C_12  and  P_13
REMARK    8  A    between atoms: P_13  and  O_14
REMARK    9  A    between atoms: P_13  and  O_15
REMARK                            x       y       z     vdW  Elec       q    Type
REMARK                         _______ _______ _______ _____ _____    ______ ____
ROOT
ATOM      1  C   UNL     1     -11.301   5.369 130.561  0.00  0.00    +0.000 C 
ENDROOT
BRANCH   1   2
ATOM      2  C   UNL     1      -9.816   4.946 130.621  0.00  0.00    +0.000 C 
BRANCH   2   8
ATOM      3  N   UNL     1      -7.849   0.149 132.477  0.00  0.00    +0.000 N 
ATOM      4  C   UNL     1      -8.435   1.289 132.011  0.00  0.00    +0.000 A 
ATOM      5  N   UNL     1      -8.719   2.189 132.897  0.00  0.00    +0.000 NA
ATOM      6  C   UNL     1      -9.316   3.348 132.507  0.00  0.00    +0.000 A 
ATOM      7  O   UNL     1      -9.560   4.191 133.384  0.00  0.00    +0.000 OA
ATOM      8  N   UNL     1      -9.560   3.584 131.146  0.00  0.00    +0.000 N 
ATOM      9  C   UNL     1      -9.402   2.558 130.237  0.00  0.00    +0.000 A 
ATOM     10  C   UNL     1      -8.771   1.437 130.583  0.00  0.00    +0.000 A 
ATOM     11  H   UNL     1      -7.911   0.046 133.487  0.00  0.00    +0.000 HD
ATOM     12  H   UNL     1      -7.966  -0.709 131.955  0.00  0.00    +0.000 HD
ENDBRANCH   2   8
ENDBRANCH   1   2
BRANCH   1  13
ATOM     13  C   UNL     1     -11.683   6.453 131.611  0.00  0.00    +0.000 C 
BRANCH  13  14
ATOM     14  O   UNL     1     -10.858   6.638 132.738  0.00  0.00    +0.000 OA
ATOM     15  H   UNL     1     -11.230   6.075 133.452  0.00  0.00    +0.000 HD
ENDBRANCH  13  14
ENDBRANCH   1  13
BRANCH   1  16
ATOM     16  O   UNL     1     -11.630   5.889 129.260  0.00  0.00    +0.000 OA
BRANCH  16  17
ATOM     17  C   UNL     1     -10.925   7.122 129.048  0.00  0.00    +0.000 C 
BRANCH  17  18
ATOM     18  P   UNL     1     -10.909   7.562 127.272  0.00  0.00    +0.000 P 
ATOM     19  O   UNL     1     -10.897   7.935 125.769  0.00  0.00    +0.000 OA
BRANCH  18  20
ATOM     20  O   UNL     1      -9.735   6.415 127.079  0.00  0.00    +0.000 OA
ATOM     21  H   UNL     1      -8.824   6.708 126.903  0.00  0.00    +0.000 HD
ENDBRANCH  18  20
BRANCH  18  22
ATOM     22  O   UNL     1     -12.265   6.628 127.118  0.00  0.00    +0.000 OA
ATOM     23  H   UNL     1     -13.125   7.036 127.317  0.00  0.00    +0.000 HD
ENDBRANCH  18  22
ENDBRANCH  17  18
ENDBRANCH  16  17
ENDBRANCH   1  16
TORSDOF 9
ENDMDL
MODEL 9
REMARK VINA RESULT:      -5.5      3.568      5.520
REMARK  Name = Cidofovir
REMARK  9 active torsions:
REMARK  status: ('A' for Active; 'I' for Inactive)
REMARK    1  A    between atoms: N_6  and  C_7
REMARK    2  A    between atoms: C_7  and  C_8
REMARK    3  A    between atoms: C_8  and  C_9
REMARK    4  A    between atoms: C_8  and  O_11
REMARK    5  A    between atoms: C_9  and  O_10
REMARK    6  A    between atoms: O_11  and  C_12
REMARK    7  A    between atoms: C_12  and  P_13
REMARK    8  A    between atoms: P_13  and  O_14
REMARK    9  A    between atoms: P_13  and  O_15
REMARK                            x       y       z     vdW  Elec       q    Type
REMARK                         _______ _______ _______ _____ _____    ______ ____
ROOT
ATOM      1  C   UNL     1      -9.492   5.653 132.207  0.00  0.00    +0.000 C 
ENDROOT
BRANCH   1   2
ATOM      2  C   UNL     1     -10.100   5.632 130.787  0.00  0.00    +0.000 C 
BRANCH   2   8
ATOM      3  N   UNL     1     -13.085   9.648 128.489  0.00  0.00    +0.000 N 
ATOM      4  C   UNL     1     -12.291   8.732 129.112  0.00  0.00    +0.000 A 
ATOM      5  N   UNL     1     -12.805   8.130 130.136  0.00  0.00    +0.000 NA
ATOM      6  C   UNL     1     -12.066   7.211 130.815  0.00  0.00    +0.000 A 
ATOM      7  O   UNL     1     -12.598   6.647 131.783  0.00  0.00    +0.000 OA
ATOM      8  N   UNL     1     -10.781   6.878 130.363  0.00  0.00    +0.000 N 
ATOM      9  C   UNL     1     -10.187   7.636 129.375  0.00  0.00    +0.000 A 
ATOM     10  C   UNL     1     -10.906   8.502 128.661  0.00  0.00    +0.000 A 
ATOM     11  H   UNL     1     -13.901   9.915 129.036  0.00  0.00    +0.000 HD
ATOM     12  H   UNL     1     -12.652  10.405 127.979  0.00  0.00    +0.000 HD
ENDBRANCH   2   8
ENDBRANCH   1   2
BRANCH   1  13
ATOM     13  C   UNL     1      -9.321   4.238 132.833  0.00  0.00    +0.000 C 
BRANCH  13  14
ATOM     14  O   UNL     1      -9.769   4.010 134.149  0.00  0.00    +0.000 OA
ATOM     15  H   UNL     1      -8.971   3.811 134.685  0.00  0.00    +0.000 HD
ENDBRANCH  13  14
ENDBRANCH   1  13
BRANCH   1  16
ATOM     16  O   UNL     1      -8.199   6.284 132.199  0.00  0.00    +0.000 OA
BRANCH  16  17
ATOM     17  C   UNL     1      -7.199   5.314 131.854  0.00  0.00    +0.000 C 
BRANCH  17  18
ATOM     18  P   UNL     1      -5.994   6.018 130.670  0.00  0.00    +0.000 P 
ATOM     19  O   UNL     1      -4.974   6.614 129.668  0.00  0.00    +0.000 OA
BRANCH  18  20
ATOM     20  O   UNL     1      -6.799   5.195 129.483  0.00  0.00    +0.000 OA
ATOM     21  H   UNL     1      -7.758   5.060 129.580  0.00  0.00    +0.000 HD
ENDBRANCH  18  20
BRANCH  18  22
ATOM     22  O   UNL     1      -6.886   7.409 130.723  0.00  0.00    +0.000 OA
ATOM     23  H   UNL     1      -7.856   7.329 130.709  0.00  0.00    +0.000 HD
ENDBRANCH  18  22
ENDBRANCH  17  18
ENDBRANCH  16  17
ENDBRANCH   1  16
TORSDOF 9
ENDMDL
