MODEL 1
REMARK VINA RESULT:      -6.3      0.000      0.000
REMARK  Name = Cilastatin
REMARK  16 active torsions:
REMARK  status: ('A' for Active; 'I' for Inactive)
REMARK    1  A    between atoms: C_1  and  C_2
REMARK    2  A    between atoms: C_2  and  C_3
REMARK    3  A    between atoms: C_5  and  C_6
REMARK    4  A    between atoms: N_8  and  C_9
REMARK    5  A    between atoms: C_9  and  C_22
REMARK    6  A    between atoms: C_10  and  C_11
REMARK    7  A    between atoms: C_11  and  C_12
REMARK    8  A    between atoms: C_12  and  C_13
REMARK    9  A    between atoms: C_13  and  C_14
REMARK   10  A    between atoms: C_14  and  S_15
REMARK   11  A    between atoms: S_15  and  C_16
REMARK   12  A    between atoms: C_16  and  C_17
REMARK   13  A    between atoms: C_17  and  N_18
REMARK   14  A    between atoms: C_17  and  C_19
REMARK   15  A    between atoms: C_19  and  O_20
REMARK   16  A    between atoms: C_22  and  O_23
REMARK                            x       y       z     vdW  Elec       q    Type
REMARK                         _______ _______ _______ _____ _____    ______ ____
ROOT
ATOM      1  C   UNK A   1      -9.638   4.981 131.191  0.00  0.00    +0.000 C 
ATOM      2  C   UNK A   1      -8.834   3.946 130.840  0.00  0.00    +0.000 C 
ENDROOT
BRANCH   1   5
ATOM      3  C   UNK A   0     -10.344   6.897 129.672  0.00  0.00    +0.000 C 
ATOM      4  O   UNK A   0      -9.397   7.662 129.715  0.00  0.00    +0.000 OA
ATOM      5  N   UNK A   1     -10.532   5.669 130.326  0.00  0.00    +0.000 N 
ATOM      6  H   UNK A   1     -11.425   5.240 130.146  0.00  0.00    +0.000 HD
BRANCH   3  11
ATOM      7  C   UNK A   0     -13.225   9.148 128.501  0.00  0.00    +0.000 C 
ATOM      8  C   UNK A   0     -12.638   8.042 129.312  0.00  0.00    +0.000 C 
ATOM      9  C   UNK A   0     -12.755   8.214 130.817  0.00  0.00    +0.000 C 
ATOM     10  C   UNK A   0     -12.718   6.649 128.746  0.00  0.00    +0.000 C 
ATOM     11  C   UNK A   0     -11.371   7.411 128.743  0.00  0.00    +0.000 C 
ENDBRANCH   3  11
ENDBRANCH   1   5
BRANCH   1  12
ATOM     12  C   UNK A   1      -9.466   5.324 132.670  0.00  0.00    +0.000 C 
ATOM     13  O   UNK A   1      -8.755   4.680 133.434  0.00  0.00    +0.000 OA
BRANCH  12  14
ATOM     14  O   UNK A   1     -10.138   6.395 133.135  0.00  0.00    +0.000 OA
ATOM     15  H   UNK A   1     -11.101   6.401 133.091  0.00  0.00    +0.000 HD
ENDBRANCH  12  14
ENDBRANCH   1  12
BRANCH   2  16
ATOM     16  C   UNK A   1      -8.775   3.375 129.476  0.00  0.00    +0.000 C 
BRANCH  16  17
ATOM     17  C   UNK A   1      -8.655   1.917 129.144  0.00  0.00    +0.000 C 
BRANCH  17  18
ATOM     18  C   UNK A   1      -7.746   1.779 127.896  0.00  0.00    +0.000 C 
BRANCH  18  19
ATOM     19  C   UNK A   1      -8.605   1.457 126.682  0.00  0.00    +0.000 C 
BRANCH  19  20
ATOM     20  S   UNK A   1      -7.671   1.697 125.128  0.00  0.00    +0.000 S 
BRANCH  20  21
ATOM     21  C   UNK A   1      -8.263   3.377 124.667  0.00  0.00    +0.000 C 
BRANCH  21  22
ATOM     22  C   UNK A   1      -7.885   4.508 125.656  0.00  0.00    +0.000 C 
BRANCH  22  23
ATOM     23  N   UNK A   1      -8.865   5.612 125.711  0.00  0.00    +0.000 NA
ATOM     24  H   UNK A   1      -9.700   5.381 126.237  0.00  0.00    +0.000 HD
ATOM     25  H   UNK A   1      -9.032   6.049 124.811  0.00  0.00    +0.000 HD
ENDBRANCH  22  23
BRANCH  22  26
ATOM     26  C   UNK A   1      -6.488   5.027 125.256  0.00  0.00    +0.000 C 
ATOM     27  O   UNK A   1      -5.692   5.511 126.048  0.00  0.00    +0.000 OA
BRANCH  26  28
ATOM     28  O   UNK A   1      -6.179   4.895 123.941  0.00  0.00    +0.000 OA
ATOM     29  H   UNK A   1      -6.873   5.250 123.355  0.00  0.00    +0.000 HD
ENDBRANCH  26  28
ENDBRANCH  22  26
ENDBRANCH  21  22
ENDBRANCH  20  21
ENDBRANCH  19  20
ENDBRANCH  18  19
ENDBRANCH  17  18
ENDBRANCH  16  17
ENDBRANCH   2  16
TORSDOF 14
ENDMDL
MODEL 2
REMARK VINA RESULT:      -6.2      3.754      4.788
REMARK  Name = Cilastatin
REMARK  16 active torsions:
REMARK  status: ('A' for Active; 'I' for Inactive)
REMARK    1  A    between atoms: C_1  and  C_2
REMARK    2  A    between atoms: C_2  and  C_3
REMARK    3  A    between atoms: C_5  and  C_6
REMARK    4  A    between atoms: N_8  and  C_9
REMARK    5  A    between atoms: C_9  and  C_22
REMARK    6  A    between atoms: C_10  and  C_11
REMARK    7  A    between atoms: C_11  and  C_12
REMARK    8  A    between atoms: C_12  and  C_13
REMARK    9  A    between atoms: C_13  and  C_14
REMARK   10  A    between atoms: C_14  and  S_15
REMARK   11  A    between atoms: S_15  and  C_16
REMARK   12  A    between atoms: C_16  and  C_17
REMARK   13  A    between atoms: C_17  and  N_18
REMARK   14  A    between atoms: C_17  and  C_19
REMARK   15  A    between atoms: C_19  and  O_20
REMARK   16  A    between atoms: C_22  and  O_23
REMARK                            x       y       z     vdW  Elec       q    Type
REMARK                         _______ _______ _______ _____ _____    ______ ____
ROOT
ATOM      1  C   UNK A   1      -9.912   5.001 130.929  0.00  0.00    +0.000 C 
ATOM      2  C   UNK A   1      -8.909   4.895 131.836  0.00  0.00    +0.000 C 
ENDROOT
BRANCH   1   5
ATOM      3  C   UNK A   0     -11.589   6.885 130.583  0.00  0.00    +0.000 C 
ATOM      4  O   UNK A   0     -12.517   6.580 131.311  0.00  0.00    +0.000 OA
ATOM      5  N   UNK A   1     -10.380   6.211 130.346  0.00  0.00    +0.000 N 
ATOM      6  H   UNK A   1      -9.785   6.660 129.670  0.00  0.00    +0.000 HD
BRANCH   3  11
ATOM      7  C   UNK A   0     -13.562   9.443 128.510  0.00  0.00    +0.000 C 
ATOM      8  C   UNK A   0     -12.728   8.218 128.679  0.00  0.00    +0.000 C 
ATOM      9  C   UNK A   0     -13.374   6.928 128.201  0.00  0.00    +0.000 C 
ATOM     10  C   UNK A   0     -11.237   8.368 128.526  0.00  0.00    +0.000 C 
ATOM     11  C   UNK A   0     -11.858   8.183 129.931  0.00  0.00    +0.000 C 
ENDBRANCH   3  11
ENDBRANCH   1   5
BRANCH   1  12
ATOM     12  C   UNK A   1     -10.492   3.627 130.596  0.00  0.00    +0.000 C 
ATOM     13  O   UNK A   1      -9.843   2.588 130.654  0.00  0.00    +0.000 OA
BRANCH  12  14
ATOM     14  O   UNK A   1     -11.785   3.579 130.223  0.00  0.00    +0.000 OA
ATOM     15  H   UNK A   1     -12.183   4.351 129.804  0.00  0.00    +0.000 HD
ENDBRANCH  12  14
ENDBRANCH   1  12
BRANCH   2  16
ATOM     16  C   UNK A   1      -8.142   6.048 132.356  0.00  0.00    +0.000 C 
BRANCH  16  17
ATOM     17  C   UNK A   1      -6.706   6.352 132.051  0.00  0.00    +0.000 C 
BRANCH  17  18
ATOM     18  C   UNK A   1      -5.846   5.868 133.247  0.00  0.00    +0.000 C 
BRANCH  18  19
ATOM     19  C   UNK A   1      -4.383   6.183 132.972  0.00  0.00    +0.000 C 
BRANCH  19  20
ATOM     20  S   UNK A   1      -3.873   5.575 131.325  0.00  0.00    +0.000 S 
BRANCH  20  21
ATOM     21  C   UNK A   1      -2.858   7.005 130.767  0.00  0.00    +0.000 C 
BRANCH  21  22
ATOM     22  C   UNK A   1      -3.422   7.787 129.554  0.00  0.00    +0.000 C 
BRANCH  22  23
ATOM     23  N   UNK A   1      -4.815   8.243 129.727  0.00  0.00    +0.000 NA
ATOM     24  H   UNK A   1      -4.932   8.895 130.495  0.00  0.00    +0.000 HD
ATOM     25  H   UNK A   1      -5.493   7.489 129.697  0.00  0.00    +0.000 HD
ENDBRANCH  22  23
BRANCH  22  26
ATOM     26  C   UNK A   1      -3.286   6.879 128.314  0.00  0.00    +0.000 C 
ATOM     27  O   UNK A   1      -4.234   6.516 127.632  0.00  0.00    +0.000 OA
BRANCH  26  28
ATOM     28  O   UNK A   1      -2.017   6.513 128.004  0.00  0.00    +0.000 OA
ATOM     29  H   UNK A   1      -1.871   5.553 128.091  0.00  0.00    +0.000 HD
ENDBRANCH  26  28
ENDBRANCH  22  26
ENDBRANCH  21  22
ENDBRANCH  20  21
ENDBRANCH  19  20
ENDBRANCH  18  19
ENDBRANCH  17  18
ENDBRANCH  16  17
ENDBRANCH   2  16
TORSDOF 14
ENDMDL
MODEL 3
REMARK VINA RESULT:      -6.2      2.630      3.286
REMARK  Name = Cilastatin
REMARK  16 active torsions:
REMARK  status: ('A' for Active; 'I' for Inactive)
REMARK    1  A    between atoms: C_1  and  C_2
REMARK    2  A    between atoms: C_2  and  C_3
REMARK    3  A    between atoms: C_5  and  C_6
REMARK    4  A    between atoms: N_8  and  C_9
REMARK    5  A    between atoms: C_9  and  C_22
REMARK    6  A    between atoms: C_10  and  C_11
REMARK    7  A    between atoms: C_11  and  C_12
REMARK    8  A    between atoms: C_12  and  C_13
REMARK    9  A    between atoms: C_13  and  C_14
REMARK   10  A    between atoms: C_14  and  S_15
REMARK   11  A    between atoms: S_15  and  C_16
REMARK   12  A    between atoms: C_16  and  C_17
REMARK   13  A    between atoms: C_17  and  N_18
REMARK   14  A    between atoms: C_17  and  C_19
REMARK   15  A    between atoms: C_19  and  O_20
REMARK   16  A    between atoms: C_22  and  O_23
REMARK                            x       y       z     vdW  Elec       q    Type
REMARK                         _______ _______ _______ _____ _____    ______ ____
ROOT
ATOM      1  C   UNK A   1      -8.736   5.124 130.549  0.00  0.00    +0.000 C 
ATOM      2  C   UNK A   1      -7.558   5.180 131.220  0.00  0.00    +0.000 C 
ENDROOT
BRANCH   1   5
ATOM      3  C   UNK A   0     -10.524   6.914 130.276  0.00  0.00    +0.000 C 
ATOM      4  O   UNK A   0     -11.257   6.736 131.231  0.00  0.00    +0.000 OA
ATOM      5  N   UNK A   1      -9.369   6.214 129.892  0.00  0.00    +0.000 N 
ATOM      6  H   UNK A   1      -8.955   6.543 129.035  0.00  0.00    +0.000 HD
BRANCH   3  11
ATOM      7  C   UNK A   0     -13.055   9.188 128.498  0.00  0.00    +0.000 C 
ATOM      8  C   UNK A   0     -12.235   7.950 128.632  0.00  0.00    +0.000 C 
ATOM      9  C   UNK A   0     -13.028   6.655 128.687  0.00  0.00    +0.000 C 
ATOM     10  C   UNK A   0     -10.890   7.933 127.956  0.00  0.00    +0.000 C 
ATOM     11  C   UNK A   0     -10.983   8.081 129.493  0.00  0.00    +0.000 C 
ENDBRANCH   3  11
ENDBRANCH   1   5
BRANCH   1  12
ATOM     12  C   UNK A   1      -9.313   3.710 130.581  0.00  0.00    +0.000 C 
ATOM     13  O   UNK A   1      -9.353   3.020 131.594  0.00  0.00    +0.000 OA
BRANCH  12  14
ATOM     14  O   UNK A   1      -9.798   3.217 129.426  0.00  0.00    +0.000 OA
ATOM     15  H   UNK A   1     -10.654   3.523 129.107  0.00  0.00    +0.000 HD
ENDBRANCH  12  14
ENDBRANCH   1  12
BRANCH   2  16
ATOM     16  C   UNK A   1      -6.748   6.410 131.364  0.00  0.00    +0.000 C 
BRANCH  16  17
ATOM     17  C   UNK A   1      -5.470   6.705 130.636  0.00  0.00    +0.000 C 
BRANCH  17  18
ATOM     18  C   UNK A   1      -5.199   5.543 129.647  0.00  0.00    +0.000 C 
BRANCH  18  19
ATOM     19  C   UNK A   1      -4.087   5.947 128.690  0.00  0.00    +0.000 C 
BRANCH  19  20
ATOM     20  S   UNK A   1      -4.141   4.954 127.155  0.00  0.00    +0.000 S 
BRANCH  20  21
ATOM     21  C   UNK A   1      -5.901   4.419 127.194  0.00  0.00    +0.000 C 
BRANCH  21  22
ATOM     22  C   UNK A   1      -6.662   4.541 125.850  0.00  0.00    +0.000 C 
BRANCH  22  23
ATOM     23  N   UNK A   1      -6.288   5.725 125.051  0.00  0.00    +0.000 NA
ATOM     24  H   UNK A   1      -6.563   6.602 125.479  0.00  0.00    +0.000 HD
ATOM     25  H   UNK A   1      -6.520   5.638 124.067  0.00  0.00    +0.000 HD
ENDBRANCH  22  23
BRANCH  22  26
ATOM     26  C   UNK A   1      -8.172   4.544 126.170  0.00  0.00    +0.000 C 
ATOM     27  O   UNK A   1      -8.647   5.012 127.195  0.00  0.00    +0.000 OA
BRANCH  26  28
ATOM     28  O   UNK A   1      -8.965   3.998 125.214  0.00  0.00    +0.000 OA
ATOM     29  H   UNK A   1      -9.318   4.663 124.594  0.00  0.00    +0.000 HD
ENDBRANCH  26  28
ENDBRANCH  22  26
ENDBRANCH  21  22
ENDBRANCH  20  21
ENDBRANCH  19  20
ENDBRANCH  18  19
ENDBRANCH  17  18
ENDBRANCH  16  17
ENDBRANCH   2  16
TORSDOF 14
ENDMDL
MODEL 4
REMARK VINA RESULT:      -6.1      3.521      4.182
REMARK  Name = Cilastatin
REMARK  16 active torsions:
REMARK  status: ('A' for Active; 'I' for Inactive)
REMARK    1  A    between atoms: C_1  and  C_2
REMARK    2  A    between atoms: C_2  and  C_3
REMARK    3  A    between atoms: C_5  and  C_6
REMARK    4  A    between atoms: N_8  and  C_9
REMARK    5  A    between atoms: C_9  and  C_22
REMARK    6  A    between atoms: C_10  and  C_11
REMARK    7  A    between atoms: C_11  and  C_12
REMARK    8  A    between atoms: C_12  and  C_13
REMARK    9  A    between atoms: C_13  and  C_14
REMARK   10  A    between atoms: C_14  and  S_15
REMARK   11  A    between atoms: S_15  and  C_16
REMARK   12  A    between atoms: C_16  and  C_17
REMARK   13  A    between atoms: C_17  and  N_18
REMARK   14  A    between atoms: C_17  and  C_19
REMARK   15  A    between atoms: C_19  and  O_20
REMARK   16  A    between atoms: C_22  and  O_23
REMARK                            x       y       z     vdW  Elec       q    Type
REMARK                         _______ _______ _______ _____ _____    ______ ____
ROOT
ATOM      1  C   UNK A   1      -8.766   6.029 131.520  0.00  0.00    +0.000 C 
ATOM      2  C   UNK A   1      -7.416   6.028 131.660  0.00  0.00    +0.000 C 
ENDROOT
BRANCH   1   5
ATOM      3  C   UNK A   0     -10.154   6.869 129.558  0.00  0.00    +0.000 C 
ATOM      4  O   UNK A   0     -10.170   5.923 128.792  0.00  0.00    +0.000 OA
ATOM      5  N   UNK A   1      -9.526   6.997 130.808  0.00  0.00    +0.000 N 
ATOM      6  H   UNK A   1      -9.641   7.902 131.234  0.00  0.00    +0.000 HD
BRANCH   3  11
ATOM      7  C   UNK A   0     -12.845   9.607 129.604  0.00  0.00    +0.000 C 
ATOM      8  C   UNK A   0     -12.380   8.190 129.564  0.00  0.00    +0.000 C 
ATOM      9  C   UNK A   0     -12.858   7.323 130.716  0.00  0.00    +0.000 C 
ATOM     10  C   UNK A   0     -12.220   7.552 128.210  0.00  0.00    +0.000 C 
ATOM     11  C   UNK A   0     -10.972   7.976 129.019  0.00  0.00    +0.000 C 
ENDBRANCH   3  11
ENDBRANCH   1   5
BRANCH   1  12
ATOM     12  C   UNK A   1      -9.387   4.829 132.233  0.00  0.00    +0.000 C 
ATOM     13  O   UNK A   1      -9.210   3.668 131.881  0.00  0.00    +0.000 OA
BRANCH  12  14
ATOM     14  O   UNK A   1     -10.164   5.086 133.304  0.00  0.00    +0.000 OA
ATOM     15  H   UNK A   1      -9.996   4.618 134.129  0.00  0.00    +0.000 HD
ENDBRANCH  12  14
ENDBRANCH   1  12
BRANCH   2  16
ATOM     16  C   UNK A   1      -6.526   7.056 131.077  0.00  0.00    +0.000 C 
BRANCH  16  17
ATOM     17  C   UNK A   1      -5.028   7.057 131.147  0.00  0.00    +0.000 C 
BRANCH  17  18
ATOM     18  C   UNK A   1      -4.496   8.057 130.089  0.00  0.00    +0.000 C 
BRANCH  18  19
ATOM     19  C   UNK A   1      -3.438   7.372 129.238  0.00  0.00    +0.000 C 
BRANCH  19  20
ATOM     20  S   UNK A   1      -2.811   5.858 130.052  0.00  0.00    +0.000 S 
BRANCH  20  21
ATOM     21  C   UNK A   1      -3.586   4.584 128.974  0.00  0.00    +0.000 C 
BRANCH  21  22
ATOM     22  C   UNK A   1      -3.559   4.892 127.456  0.00  0.00    +0.000 C 
BRANCH  22  23
ATOM     23  N   UNK A   1      -4.880   5.222 126.885  0.00  0.00    +0.000 NA
ATOM     24  H   UNK A   1      -5.113   6.207 126.952  0.00  0.00    +0.000 HD
ATOM     25  H   UNK A   1      -5.616   4.587 127.176  0.00  0.00    +0.000 HD
ENDBRANCH  22  23
BRANCH  22  26
ATOM     26  C   UNK A   1      -2.938   3.671 126.745  0.00  0.00    +0.000 C 
ATOM     27  O   UNK A   1      -3.596   2.755 126.272  0.00  0.00    +0.000 OA
BRANCH  26  28
ATOM     28  O   UNK A   1      -1.585   3.683 126.658  0.00  0.00    +0.000 OA
ATOM     29  H   UNK A   1      -1.263   4.171 125.877  0.00  0.00    +0.000 HD
ENDBRANCH  26  28
ENDBRANCH  22  26
ENDBRANCH  21  22
ENDBRANCH  20  21
ENDBRANCH  19  20
ENDBRANCH  18  19
ENDBRANCH  17  18
ENDBRANCH  16  17
ENDBRANCH   2  16
TORSDOF 14
ENDMDL
MODEL 5
REMARK VINA RESULT:      -6.1      4.940      8.310
REMARK  Name = Cilastatin
REMARK  16 active torsions:
REMARK  status: ('A' for Active; 'I' for Inactive)
REMARK    1  A    between atoms: C_1  and  C_2
REMARK    2  A    between atoms: C_2  and  C_3
REMARK    3  A    between atoms: C_5  and  C_6
REMARK    4  A    between atoms: N_8  and  C_9
REMARK    5  A    between atoms: C_9  and  C_22
REMARK    6  A    between atoms: C_10  and  C_11
REMARK    7  A    between atoms: C_11  and  C_12
REMARK    8  A    between atoms: C_12  and  C_13
REMARK    9  A    between atoms: C_13  and  C_14
REMARK   10  A    between atoms: C_14  and  S_15
REMARK   11  A    between atoms: S_15  and  C_16
REMARK   12  A    between atoms: C_16  and  C_17
REMARK   13  A    between atoms: C_17  and  N_18
REMARK   14  A    between atoms: C_17  and  C_19
REMARK   15  A    between atoms: C_19  and  O_20
REMARK   16  A    between atoms: C_22  and  O_23
REMARK                            x       y       z     vdW  Elec       q    Type
REMARK                         _______ _______ _______ _____ _____    ______ ____
ROOT
ATOM      1  C   UNK A   1      -8.953   0.673 125.167  0.00  0.00    +0.000 C 
ATOM      2  C   UNK A   1      -9.004   0.929 126.498  0.00  0.00    +0.000 C 
ENDROOT
BRANCH   1   5
ATOM      3  C   UNK A   0      -8.348  -1.649 124.318  0.00  0.00    +0.000 C 
ATOM      4  O   UNK A   0      -9.307  -2.330 124.637  0.00  0.00    +0.000 OA
ATOM      5  N   UNK A   1      -8.110  -0.283 124.537  0.00  0.00    +0.000 N 
ATOM      6  H   UNK A   1      -7.218   0.038 124.197  0.00  0.00    +0.000 HD
BRANCH   3  11
ATOM      7  C   UNK A   0      -5.101  -3.614 123.744  0.00  0.00    +0.000 C 
ATOM      8  C   UNK A   0      -5.892  -2.362 123.919  0.00  0.00    +0.000 C 
ATOM      9  C   UNK A   0      -5.481  -1.499 125.101  0.00  0.00    +0.000 C 
ATOM     10  C   UNK A   0      -6.386  -1.675 122.674  0.00  0.00    +0.000 C 
ATOM     11  C   UNK A   0      -7.372  -2.465 123.566  0.00  0.00    +0.000 C 
ENDBRANCH   3  11
ENDBRANCH   1   5
BRANCH   1  12
ATOM     12  C   UNK A   1      -9.942   1.555 124.406  0.00  0.00    +0.000 C 
ATOM     13  O   UNK A   1     -10.967   1.128 123.886  0.00  0.00    +0.000 OA
BRANCH  12  14
ATOM     14  O   UNK A   1      -9.651   2.867 124.316  0.00  0.00    +0.000 OA
ATOM     15  H   UNK A   1      -8.977   3.240 124.894  0.00  0.00    +0.000 HD
ENDBRANCH  12  14
ENDBRANCH   1  12
BRANCH   2  16
ATOM     16  C   UNK A   1      -8.172   0.233 127.504  0.00  0.00    +0.000 C 
BRANCH  16  17
ATOM     17  C   UNK A   1      -7.335   0.898 128.557  0.00  0.00    +0.000 C 
BRANCH  17  18
ATOM     18  C   UNK A   1      -8.064   2.190 129.007  0.00  0.00    +0.000 C 
BRANCH  18  19
ATOM     19  C   UNK A   1      -7.120   3.374 128.862  0.00  0.00    +0.000 C 
BRANCH  19  20
ATOM     20  S   UNK A   1      -5.458   2.835 128.322  0.00  0.00    +0.000 S 
BRANCH  20  21
ATOM     21  C   UNK A   1      -5.350   3.726 126.716  0.00  0.00    +0.000 C 
BRANCH  21  22
ATOM     22  C   UNK A   1      -6.589   3.589 125.795  0.00  0.00    +0.000 C 
BRANCH  22  23
ATOM     23  N   UNK A   1      -6.376   2.714 124.626  0.00  0.00    +0.000 NA
ATOM     24  H   UNK A   1      -5.431   2.354 124.560  0.00  0.00    +0.000 HD
ATOM     25  H   UNK A   1      -6.751   3.095 123.763  0.00  0.00    +0.000 HD
ENDBRANCH  22  23
BRANCH  22  26
ATOM     26  C   UNK A   1      -7.000   5.010 125.356  0.00  0.00    +0.000 C 
ATOM     27  O   UNK A   1      -6.200   5.889 125.068  0.00  0.00    +0.000 OA
BRANCH  26  28
ATOM     28  O   UNK A   1      -8.337   5.228 125.289  0.00  0.00    +0.000 OA
ATOM     29  H   UNK A   1      -8.666   5.776 126.026  0.00  0.00    +0.000 HD
ENDBRANCH  26  28
ENDBRANCH  22  26
ENDBRANCH  21  22
ENDBRANCH  20  21
ENDBRANCH  19  20
ENDBRANCH  18  19
ENDBRANCH  17  18
ENDBRANCH  16  17
ENDBRANCH   2  16
TORSDOF 14
ENDMDL
MODEL 6
REMARK VINA RESULT:      -6.1      5.783      8.612
REMARK  Name = Cilastatin
REMARK  16 active torsions:
REMARK  status: ('A' for Active; 'I' for Inactive)
REMARK    1  A    between atoms: C_1  and  C_2
REMARK    2  A    between atoms: C_2  and  C_3
REMARK    3  A    between atoms: C_5  and  C_6
REMARK    4  A    between atoms: N_8  and  C_9
REMARK    5  A    between atoms: C_9  and  C_22
REMARK    6  A    between atoms: C_10  and  C_11
REMARK    7  A    between atoms: C_11  and  C_12
REMARK    8  A    between atoms: C_12  and  C_13
REMARK    9  A    between atoms: C_13  and  C_14
REMARK   10  A    between atoms: C_14  and  S_15
REMARK   11  A    between atoms: S_15  and  C_16
REMARK   12  A    between atoms: C_16  and  C_17
REMARK   13  A    between atoms: C_17  and  N_18
REMARK   14  A    between atoms: C_17  and  C_19
REMARK   15  A    between atoms: C_19  and  O_20
REMARK   16  A    between atoms: C_22  and  O_23
REMARK                            x       y       z     vdW  Elec       q    Type
REMARK                         _______ _______ _______ _____ _____    ______ ____
ROOT
ATOM      1  C   UNK A   1      -9.328   0.565 124.289  0.00  0.00    +0.000 C 
ATOM      2  C   UNK A   1      -9.387   1.206 125.484  0.00  0.00    +0.000 C 
ENDROOT
BRANCH   1   5
ATOM      3  C   UNK A   0      -8.366  -1.786 124.127  0.00  0.00    +0.000 C 
ATOM      4  O   UNK A   0      -9.190  -2.473 124.704  0.00  0.00    +0.000 OA
ATOM      5  N   UNK A   1      -8.353  -0.398 123.911  0.00  0.00    +0.000 N 
ATOM      6  H   UNK A   1      -7.536  -0.066 123.427  0.00  0.00    +0.000 HD
BRANCH   3  11
ATOM      7  C   UNK A   0      -4.988  -3.609 124.110  0.00  0.00    +0.000 C 
ATOM      8  C   UNK A   0      -5.851  -2.395 124.041  0.00  0.00    +0.000 C 
ATOM      9  C   UNK A   0      -5.593  -1.358 125.121  0.00  0.00    +0.000 C 
ATOM     10  C   UNK A   0      -6.262  -1.914 122.674  0.00  0.00    +0.000 C 
ATOM     11  C   UNK A   0      -7.286  -2.635 123.582  0.00  0.00    +0.000 C 
ENDBRANCH   3  11
ENDBRANCH   1   5
BRANCH   1  12
ATOM     12  C   UNK A   1     -10.469   1.011 123.376  0.00  0.00    +0.000 C 
ATOM     13  O   UNK A   1     -10.396   1.005 122.152  0.00  0.00    +0.000 OA
BRANCH  12  14
ATOM     14  O   UNK A   1     -11.604   1.427 123.970  0.00  0.00    +0.000 OA
ATOM     15  H   UNK A   1     -12.453   1.194 123.577  0.00  0.00    +0.000 HD
ENDBRANCH  12  14
ENDBRANCH   1  12
BRANCH   2  16
ATOM     16  C   UNK A   1      -8.425   0.986 126.586  0.00  0.00    +0.000 C 
BRANCH  16  17
ATOM     17  C   UNK A   1      -8.595   1.454 128.001  0.00  0.00    +0.000 C 
BRANCH  17  18
ATOM     18  C   UNK A   1      -7.267   2.112 128.454  0.00  0.00    +0.000 C 
BRANCH  18  19
ATOM     19  C   UNK A   1      -6.226   1.949 127.357  0.00  0.00    +0.000 C 
BRANCH  19  20
ATOM     20  S   UNK A   1      -5.760   3.565 126.639  0.00  0.00    +0.000 S 
BRANCH  20  21
ATOM     21  C   UNK A   1      -5.749   3.120 124.854  0.00  0.00    +0.000 C 
BRANCH  21  22
ATOM     22  C   UNK A   1      -6.700   3.952 123.957  0.00  0.00    +0.000 C 
BRANCH  22  23
ATOM     23  N   UNK A   1      -7.976   4.315 124.605  0.00  0.00    +0.000 NA
ATOM     24  H   UNK A   1      -8.092   5.315 124.731  0.00  0.00    +0.000 HD
ATOM     25  H   UNK A   1      -8.188   3.752 125.422  0.00  0.00    +0.000 HD
ENDBRANCH  22  23
BRANCH  22  26
ATOM     26  C   UNK A   1      -6.945   3.144 122.665  0.00  0.00    +0.000 C 
ATOM     27  O   UNK A   1      -6.804   1.931 122.588  0.00  0.00    +0.000 OA
BRANCH  26  28
ATOM     28  O   UNK A   1      -7.356   3.873 121.598  0.00  0.00    +0.000 OA
ATOM     29  H   UNK A   1      -6.622   4.111 121.001  0.00  0.00    +0.000 HD
ENDBRANCH  26  28
ENDBRANCH  22  26
ENDBRANCH  21  22
ENDBRANCH  20  21
ENDBRANCH  19  20
ENDBRANCH  18  19
ENDBRANCH  17  18
ENDBRANCH  16  17
ENDBRANCH   2  16
TORSDOF 14
ENDMDL
MODEL 7
REMARK VINA RESULT:      -6.1      2.158      2.712
REMARK  Name = Cilastatin
REMARK  16 active torsions:
REMARK  status: ('A' for Active; 'I' for Inactive)
REMARK    1  A    between atoms: C_1  and  C_2
REMARK    2  A    between atoms: C_2  and  C_3
REMARK    3  A    between atoms: C_5  and  C_6
REMARK    4  A    between atoms: N_8  and  C_9
REMARK    5  A    between atoms: C_9  and  C_22
REMARK    6  A    between atoms: C_10  and  C_11
REMARK    7  A    between atoms: C_11  and  C_12
REMARK    8  A    between atoms: C_12  and  C_13
REMARK    9  A    between atoms: C_13  and  C_14
REMARK   10  A    between atoms: C_14  and  S_15
REMARK   11  A    between atoms: S_15  and  C_16
REMARK   12  A    between atoms: C_16  and  C_17
REMARK   13  A    between atoms: C_17  and  N_18
REMARK   14  A    between atoms: C_17  and  C_19
REMARK   15  A    between atoms: C_19  and  O_20
REMARK   16  A    between atoms: C_22  and  O_23
REMARK                            x       y       z     vdW  Elec       q    Type
REMARK                         _______ _______ _______ _____ _____    ______ ____
ROOT
ATOM      1  C   UNK A   1      -9.563   4.714 130.605  0.00  0.00    +0.000 C 
ATOM      2  C   UNK A   1      -8.274   4.326 130.777  0.00  0.00    +0.000 C 
ENDROOT
BRANCH   1   5
ATOM      3  C   UNK A   0     -10.055   6.637 129.012  0.00  0.00    +0.000 C 
ATOM      4  O   UNK A   0      -9.725   6.200 127.924  0.00  0.00    +0.000 OA
ATOM      5  N   UNK A   1      -9.997   6.027 130.275  0.00  0.00    +0.000 N 
ATOM      6  H   UNK A   1     -10.306   6.617 131.030  0.00  0.00    +0.000 HD
BRANCH   3  11
ATOM      7  C   UNK A   0     -12.731   9.382 129.213  0.00  0.00    +0.000 C 
ATOM      8  C   UNK A   0     -12.116   8.157 128.627  0.00  0.00    +0.000 C 
ATOM      9  C   UNK A   0     -12.996   6.918 128.651  0.00  0.00    +0.000 C 
ATOM     10  C   UNK A   0     -11.176   8.341 127.464  0.00  0.00    +0.000 C 
ATOM     11  C   UNK A   0     -10.618   7.995 128.865  0.00  0.00    +0.000 C 
ENDBRANCH   3  11
ENDBRANCH   1   5
BRANCH   1  12
ATOM     12  C   UNK A   1     -10.517   3.538 130.810  0.00  0.00    +0.000 C 
ATOM     13  O   UNK A   1     -11.523   3.360 130.133  0.00  0.00    +0.000 OA
BRANCH  12  14
ATOM     14  O   UNK A   1     -10.214   2.665 131.789  0.00  0.00    +0.000 OA
ATOM     15  H   UNK A   1      -9.605   2.932 132.487  0.00  0.00    +0.000 HD
ENDBRANCH  12  14
ENDBRANCH   1  12
BRANCH   2  16
ATOM     16  C   UNK A   1      -7.114   5.234 130.640  0.00  0.00    +0.000 C 
BRANCH  16  17
ATOM     17  C   UNK A   1      -5.943   5.025 129.726  0.00  0.00    +0.000 C 
BRANCH  17  18
ATOM     18  C   UNK A   1      -6.429   4.210 128.500  0.00  0.00    +0.000 C 
BRANCH  18  19
ATOM     19  C   UNK A   1      -5.331   4.187 127.447  0.00  0.00    +0.000 C 
BRANCH  19  20
ATOM     20  S   UNK A   1      -5.532   2.767 126.312  0.00  0.00    +0.000 S 
BRANCH  20  21
ATOM     21  C   UNK A   1      -7.352   2.836 126.048  0.00  0.00    +0.000 C 
BRANCH  21  22
ATOM     22  C   UNK A   1      -7.832   3.880 125.007  0.00  0.00    +0.000 C 
BRANCH  22  23
ATOM     23  N   UNK A   1      -8.654   4.965 125.578  0.00  0.00    +0.000 NA
ATOM     24  H   UNK A   1      -9.126   4.702 126.436  0.00  0.00    +0.000 HD
ATOM     25  H   UNK A   1      -9.239   5.432 124.893  0.00  0.00    +0.000 HD
ENDBRANCH  22  23
BRANCH  22  26
ATOM     26  C   UNK A   1      -8.605   3.118 123.910  0.00  0.00    +0.000 C 
ATOM     27  O   UNK A   1      -9.400   2.218 124.141  0.00  0.00    +0.000 OA
BRANCH  26  28
ATOM     28  O   UNK A   1      -8.358   3.529 122.641  0.00  0.00    +0.000 OA
ATOM     29  H   UNK A   1      -8.805   4.368 122.424  0.00  0.00    +0.000 HD
ENDBRANCH  26  28
ENDBRANCH  22  26
ENDBRANCH  21  22
ENDBRANCH  20  21
ENDBRANCH  19  20
ENDBRANCH  18  19
ENDBRANCH  17  18
ENDBRANCH  16  17
ENDBRANCH   2  16
TORSDOF 14
ENDMDL
MODEL 8
REMARK VINA RESULT:      -6.0      3.528      4.194
REMARK  Name = Cilastatin
REMARK  16 active torsions:
REMARK  status: ('A' for Active; 'I' for Inactive)
REMARK    1  A    between atoms: C_1  and  C_2
REMARK    2  A    between atoms: C_2  and  C_3
REMARK    3  A    between atoms: C_5  and  C_6
REMARK    4  A    between atoms: N_8  and  C_9
REMARK    5  A    between atoms: C_9  and  C_22
REMARK    6  A    between atoms: C_10  and  C_11
REMARK    7  A    between atoms: C_11  and  C_12
REMARK    8  A    between atoms: C_12  and  C_13
REMARK    9  A    between atoms: C_13  and  C_14
REMARK   10  A    between atoms: C_14  and  S_15
REMARK   11  A    between atoms: S_15  and  C_16
REMARK   12  A    between atoms: C_16  and  C_17
REMARK   13  A    between atoms: C_17  and  N_18
REMARK   14  A    between atoms: C_17  and  C_19
REMARK   15  A    between atoms: C_19  and  O_20
REMARK   16  A    between atoms: C_22  and  O_23
REMARK                            x       y       z     vdW  Elec       q    Type
REMARK                         _______ _______ _______ _____ _____    ______ ____
ROOT
ATOM      1  C   UNK A   1      -9.075   5.212 132.353  0.00  0.00    +0.000 C 
ATOM      2  C   UNK A   1      -7.826   5.713 132.186  0.00  0.00    +0.000 C 
ENDROOT
BRANCH   1   5
ATOM      3  C   UNK A   0     -10.851   5.362 130.535  0.00  0.00    +0.000 C 
ATOM      4  O   UNK A   0     -10.475   4.560 129.700  0.00  0.00    +0.000 OA
ATOM      5  N   UNK A   1     -10.261   5.723 131.757  0.00  0.00    +0.000 N 
ATOM      6  H   UNK A   1     -10.759   6.441 132.258  0.00  0.00    +0.000 HD
BRANCH   3  11
ATOM      7  C   UNK A   0     -13.219   7.524 128.424  0.00  0.00    +0.000 C 
ATOM      8  C   UNK A   0     -12.141   7.318 129.434  0.00  0.00    +0.000 C 
ATOM      9  C   UNK A   0     -10.810   7.968 129.098  0.00  0.00    +0.000 C 
ATOM     10  C   UNK A   0     -12.553   7.243 130.881  0.00  0.00    +0.000 C 
ATOM     11  C   UNK A   0     -12.140   5.958 130.125  0.00  0.00    +0.000 C 
ENDBRANCH   3  11
ENDBRANCH   1   5
BRANCH   1  12
ATOM     12  C   UNK A   1      -9.054   3.997 133.278  0.00  0.00    +0.000 C 
ATOM     13  O   UNK A   1      -8.140   3.180 133.299  0.00  0.00    +0.000 OA
BRANCH  12  14
ATOM     14  O   UNK A   1     -10.104   3.836 134.107  0.00  0.00    +0.000 OA
ATOM     15  H   UNK A   1     -10.408   2.946 134.314  0.00  0.00    +0.000 HD
ENDBRANCH  12  14
ENDBRANCH   1  12
BRANCH   2  16
ATOM     16  C   UNK A   1      -7.514   6.887 131.340  0.00  0.00    +0.000 C 
BRANCH  16  17
ATOM     17  C   UNK A   1      -6.186   7.181 130.709  0.00  0.00    +0.000 C 
BRANCH  17  18
ATOM     18  C   UNK A   1      -5.371   5.863 130.663  0.00  0.00    +0.000 C 
BRANCH  18  19
ATOM     19  C   UNK A   1      -4.386   5.922 129.505  0.00  0.00    +0.000 C 
BRANCH  19  20
ATOM     20  S   UNK A   1      -3.087   4.645 129.675  0.00  0.00    +0.000 S 
BRANCH  20  21
ATOM     21  C   UNK A   1      -2.566   4.498 127.916  0.00  0.00    +0.000 C 
BRANCH  21  22
ATOM     22  C   UNK A   1      -2.481   3.052 127.368  0.00  0.00    +0.000 C 
BRANCH  22  23
ATOM     23  N   UNK A   1      -1.249   2.768 126.605  0.00  0.00    +0.000 NA
ATOM     24  H   UNK A   1      -0.740   3.604 126.339  0.00  0.00    +0.000 HD
ATOM     25  H   UNK A   1      -1.382   2.092 125.860  0.00  0.00    +0.000 HD
ENDBRANCH  22  23
BRANCH  22  26
ATOM     26  C   UNK A   1      -3.736   2.809 126.503  0.00  0.00    +0.000 C 
ATOM     27  O   UNK A   1      -4.338   3.698 125.917  0.00  0.00    +0.000 OA
BRANCH  26  28
ATOM     28  O   UNK A   1      -4.132   1.515 126.414  0.00  0.00    +0.000 OA
ATOM     29  H   UNK A   1      -5.066   1.426 126.146  0.00  0.00    +0.000 HD
ENDBRANCH  26  28
ENDBRANCH  22  26
ENDBRANCH  21  22
ENDBRANCH  20  21
ENDBRANCH  19  20
ENDBRANCH  18  19
ENDBRANCH  17  18
ENDBRANCH  16  17
ENDBRANCH   2  16
TORSDOF 14
ENDMDL
MODEL 9
REMARK VINA RESULT:      -6.0      3.970      8.424
REMARK  Name = Cilastatin
REMARK  16 active torsions:
REMARK  status: ('A' for Active; 'I' for Inactive)
REMARK    1  A    between atoms: C_1  and  C_2
REMARK    2  A    between atoms: C_2  and  C_3
REMARK    3  A    between atoms: C_5  and  C_6
REMARK    4  A    between atoms: N_8  and  C_9
REMARK    5  A    between atoms: C_9  and  C_22
REMARK    6  A    between atoms: C_10  and  C_11
REMARK    7  A    between atoms: C_11  and  C_12
REMARK    8  A    between atoms: C_12  and  C_13
REMARK    9  A    between atoms: C_13  and  C_14
REMARK   10  A    between atoms: C_14  and  S_15
REMARK   11  A    between atoms: S_15  and  C_16
REMARK   12  A    between atoms: C_16  and  C_17
REMARK   13  A    between atoms: C_17  and  N_18
REMARK   14  A    between atoms: C_17  and  C_19
REMARK   15  A    between atoms: C_19  and  O_20
REMARK   16  A    between atoms: C_22  and  O_23
REMARK                            x       y       z     vdW  Elec       q    Type
REMARK                         _______ _______ _______ _____ _____    ______ ____
ROOT
ATOM      1  C   UNK A   1      -8.317   1.176 125.917  0.00  0.00    +0.000 C 
ATOM      2  C   UNK A   1      -8.510   1.834 127.088  0.00  0.00    +0.000 C 
ENDROOT
BRANCH   1   5
ATOM      3  C   UNK A   0      -8.338  -1.331 125.477  0.00  0.00    +0.000 C 
ATOM      4  O   UNK A   0      -9.517  -1.582 125.302  0.00  0.00    +0.000 OA
ATOM      5  N   UNK A   1      -7.719  -0.106 125.775  0.00  0.00    +0.000 N 
ATOM      6  H   UNK A   1      -6.722  -0.171 125.903  0.00  0.00    +0.000 HD
BRANCH   3  11
ATOM      7  C   UNK A   0      -5.519  -3.499 124.031  0.00  0.00    +0.000 C 
ATOM      8  C   UNK A   0      -6.822  -2.778 123.957  0.00  0.00    +0.000 C 
ATOM      9  C   UNK A   0      -6.898  -1.691 122.897  0.00  0.00    +0.000 C 
ATOM     10  C   UNK A   0      -8.069  -3.567 124.259  0.00  0.00    +0.000 C 
ATOM     11  C   UNK A   0      -7.525  -2.551 125.291  0.00  0.00    +0.000 C 
ENDBRANCH   3  11
ENDBRANCH   1   5
BRANCH   1  12
ATOM     12  C   UNK A   1      -8.837   1.998 124.739  0.00  0.00    +0.000 C 
ATOM     13  O   UNK A   1      -8.107   2.618 123.974  0.00  0.00    +0.000 OA
BRANCH  12  14
ATOM     14  O   UNK A   1     -10.170   2.026 124.551  0.00  0.00    +0.000 OA
ATOM     15  H   UNK A   1     -10.598   1.286 124.106  0.00  0.00    +0.000 HD
ENDBRANCH  12  14
ENDBRANCH   1  12
BRANCH   2  16
ATOM     16  C   UNK A   1      -8.119   1.297 128.410  0.00  0.00    +0.000 C 
BRANCH  16  17
ATOM     17  C   UNK A   1      -8.151   2.054 129.705  0.00  0.00    +0.000 C 
BRANCH  17  18
ATOM     18  C   UNK A   1      -9.419   2.947 129.711  0.00  0.00    +0.000 C 
BRANCH  18  19
ATOM     19  C   UNK A   1      -9.006   4.403 129.864  0.00  0.00    +0.000 C 
BRANCH  19  20
ATOM     20  S   UNK A   1     -10.456   5.471 130.186  0.00  0.00    +0.000 S 
BRANCH  20  21
ATOM     21  C   UNK A   1     -10.053   6.883 129.077  0.00  0.00    +0.000 C 
BRANCH  21  22
ATOM     22  C   UNK A   1     -11.176   7.294 128.092  0.00  0.00    +0.000 C 
BRANCH  22  23
ATOM     23  N   UNK A   1     -12.403   6.480 128.203  0.00  0.00    +0.000 NA
ATOM     24  H   UNK A   1     -13.187   6.864 127.688  0.00  0.00    +0.000 HD
ATOM     25  H   UNK A   1     -12.613   6.194 129.153  0.00  0.00    +0.000 HD
ENDBRANCH  22  23
BRANCH  22  26
ATOM     26  C   UNK A   1     -10.591   7.222 126.665  0.00  0.00    +0.000 C 
ATOM     27  O   UNK A   1     -10.891   7.998 125.769  0.00  0.00    +0.000 OA
BRANCH  26  28
ATOM     28  O   UNK A   1      -9.685   6.232 126.464  0.00  0.00    +0.000 OA
ATOM     29  H   UNK A   1      -9.864   5.443 127.008  0.00  0.00    +0.000 HD
ENDBRANCH  26  28
ENDBRANCH  22  26
ENDBRANCH  21  22
ENDBRANCH  20  21
ENDBRANCH  19  20
ENDBRANCH  18  19
ENDBRANCH  17  18
ENDBRANCH  16  17
ENDBRANCH   2  16
TORSDOF 14
ENDMDL
