MODEL 1
REMARK VINA RESULT:      -7.1      0.000      0.000
REMARK  Name = Cilazapril
REMARK  11 active torsions:
REMARK  status: ('A' for Active; 'I' for Inactive)
REMARK    1  A    between atoms: C_1  and  C_2
REMARK    2  A    between atoms: C_2  and  O_3
REMARK    3  A    between atoms: O_3  and  C_4
REMARK    4  A    between atoms: C_4  and  C_6
REMARK    5  A    between atoms: C_6  and  C_7
REMARK    6  A    between atoms: C_6  and  N_15
REMARK    7  A    between atoms: C_7  and  C_8
REMARK    8  A    between atoms: C_8  and  C_9
REMARK    9  A    between atoms: N_15  and  C_16
REMARK   10  A    between atoms: C_24  and  C_28
REMARK   11  A    between atoms: C_28  and  O_29
REMARK                            x       y       z     vdW  Elec       q    Type
REMARK                         _______ _______ _______ _____ _____    ______ ____
ROOT
ATOM      1  N   UNL     1     -11.035   4.680 130.105  0.00  0.00    +0.000 NA
ATOM      2  H   UNL     1     -10.884   5.074 129.177  0.00  0.00    +0.000 HD
ENDROOT
BRANCH   1   3
ATOM      3  C   UNL     1      -9.893   3.797 130.530  0.00  0.00    +0.000 C 
ATOM      4  C   UNL     1     -10.585   2.543 131.018  0.00  0.00    +0.000 C 
ATOM      5  C   UNL     1      -9.802   1.895 132.123  0.00  0.00    +0.000 C 
ATOM      6  C   UNL     1      -8.790   1.006 131.460  0.00  0.00    +0.000 C 
ATOM      7  N   UNL     1      -7.657   1.789 131.031  0.00  0.00    +0.000 NA
ATOM      8  C   UNL     1      -6.766   2.299 132.060  0.00  0.00    +0.000 C 
ATOM      9  C   UNL     1      -5.360   2.422 131.469  0.00  0.00    +0.000 C 
ATOM     10  C   UNL     1      -5.384   3.188 130.137  0.00  0.00    +0.000 C 
ATOM     11  C   UNL     1      -6.415   2.589 129.146  0.00  0.00    +0.000 C 
ATOM     12  N   UNL     1      -7.732   2.573 129.848  0.00  0.00    +0.000 N 
ATOM     13  C   UNL     1      -8.757   3.499 129.486  0.00  0.00    +0.000 C 
ATOM     14  O   UNL     1      -8.655   4.178 128.456  0.00  0.00    +0.000 OA
BRANCH  11  15
ATOM     15  C   UNL     1      -6.064   1.168 128.630  0.00  0.00    +0.000 C 
ATOM     16  O   UNL     1      -4.928   0.758 128.451  0.00  0.00    +0.000 OA
BRANCH  15  17
ATOM     17  O   UNL     1      -7.117   0.329 128.444  0.00  0.00    +0.000 OA
ATOM     18  H   UNL     1      -7.825   0.613 127.843  0.00  0.00    +0.000 HD
ENDBRANCH  15  17
ENDBRANCH  11  15
ENDBRANCH   1   3
BRANCH   1  19
ATOM     19  C   UNL     1     -11.260   5.773 131.117  0.00  0.00    +0.000 C 
BRANCH  19  20
ATOM     20  C   UNL     1     -12.317   6.817 130.738  0.00  0.00    +0.000 C 
ATOM     21  O   UNL     1     -13.198   7.206 131.488  0.00  0.00    +0.000 OA
BRANCH  20  22
ATOM     22  O   UNL     1     -12.253   7.123 129.403  0.00  0.00    +0.000 OA
BRANCH  22  24
ATOM     23  C   UNL     1     -10.754   8.449 128.065  0.00  0.00    +0.000 C 
ATOM     24  C   UNL     1     -11.808   8.460 129.156  0.00  0.00    +0.000 C 
ENDBRANCH  22  24
ENDBRANCH  20  22
ENDBRANCH  19  20
BRANCH  19  25
ATOM     25  C   UNL     1      -9.997   6.353 131.743  0.00  0.00    +0.000 C 
BRANCH  25  26
ATOM     26  C   UNL     1      -8.897   6.919 130.842  0.00  0.00    +0.000 C 
BRANCH  26  27
ATOM     27  C   UNL     1      -7.579   6.629 131.516  0.00  0.00    +0.000 A 
ATOM     28  C   UNL     1      -7.526   5.904 132.706  0.00  0.00    +0.000 A 
ATOM     29  C   UNL     1      -6.290   5.638 133.292  0.00  0.00    +0.000 A 
ATOM     30  C   UNL     1      -5.106   6.020 132.657  0.00  0.00    +0.000 A 
ATOM     31  C   UNL     1      -5.150   6.735 131.467  0.00  0.00    +0.000 A 
ATOM     32  C   UNL     1      -6.380   7.068 130.922  0.00  0.00    +0.000 A 
ENDBRANCH  26  27
ENDBRANCH  25  26
ENDBRANCH  19  25
ENDBRANCH   1  19
TORSDOF 10
ENDMDL
MODEL 2
REMARK VINA RESULT:      -7.1      1.371      1.720
REMARK  Name = Cilazapril
REMARK  11 active torsions:
REMARK  status: ('A' for Active; 'I' for Inactive)
REMARK    1  A    between atoms: C_1  and  C_2
REMARK    2  A    between atoms: C_2  and  O_3
REMARK    3  A    between atoms: O_3  and  C_4
REMARK    4  A    between atoms: C_4  and  C_6
REMARK    5  A    between atoms: C_6  and  C_7
REMARK    6  A    between atoms: C_6  and  N_15
REMARK    7  A    between atoms: C_7  and  C_8
REMARK    8  A    between atoms: C_8  and  C_9
REMARK    9  A    between atoms: N_15  and  C_16
REMARK   10  A    between atoms: C_24  and  C_28
REMARK   11  A    between atoms: C_28  and  O_29
REMARK                            x       y       z     vdW  Elec       q    Type
REMARK                         _______ _______ _______ _____ _____    ______ ____
ROOT
ATOM      1  N   UNL     1     -10.278   4.878 129.574  0.00  0.00    +0.000 NA
ATOM      2  H   UNL     1     -10.396   5.408 128.711  0.00  0.00    +0.000 HD
ENDROOT
BRANCH   1   3
ATOM      3  C   UNL     1      -8.915   4.243 129.656  0.00  0.00    +0.000 C 
ATOM      4  C   UNL     1      -9.207   2.860 130.194  0.00  0.00    +0.000 C 
ATOM      5  C   UNL     1      -8.068   2.363 131.037  0.00  0.00    +0.000 C 
ATOM      6  C   UNL     1      -7.090   1.723 130.094  0.00  0.00    +0.000 C 
ATOM      7  N   UNL     1      -6.273   2.738 129.476  0.00  0.00    +0.000 NA
ATOM      8  C   UNL     1      -5.279   3.397 130.307  0.00  0.00    +0.000 C 
ATOM      9  C   UNL     1      -4.110   3.829 129.420  0.00  0.00    +0.000 C 
ATOM     10  C   UNL     1      -4.605   4.606 128.190  0.00  0.00    +0.000 C 
ATOM     11  C   UNL     1      -5.705   3.830 127.422  0.00  0.00    +0.000 C 
ATOM     12  N   UNL     1      -6.784   3.520 128.405  0.00  0.00    +0.000 N 
ATOM     13  C   UNL     1      -8.029   4.218 128.359  0.00  0.00    +0.000 C 
ATOM     14  O   UNL     1      -8.314   4.930 127.387  0.00  0.00    +0.000 OA
BRANCH  11  15
ATOM     15  C   UNL     1      -5.214   2.528 126.733  0.00  0.00    +0.000 C 
ATOM     16  O   UNL     1      -4.089   2.363 126.288  0.00  0.00    +0.000 OA
BRANCH  15  17
ATOM     17  O   UNL     1      -6.104   1.501 126.706  0.00  0.00    +0.000 OA
ATOM     18  H   UNL     1      -6.254   1.007 127.529  0.00  0.00    +0.000 HD
ENDBRANCH  15  17
ENDBRANCH  11  15
ENDBRANCH   1   3
BRANCH   1  19
ATOM     19  C   UNL     1     -10.525   5.752 130.774  0.00  0.00    +0.000 C 
BRANCH  19  20
ATOM     20  C   UNL     1     -11.821   6.571 130.740  0.00  0.00    +0.000 C 
ATOM     21  O   UNL     1     -12.557   6.733 131.700  0.00  0.00    +0.000 OA
BRANCH  20  22
ATOM     22  O   UNL     1     -12.135   6.946 129.460  0.00  0.00    +0.000 OA
BRANCH  22  24
ATOM     23  C   UNL     1     -10.679   8.420 128.232  0.00  0.00    +0.000 C 
ATOM     24  C   UNL     1     -11.849   8.323 129.193  0.00  0.00    +0.000 C 
ENDBRANCH  22  24
ENDBRANCH  20  22
ENDBRANCH  19  20
BRANCH  19  25
ATOM     25  C   UNL     1      -9.309   6.517 131.286  0.00  0.00    +0.000 C 
BRANCH  25  26
ATOM     26  C   UNL     1      -8.525   5.976 132.484  0.00  0.00    +0.000 C 
BRANCH  26  27
ATOM     27  C   UNL     1      -7.069   6.277 132.232  0.00  0.00    +0.000 A 
ATOM     28  C   UNL     1      -6.080   5.816 133.101  0.00  0.00    +0.000 A 
ATOM     29  C   UNL     1      -4.743   6.096 132.829  0.00  0.00    +0.000 A 
ATOM     30  C   UNL     1      -4.382   6.763 131.656  0.00  0.00    +0.000 A 
ATOM     31  C   UNL     1      -5.360   7.218 130.781  0.00  0.00    +0.000 A 
ATOM     32  C   UNL     1      -6.694   7.008 131.088  0.00  0.00    +0.000 A 
ENDBRANCH  26  27
ENDBRANCH  25  26
ENDBRANCH  19  25
ENDBRANCH   1  19
TORSDOF 10
ENDMDL
MODEL 3
REMARK VINA RESULT:      -7.0      5.430      8.283
REMARK  Name = Cilazapril
REMARK  11 active torsions:
REMARK  status: ('A' for Active; 'I' for Inactive)
REMARK    1  A    between atoms: C_1  and  C_2
REMARK    2  A    between atoms: C_2  and  O_3
REMARK    3  A    between atoms: O_3  and  C_4
REMARK    4  A    between atoms: C_4  and  C_6
REMARK    5  A    between atoms: C_6  and  C_7
REMARK    6  A    between atoms: C_6  and  N_15
REMARK    7  A    between atoms: C_7  and  C_8
REMARK    8  A    between atoms: C_8  and  C_9
REMARK    9  A    between atoms: N_15  and  C_16
REMARK   10  A    between atoms: C_24  and  C_28
REMARK   11  A    between atoms: C_28  and  O_29
REMARK                            x       y       z     vdW  Elec       q    Type
REMARK                         _______ _______ _______ _____ _____    ______ ____
ROOT
ATOM      1  N   UNL     1      -7.015   2.548 126.944  0.00  0.00    +0.000 NA
ATOM      2  H   UNL     1      -7.906   2.925 126.622  0.00  0.00    +0.000 HD
ENDROOT
BRANCH   1   3
ATOM      3  C   UNL     1      -6.801   1.137 126.465  0.00  0.00    +0.000 C 
ATOM      4  C   UNL     1      -6.791   0.333 127.747  0.00  0.00    +0.000 C 
ATOM      5  C   UNL     1      -5.888  -0.861 127.622  0.00  0.00    +0.000 C 
ATOM      6  C   UNL     1      -6.716  -1.956 127.013  0.00  0.00    +0.000 C 
ATOM      7  N   UNL     1      -6.784  -1.778 125.583  0.00  0.00    +0.000 NA
ATOM      8  C   UNL     1      -5.580  -2.048 124.815  0.00  0.00    +0.000 C 
ATOM      9  C   UNL     1      -5.988  -2.519 123.418  0.00  0.00    +0.000 C 
ATOM     10  C   UNL     1      -7.008  -1.559 122.786  0.00  0.00    +0.000 C 
ATOM     11  C   UNL     1      -8.215  -1.302 123.723  0.00  0.00    +0.000 C 
ATOM     12  N   UNL     1      -7.661  -0.813 125.019  0.00  0.00    +0.000 N 
ATOM     13  C   UNL     1      -7.793   0.560 125.391  0.00  0.00    +0.000 C 
ATOM     14  O   UNL     1      -8.545   1.313 124.759  0.00  0.00    +0.000 OA
BRANCH  11  15
ATOM     15  C   UNL     1      -9.124  -2.538 123.959  0.00  0.00    +0.000 C 
ATOM     16  O   UNL     1      -9.337  -3.408 123.129  0.00  0.00    +0.000 OA
BRANCH  15  17
ATOM     17  O   UNL     1      -9.643  -2.661 125.209  0.00  0.00    +0.000 OA
ATOM     18  H   UNL     1     -10.009  -1.866 125.630  0.00  0.00    +0.000 HD
ENDBRANCH  15  17
ENDBRANCH  11  15
ENDBRANCH   1   3
BRANCH   1  19
ATOM     19  C   UNL     1      -5.875   3.430 126.509  0.00  0.00    +0.000 C 
BRANCH  19  20
ATOM     20  C   UNL     1      -5.251   4.296 127.610  0.00  0.00    +0.000 C 
ATOM     21  O   UNL     1      -5.891   4.906 128.450  0.00  0.00    +0.000 OA
BRANCH  20  22
ATOM     22  O   UNL     1      -3.900   4.437 127.420  0.00  0.00    +0.000 OA
BRANCH  22  24
ATOM     23  C   UNL     1      -2.058   3.119 126.605  0.00  0.00    +0.000 C 
ATOM     24  C   UNL     1      -3.176   3.220 127.625  0.00  0.00    +0.000 C 
ENDBRANCH  22  24
ENDBRANCH  20  22
ENDBRANCH  19  20
BRANCH  19  25
ATOM     25  C   UNL     1      -6.075   4.148 125.179  0.00  0.00    +0.000 C 
BRANCH  25  26
ATOM     26  C   UNL     1      -4.932   4.188 124.162  0.00  0.00    +0.000 C 
BRANCH  26  27
ATOM     27  C   UNL     1      -5.555   4.083 122.792  0.00  0.00    +0.000 A 
ATOM     28  C   UNL     1      -6.823   3.531 122.621  0.00  0.00    +0.000 A 
ATOM     29  C   UNL     1      -7.377   3.466 121.344  0.00  0.00    +0.000 A 
ATOM     30  C   UNL     1      -6.706   4.021 120.251  0.00  0.00    +0.000 A 
ATOM     31  C   UNL     1      -5.446   4.582 120.414  0.00  0.00    +0.000 A 
ATOM     32  C   UNL     1      -4.861   4.578 121.670  0.00  0.00    +0.000 A 
ENDBRANCH  26  27
ENDBRANCH  25  26
ENDBRANCH  19  25
ENDBRANCH   1  19
TORSDOF 10
ENDMDL
MODEL 4
REMARK VINA RESULT:      -7.0      5.955      7.398
REMARK  Name = Cilazapril
REMARK  11 active torsions:
REMARK  status: ('A' for Active; 'I' for Inactive)
REMARK    1  A    between atoms: C_1  and  C_2
REMARK    2  A    between atoms: C_2  and  O_3
REMARK    3  A    between atoms: O_3  and  C_4
REMARK    4  A    between atoms: C_4  and  C_6
REMARK    5  A    between atoms: C_6  and  C_7
REMARK    6  A    between atoms: C_6  and  N_15
REMARK    7  A    between atoms: C_7  and  C_8
REMARK    8  A    between atoms: C_8  and  C_9
REMARK    9  A    between atoms: N_15  and  C_16
REMARK   10  A    between atoms: C_24  and  C_28
REMARK   11  A    between atoms: C_28  and  O_29
REMARK                            x       y       z     vdW  Elec       q    Type
REMARK                         _______ _______ _______ _____ _____    ______ ____
ROOT
ATOM      1  N   UNL     1      -8.634   2.982 124.835  0.00  0.00    +0.000 NA
ATOM      2  H   UNL     1      -9.530   2.862 124.364  0.00  0.00    +0.000 HD
ENDROOT
BRANCH   1   3
ATOM      3  C   UNL     1      -8.039   1.662 125.247  0.00  0.00    +0.000 C 
ATOM      4  C   UNL     1      -8.307   1.609 126.735  0.00  0.00    +0.000 C 
ATOM      5  C   UNL     1      -7.222   0.853 127.447  0.00  0.00    +0.000 C 
ATOM      6  C   UNL     1      -7.608  -0.597 127.388  0.00  0.00    +0.000 C 
ATOM      7  N   UNL     1      -7.239  -1.148 126.106  0.00  0.00    +0.000 NA
ATOM      8  C   UNL     1      -5.824  -1.353 125.846  0.00  0.00    +0.000 C 
ATOM      9  C   UNL     1      -5.672  -2.530 124.881  0.00  0.00    +0.000 C 
ATOM     10  C   UNL     1      -6.581  -2.361 123.653  0.00  0.00    +0.000 C 
ATOM     11  C   UNL     1      -8.051  -2.087 124.058  0.00  0.00    +0.000 C 
ATOM     12  N   UNL     1      -8.038  -0.897 124.959  0.00  0.00    +0.000 N 
ATOM     13  C   UNL     1      -8.516   0.367 124.496  0.00  0.00    +0.000 C 
ATOM     14  O   UNL     1      -9.140   0.451 123.430  0.00  0.00    +0.000 OA
BRANCH  11  15
ATOM     15  C   UNL     1      -8.762  -3.279 124.753  0.00  0.00    +0.000 C 
ATOM     16  O   UNL     1      -8.319  -4.416 124.800  0.00  0.00    +0.000 OA
BRANCH  15  17
ATOM     17  O   UNL     1      -9.918  -2.982 125.403  0.00  0.00    +0.000 OA
ATOM     18  H   UNL     1      -9.864  -2.424 126.197  0.00  0.00    +0.000 HD
ENDBRANCH  15  17
ENDBRANCH  11  15
ENDBRANCH   1   3
BRANCH   1  19
ATOM     19  C   UNL     1      -7.671   3.744 123.963  0.00  0.00    +0.000 C 
BRANCH  19  20
ATOM     20  C   UNL     1      -7.633   3.317 122.490  0.00  0.00    +0.000 C 
ATOM     21  O   UNL     1      -8.583   3.394 121.727  0.00  0.00    +0.000 OA
BRANCH  20  22
ATOM     22  O   UNL     1      -6.458   2.677 122.192  0.00  0.00    +0.000 OA
BRANCH  22  24
ATOM     23  C   UNL     1      -5.213   4.405 121.071  0.00  0.00    +0.000 C 
ATOM     24  C   UNL     1      -5.913   3.068 120.928  0.00  0.00    +0.000 C 
ENDBRANCH  22  24
ENDBRANCH  20  22
ENDBRANCH  19  20
BRANCH  19  25
ATOM     25  C   UNL     1      -6.302   4.009 124.578  0.00  0.00    +0.000 C 
BRANCH  25  26
ATOM     26  C   UNL     1      -6.207   4.654 125.962  0.00  0.00    +0.000 C 
BRANCH  26  27
ATOM     27  C   UNL     1      -4.847   4.310 126.519  0.00  0.00    +0.000 A 
ATOM     28  C   UNL     1      -4.237   3.093 126.220  0.00  0.00    +0.000 A 
ATOM     29  C   UNL     1      -2.972   2.815 126.735  0.00  0.00    +0.000 A 
ATOM     30  C   UNL     1      -2.283   3.776 127.479  0.00  0.00    +0.000 A 
ATOM     31  C   UNL     1      -2.880   4.995 127.774  0.00  0.00    +0.000 A 
ATOM     32  C   UNL     1      -4.168   5.243 127.327  0.00  0.00    +0.000 A 
ENDBRANCH  26  27
ENDBRANCH  25  26
ENDBRANCH  19  25
ENDBRANCH   1  19
TORSDOF 10
ENDMDL
MODEL 5
REMARK VINA RESULT:      -6.9      5.051      8.967
REMARK  Name = Cilazapril
REMARK  11 active torsions:
REMARK  status: ('A' for Active; 'I' for Inactive)
REMARK    1  A    between atoms: C_1  and  C_2
REMARK    2  A    between atoms: C_2  and  O_3
REMARK    3  A    between atoms: O_3  and  C_4
REMARK    4  A    between atoms: C_4  and  C_6
REMARK    5  A    between atoms: C_6  and  C_7
REMARK    6  A    between atoms: C_6  and  N_15
REMARK    7  A    between atoms: C_7  and  C_8
REMARK    8  A    between atoms: C_8  and  C_9
REMARK    9  A    between atoms: N_15  and  C_16
REMARK   10  A    between atoms: C_24  and  C_28
REMARK   11  A    between atoms: C_28  and  O_29
REMARK                            x       y       z     vdW  Elec       q    Type
REMARK                         _______ _______ _______ _____ _____    ______ ____
ROOT
ATOM      1  N   UNL     1      -9.186  -1.123 125.754  0.00  0.00    +0.000 NA
ATOM      2  H   UNL     1      -9.714  -0.977 126.613  0.00  0.00    +0.000 HD
ENDROOT
BRANCH   1   3
ATOM      3  C   UNL     1      -8.300   0.052 125.437  0.00  0.00    +0.000 C 
ATOM      4  C   UNL     1      -8.381   0.154 123.930  0.00  0.00    +0.000 C 
ATOM      5  C   UNL     1      -7.095   0.680 123.360  0.00  0.00    +0.000 C 
ATOM      6  C   UNL     1      -7.193   2.177 123.405  0.00  0.00    +0.000 C 
ATOM      7  N   UNL     1      -6.871   2.647 124.730  0.00  0.00    +0.000 NA
ATOM      8  C   UNL     1      -5.482   2.569 125.151  0.00  0.00    +0.000 C 
ATOM      9  C   UNL     1      -5.211   3.694 126.152  0.00  0.00    +0.000 C 
ATOM     10  C   UNL     1      -6.269   3.711 127.266  0.00  0.00    +0.000 C 
ATOM     11  C   UNL     1      -7.709   3.732 126.694  0.00  0.00    +0.000 C 
ATOM     12  N   UNL     1      -7.828   2.561 125.776  0.00  0.00    +0.000 N 
ATOM     13  C   UNL     1      -8.595   1.418 126.157  0.00  0.00    +0.000 C 
ATOM     14  O   UNL     1      -9.340   1.461 127.144  0.00  0.00    +0.000 OA
BRANCH  11  15
ATOM     15  C   UNL     1      -8.088   5.040 125.948  0.00  0.00    +0.000 C 
ATOM     16  O   UNL     1      -9.151   5.626 126.075  0.00  0.00    +0.000 OA
BRANCH  15  17
ATOM     17  O   UNL     1      -7.116   5.577 125.164  0.00  0.00    +0.000 OA
ATOM     18  H   UNL     1      -6.878   6.508 125.307  0.00  0.00    +0.000 HD
ENDBRANCH  15  17
ENDBRANCH  11  15
ENDBRANCH   1   3
BRANCH   1  19
ATOM     19  C   UNL     1      -8.373  -2.388 125.835  0.00  0.00    +0.000 C 
BRANCH  19  20
ATOM     20  C   UNL     1      -8.394  -3.270 124.581  0.00  0.00    +0.000 C 
ATOM     21  O   UNL     1      -9.406  -3.570 123.968  0.00  0.00    +0.000 OA
BRANCH  20  22
ATOM     22  O   UNL     1      -7.161  -3.820 124.344  0.00  0.00    +0.000 OA
BRANCH  22  24
ATOM     23  C   UNL     1      -5.059  -3.070 123.441  0.00  0.00    +0.000 C 
ATOM     24  C   UNL     1      -6.088  -2.893 124.540  0.00  0.00    +0.000 C 
ENDBRANCH  22  24
ENDBRANCH  20  22
ENDBRANCH  19  20
BRANCH  19  25
ATOM     25  C   UNL     1      -8.488  -3.154 127.148  0.00  0.00    +0.000 C 
BRANCH  25  26
ATOM     26  C   UNL     1      -8.209  -2.437 128.470  0.00  0.00    +0.000 C 
BRANCH  26  27
ATOM     27  C   UNL     1      -6.863  -2.912 128.957  0.00  0.00    +0.000 A 
ATOM     28  C   UNL     1      -6.762  -3.859 129.975  0.00  0.00    +0.000 A 
ATOM     29  C   UNL     1      -5.503  -4.291 130.388  0.00  0.00    +0.000 A 
ATOM     30  C   UNL     1      -4.350  -3.842 129.737  0.00  0.00    +0.000 A 
ATOM     31  C   UNL     1      -4.443  -2.905 128.716  0.00  0.00    +0.000 A 
ATOM     32  C   UNL     1      -5.689  -2.417 128.356  0.00  0.00    +0.000 A 
ENDBRANCH  26  27
ENDBRANCH  25  26
ENDBRANCH  19  25
ENDBRANCH   1  19
TORSDOF 10
ENDMDL
MODEL 6
REMARK VINA RESULT:      -6.9      5.562      8.316
REMARK  Name = Cilazapril
REMARK  11 active torsions:
REMARK  status: ('A' for Active; 'I' for Inactive)
REMARK    1  A    between atoms: C_1  and  C_2
REMARK    2  A    between atoms: C_2  and  O_3
REMARK    3  A    between atoms: O_3  and  C_4
REMARK    4  A    between atoms: C_4  and  C_6
REMARK    5  A    between atoms: C_6  and  C_7
REMARK    6  A    between atoms: C_6  and  N_15
REMARK    7  A    between atoms: C_7  and  C_8
REMARK    8  A    between atoms: C_8  and  C_9
REMARK    9  A    between atoms: N_15  and  C_16
REMARK   10  A    between atoms: C_24  and  C_28
REMARK   11  A    between atoms: C_28  and  O_29
REMARK                            x       y       z     vdW  Elec       q    Type
REMARK                         _______ _______ _______ _____ _____    ______ ____
ROOT
ATOM      1  N   UNL     1      -9.132   3.264 125.077  0.00  0.00    +0.000 NA
ATOM      2  H   UNL     1      -9.897   3.151 125.741  0.00  0.00    +0.000 HD
ENDROOT
BRANCH   1   3
ATOM      3  C   UNL     1      -7.801   3.365 125.773  0.00  0.00    +0.000 C 
ATOM      4  C   UNL     1      -7.181   4.601 125.159  0.00  0.00    +0.000 C 
ATOM      5  C   UNL     1      -5.685   4.476 125.101  0.00  0.00    +0.000 C 
ATOM      6  C   UNL     1      -5.168   4.950 126.428  0.00  0.00    +0.000 C 
ATOM      7  N   UNL     1      -5.282   3.892 127.402  0.00  0.00    +0.000 NA
ATOM      8  C   UNL     1      -4.374   2.764 127.276  0.00  0.00    +0.000 C 
ATOM      9  C   UNL     1      -4.122   2.183 128.668  0.00  0.00    +0.000 C 
ATOM     10  C   UNL     1      -5.443   1.925 129.409  0.00  0.00    +0.000 C 
ATOM     11  C   UNL     1      -6.350   3.182 129.424  0.00  0.00    +0.000 C 
ATOM     12  N   UNL     1      -6.535   3.600 128.004  0.00  0.00    +0.000 N 
ATOM     13  C   UNL     1      -7.785   3.391 127.344  0.00  0.00    +0.000 C 
ATOM     14  O   UNL     1      -8.789   3.064 127.990  0.00  0.00    +0.000 OA
BRANCH  11  15
ATOM     15  C   UNL     1      -5.800   4.365 130.265  0.00  0.00    +0.000 C 
ATOM     16  O   UNL     1      -5.162   4.241 131.299  0.00  0.00    +0.000 OA
BRANCH  15  17
ATOM     17  O   UNL     1      -6.001   5.605 129.746  0.00  0.00    +0.000 OA
ATOM     18  H   UNL     1      -5.937   6.366 130.346  0.00  0.00    +0.000 HD
ENDBRANCH  15  17
ENDBRANCH  11  15
ENDBRANCH   1   3
BRANCH   1  19
ATOM     19  C   UNL     1      -9.120   2.135 124.081  0.00  0.00    +0.000 C 
BRANCH  19  20
ATOM     20  C   UNL     1      -9.035   0.726 124.679  0.00  0.00    +0.000 C 
ATOM     21  O   UNL     1      -9.449   0.422 125.786  0.00  0.00    +0.000 OA
BRANCH  20  22
ATOM     22  O   UNL     1      -8.280  -0.101 123.888  0.00  0.00    +0.000 OA
BRANCH  22  24
ATOM     23  C   UNL     1      -9.130  -2.275 123.298  0.00  0.00    +0.000 C 
ATOM     24  C   UNL     1      -8.328  -1.470 124.302  0.00  0.00    +0.000 C 
ENDBRANCH  22  24
ENDBRANCH  20  22
ENDBRANCH  19  20
BRANCH  19  25
ATOM     25  C   UNL     1      -8.240   2.355 122.856  0.00  0.00    +0.000 C 
BRANCH  25  26
ATOM     26  C   UNL     1      -8.801   3.106 121.646  0.00  0.00    +0.000 C 
BRANCH  26  27
ATOM     27  C   UNL     1      -7.627   3.716 120.921  0.00  0.00    +0.000 A 
ATOM     28  C   UNL     1      -7.774   4.250 119.641  0.00  0.00    +0.000 A 
ATOM     29  C   UNL     1      -6.674   4.822 119.006  0.00  0.00    +0.000 A 
ATOM     30  C   UNL     1      -5.451   4.936 119.672  0.00  0.00    +0.000 A 
ATOM     31  C   UNL     1      -5.298   4.415 120.950  0.00  0.00    +0.000 A 
ATOM     32  C   UNL     1      -6.370   3.777 121.553  0.00  0.00    +0.000 A 
ENDBRANCH  26  27
ENDBRANCH  25  26
ENDBRANCH  19  25
ENDBRANCH   1  19
TORSDOF 10
ENDMDL
MODEL 7
REMARK VINA RESULT:      -6.9      5.545      9.535
REMARK  Name = Cilazapril
REMARK  11 active torsions:
REMARK  status: ('A' for Active; 'I' for Inactive)
REMARK    1  A    between atoms: C_1  and  C_2
REMARK    2  A    between atoms: C_2  and  O_3
REMARK    3  A    between atoms: O_3  and  C_4
REMARK    4  A    between atoms: C_4  and  C_6
REMARK    5  A    between atoms: C_6  and  C_7
REMARK    6  A    between atoms: C_6  and  N_15
REMARK    7  A    between atoms: C_7  and  C_8
REMARK    8  A    between atoms: C_8  and  C_9
REMARK    9  A    between atoms: N_15  and  C_16
REMARK   10  A    between atoms: C_24  and  C_28
REMARK   11  A    between atoms: C_28  and  O_29
REMARK                            x       y       z     vdW  Elec       q    Type
REMARK                         _______ _______ _______ _____ _____    ______ ____
ROOT
ATOM      1  N   UNL     1      -7.911  -0.882 127.519  0.00  0.00    +0.000 NA
ATOM      2  H   UNL     1      -8.062  -0.440 128.425  0.00  0.00    +0.000 HD
ENDROOT
BRANCH   1   3
ATOM      3  C   UNL     1      -7.921   0.124 126.399  0.00  0.00    +0.000 C 
ATOM      4  C   UNL     1      -9.369   0.148 125.964  0.00  0.00    +0.000 C 
ATOM      5  C   UNL     1      -9.482   0.437 124.495  0.00  0.00    +0.000 C 
ATOM      6  C   UNL     1      -9.479   1.932 124.356  0.00  0.00    +0.000 C 
ATOM      7  N   UNL     1      -8.125   2.425 124.414  0.00  0.00    +0.000 NA
ATOM      8  C   UNL     1      -7.265   2.161 123.272  0.00  0.00    +0.000 C 
ATOM      9  C   UNL     1      -6.237   3.289 123.164  0.00  0.00    +0.000 C 
ATOM     10  C   UNL     1      -5.539   3.532 124.511  0.00  0.00    +0.000 C 
ATOM     11  C   UNL     1      -6.558   3.739 125.660  0.00  0.00    +0.000 C 
ATOM     12  N   UNL     1      -7.457   2.548 125.661  0.00  0.00    +0.000 N 
ATOM     13  C   UNL     1      -7.347   1.559 126.687  0.00  0.00    +0.000 C 
ATOM     14  O   UNL     1      -6.664   1.774 127.696  0.00  0.00    +0.000 OA
BRANCH  11  15
ATOM     15  C   UNL     1      -7.393   5.043 125.555  0.00  0.00    +0.000 C 
ATOM     16  O   UNL     1      -8.532   5.171 125.976  0.00  0.00    +0.000 OA
BRANCH  15  17
ATOM     17  O   UNL     1      -6.753   6.113 125.014  0.00  0.00    +0.000 OA
ATOM     18  H   UNL     1      -5.788   6.166 125.116  0.00  0.00    +0.000 HD
ENDBRANCH  15  17
ENDBRANCH  11  15
ENDBRANCH   1   3
BRANCH   1  19
ATOM     19  C   UNL     1      -6.624  -1.662 127.514  0.00  0.00    +0.000 C 
BRANCH  19  20
ATOM     20  C   UNL     1      -5.824  -1.626 128.822  0.00  0.00    +0.000 C 
ATOM     21  O   UNL     1      -4.910  -0.849 129.047  0.00  0.00    +0.000 OA
BRANCH  20  22
ATOM     22  O   UNL     1      -6.146  -2.687 129.628  0.00  0.00    +0.000 OA
BRANCH  22  24
ATOM     23  C   UNL     1      -5.400  -4.608 130.872  0.00  0.00    +0.000 C 
ATOM     24  C   UNL     1      -5.088  -3.643 129.745  0.00  0.00    +0.000 C 
ENDBRANCH  22  24
ENDBRANCH  20  22
ENDBRANCH  19  20
BRANCH  19  25
ATOM     25  C   UNL     1      -5.779  -1.521 126.254  0.00  0.00    +0.000 C 
BRANCH  25  26
ATOM     26  C   UNL     1      -5.662  -2.700 125.285  0.00  0.00    +0.000 C 
BRANCH  26  27
ATOM     27  C   UNL     1      -6.937  -2.740 124.480  0.00  0.00    +0.000 A 
ATOM     28  C   UNL     1      -7.022  -2.108 123.240  0.00  0.00    +0.000 A 
ATOM     29  C   UNL     1      -8.209  -2.180 122.514  0.00  0.00    +0.000 A 
ATOM     30  C   UNL     1      -9.282  -2.944 122.981  0.00  0.00    +0.000 A 
ATOM     31  C   UNL     1      -9.202  -3.583 124.211  0.00  0.00    +0.000 A 
ATOM     32  C   UNL     1      -8.050  -3.450 124.970  0.00  0.00    +0.000 A 
ENDBRANCH  26  27
ENDBRANCH  25  26
ENDBRANCH  19  25
ENDBRANCH   1  19
TORSDOF 10
ENDMDL
MODEL 8
REMARK VINA RESULT:      -6.8      2.405      6.386
REMARK  Name = Cilazapril
REMARK  11 active torsions:
REMARK  status: ('A' for Active; 'I' for Inactive)
REMARK    1  A    between atoms: C_1  and  C_2
REMARK    2  A    between atoms: C_2  and  O_3
REMARK    3  A    between atoms: O_3  and  C_4
REMARK    4  A    between atoms: C_4  and  C_6
REMARK    5  A    between atoms: C_6  and  C_7
REMARK    6  A    between atoms: C_6  and  N_15
REMARK    7  A    between atoms: C_7  and  C_8
REMARK    8  A    between atoms: C_8  and  C_9
REMARK    9  A    between atoms: N_15  and  C_16
REMARK   10  A    between atoms: C_24  and  C_28
REMARK   11  A    between atoms: C_28  and  O_29
REMARK                            x       y       z     vdW  Elec       q    Type
REMARK                         _______ _______ _______ _____ _____    ______ ____
ROOT
ATOM      1  N   UNL     1      -6.245   3.257 129.180  0.00  0.00    +0.000 NA
ATOM      2  H   UNL     1      -5.757   2.613 129.802  0.00  0.00    +0.000 HD
ENDROOT
BRANCH   1   3
ATOM      3  C   UNL     1      -7.080   4.247 129.946  0.00  0.00    +0.000 C 
ATOM      4  C   UNL     1      -6.091   5.334 130.304  0.00  0.00    +0.000 C 
ATOM      5  C   UNL     1      -6.450   5.974 131.614  0.00  0.00    +0.000 C 
ATOM      6  C   UNL     1      -7.437   7.060 131.299  0.00  0.00    +0.000 C 
ATOM      7  N   UNL     1      -8.754   6.493 131.143  0.00  0.00    +0.000 NA
ATOM      8  C   UNL     1      -9.425   6.015 132.340  0.00  0.00    +0.000 C 
ATOM      9  C   UNL     1     -10.936   6.153 132.140  0.00  0.00    +0.000 C 
ATOM     10  C   UNL     1     -11.377   5.530 130.807  0.00  0.00    +0.000 C 
ATOM     11  C   UNL     1     -10.549   6.071 129.615  0.00  0.00    +0.000 C 
ATOM     12  N   UNL     1      -9.113   5.829 129.939  0.00  0.00    +0.000 N 
ATOM     13  C   UNL     1      -8.380   4.807 129.262  0.00  0.00    +0.000 C 
ATOM     14  O   UNL     1      -8.850   4.256 128.258  0.00  0.00    +0.000 OA
BRANCH  11  15
ATOM     15  C   UNL     1     -10.782   7.573 129.296  0.00  0.00    +0.000 C 
ATOM     16  O   UNL     1     -11.827   8.170 129.504  0.00  0.00    +0.000 OA
BRANCH  15  17
ATOM     17  O   UNL     1      -9.705   8.251 128.821  0.00  0.00    +0.000 OA
ATOM     18  H   UNL     1      -9.552   8.248 127.861  0.00  0.00    +0.000 HD
ENDBRANCH  15  17
ENDBRANCH  11  15
ENDBRANCH   1   3
BRANCH   1  19
ATOM     19  C   UNL     1      -5.270   3.973 128.283  0.00  0.00    +0.000 C 
BRANCH  19  20
ATOM     20  C   UNL     1      -5.715   4.144 126.825  0.00  0.00    +0.000 C 
ATOM     21  O   UNL     1      -5.654   5.194 126.207  0.00  0.00    +0.000 OA
BRANCH  20  22
ATOM     22  O   UNL     1      -6.351   3.019 126.368  0.00  0.00    +0.000 OA
BRANCH  22  24
ATOM     23  C   UNL     1      -5.409   0.817 126.129  0.00  0.00    +0.000 C 
ATOM     24  C   UNL     1      -5.520   2.207 125.533  0.00  0.00    +0.000 C 
ENDBRANCH  22  24
ENDBRANCH  20  22
ENDBRANCH  19  20
BRANCH  19  25
ATOM     25  C   UNL     1      -3.809   3.571 128.453  0.00  0.00    +0.000 C 
BRANCH  25  26
ATOM     26  C   UNL     1      -2.704   4.563 128.084  0.00  0.00    +0.000 C 
BRANCH  26  27
ATOM     27  C   UNL     1      -2.899   5.784 128.947  0.00  0.00    +0.000 A 
ATOM     28  C   UNL     1      -3.476   6.943 128.431  0.00  0.00    +0.000 A 
ATOM     29  C   UNL     1      -3.658   8.048 129.261  0.00  0.00    +0.000 A 
ATOM     30  C   UNL     1      -3.341   7.974 130.620  0.00  0.00    +0.000 A 
ATOM     31  C   UNL     1      -2.773   6.820 131.144  0.00  0.00    +0.000 A 
ATOM     32  C   UNL     1      -2.521   5.748 130.304  0.00  0.00    +0.000 A 
ENDBRANCH  26  27
ENDBRANCH  25  26
ENDBRANCH  19  25
ENDBRANCH   1  19
TORSDOF 10
ENDMDL
MODEL 9
REMARK VINA RESULT:      -6.7      2.237      3.076
REMARK  Name = Cilazapril
REMARK  11 active torsions:
REMARK  status: ('A' for Active; 'I' for Inactive)
REMARK    1  A    between atoms: C_1  and  C_2
REMARK    2  A    between atoms: C_2  and  O_3
REMARK    3  A    between atoms: O_3  and  C_4
REMARK    4  A    between atoms: C_4  and  C_6
REMARK    5  A    between atoms: C_6  and  C_7
REMARK    6  A    between atoms: C_6  and  N_15
REMARK    7  A    between atoms: C_7  and  C_8
REMARK    8  A    between atoms: C_8  and  C_9
REMARK    9  A    between atoms: N_15  and  C_16
REMARK   10  A    between atoms: C_24  and  C_28
REMARK   11  A    between atoms: C_28  and  O_29
REMARK                            x       y       z     vdW  Elec       q    Type
REMARK                         _______ _______ _______ _____ _____    ______ ____
ROOT
ATOM      1  N   UNL     1      -9.174   4.292 129.207  0.00  0.00    +0.000 NA
ATOM      2  H   UNL     1      -9.434   4.183 128.227  0.00  0.00    +0.000 HD
ENDROOT
BRANCH   1   3
ATOM      3  C   UNL     1      -7.688   4.162 129.407  0.00  0.00    +0.000 C 
ATOM      4  C   UNL     1      -7.553   2.869 130.181  0.00  0.00    +0.000 C 
ATOM      5  C   UNL     1      -6.370   2.919 131.105  0.00  0.00    +0.000 C 
ATOM      6  C   UNL     1      -5.182   2.487 130.295  0.00  0.00    +0.000 C 
ATOM      7  N   UNL     1      -4.697   3.596 129.510  0.00  0.00    +0.000 NA
ATOM      8  C   UNL     1      -4.021   4.672 130.216  0.00  0.00    +0.000 C 
ATOM      9  C   UNL     1      -2.999   5.308 129.271  0.00  0.00    +0.000 C 
ATOM     10  C   UNL     1      -3.640   5.665 127.921  0.00  0.00    +0.000 C 
ATOM     11  C   UNL     1      -4.382   4.455 127.297  0.00  0.00    +0.000 C 
ATOM     12  N   UNL     1      -5.363   3.977 128.315  0.00  0.00    +0.000 N 
ATOM     13  C   UNL     1      -6.761   4.212 128.139  0.00  0.00    +0.000 C 
ATOM     14  O   UNL     1      -7.198   4.619 127.055  0.00  0.00    +0.000 OA
BRANCH  11  15
ATOM     15  C   UNL     1      -3.457   3.290 126.854  0.00  0.00    +0.000 C 
ATOM     16  O   UNL     1      -2.326   3.433 126.416  0.00  0.00    +0.000 OA
BRANCH  15  17
ATOM     17  O   UNL     1      -3.948   2.038 127.047  0.00  0.00    +0.000 OA
ATOM     18  H   UNL     1      -3.424   1.421 127.586  0.00  0.00    +0.000 HD
ENDBRANCH  15  17
ENDBRANCH  11  15
ENDBRANCH   1   3
BRANCH   1  19
ATOM     19  C   UNL     1      -9.664   5.610 129.744  0.00  0.00    +0.000 C 
BRANCH  19  20
ATOM     20  C   UNL     1     -10.137   6.619 128.691  0.00  0.00    +0.000 C 
ATOM     21  O   UNL     1      -9.888   6.537 127.499  0.00  0.00    +0.000 OA
BRANCH  20  22
ATOM     22  O   UNL     1     -10.721   7.711 129.280  0.00  0.00    +0.000 OA
BRANCH  22  24
ATOM     23  C   UNL     1     -12.684   7.590 130.669  0.00  0.00    +0.000 C 
ATOM     24  C   UNL     1     -12.151   7.665 129.251  0.00  0.00    +0.000 C 
ENDBRANCH  22  24
ENDBRANCH  20  22
ENDBRANCH  19  20
BRANCH  19  25
ATOM     25  C   UNL     1      -8.821   6.214 130.861  0.00  0.00    +0.000 C 
BRANCH  25  26
ATOM     26  C   UNL     1      -9.286   6.087 132.313  0.00  0.00    +0.000 C 
BRANCH  26  27
ATOM     27  C   UNL     1      -8.104   5.607 133.118  0.00  0.00    +0.000 A 
ATOM     28  C   UNL     1      -8.263   4.669 134.136  0.00  0.00    +0.000 A 
ATOM     29  C   UNL     1      -7.147   4.233 134.848  0.00  0.00    +0.000 A 
ATOM     30  C   UNL     1      -5.866   4.667 134.494  0.00  0.00    +0.000 A 
ATOM     31  C   UNL     1      -5.698   5.595 133.475  0.00  0.00    +0.000 A 
ATOM     32  C   UNL     1      -6.814   6.088 132.817  0.00  0.00    +0.000 A 
ENDBRANCH  26  27
ENDBRANCH  25  26
ENDBRANCH  19  25
ENDBRANCH   1  19
TORSDOF 10
ENDMDL
