MODEL 1
REMARK VINA RESULT:      -8.5      0.000      0.000
REMARK  Name = Cilostazol
REMARK  7 active torsions:
REMARK  status: ('A' for Active; 'I' for Inactive)
REMARK    1  A    between atoms: C_10  and  O_11
REMARK    2  A    between atoms: O_11  and  C_12
REMARK    3  A    between atoms: C_12  and  C_13
REMARK    4  A    between atoms: C_13  and  C_14
REMARK    5  A    between atoms: C_14  and  C_15
REMARK    6  A    between atoms: C_15  and  C_16
REMARK    7  A    between atoms: N_20  and  C_21
REMARK                            x       y       z     vdW  Elec       q    Type
REMARK                         _______ _______ _______ _____ _____    ______ ____
ROOT
ATOM      1  C   UNL     1      -7.293   1.978 128.111  0.00  0.00    +0.000 C 
ENDROOT
BRANCH   1   2
ATOM      2  O   UNL     1      -7.194   3.197 128.810  0.00  0.00    +0.000 OA
BRANCH   2  12
ATOM      3  O   UNL     1     -13.001   7.210 131.568  0.00  0.00    +0.000 OA
ATOM      4  C   UNL     1     -12.015   6.707 131.011  0.00  0.00    +0.000 C 
ATOM      5  C   UNL     1     -11.186   7.462 130.000  0.00  0.00    +0.000 C 
ATOM      6  C   UNL     1      -9.724   7.068 130.098  0.00  0.00    +0.000 C 
ATOM      7  C   UNL     1      -9.597   5.576 130.035  0.00  0.00    +0.000 A 
ATOM      8  C   UNL     1     -10.587   4.777 130.615  0.00  0.00    +0.000 A 
ATOM      9  N   UNL     1     -11.701   5.389 131.196  0.00  0.00    +0.000 N 
ATOM     10  C   UNL     1     -10.465   3.393 130.620  0.00  0.00    +0.000 A 
ATOM     11  C   UNL     1      -9.347   2.799 130.020  0.00  0.00    +0.000 A 
ATOM     12  C   UNL     1      -8.346   3.596 129.443  0.00  0.00    +0.000 A 
ATOM     13  C   UNL     1      -8.473   4.979 129.469  0.00  0.00    +0.000 A 
ATOM     14  H   UNL     1     -12.338   4.852 131.771  0.00  0.00    +0.000 HD
ENDBRANCH   2  12
ENDBRANCH   1   2
BRANCH   1  15
ATOM     15  C   UNL     1      -6.566   2.016 126.745  0.00  0.00    +0.000 C 
BRANCH  15  16
ATOM     16  C   UNL     1      -7.590   1.787 125.646  0.00  0.00    +0.000 C 
BRANCH  16  17
ATOM     17  C   UNL     1      -8.459   0.528 125.544  0.00  0.00    +0.000 C 
BRANCH  17  18
ATOM     18  C   UNL     1      -9.327   0.300 124.301  0.00  0.00    +0.000 A 
ATOM     19  N   UNL     1     -10.363   1.059 123.966  0.00  0.00    +0.000 NA
ATOM     20  N   UNL     1     -10.890   0.553 122.801  0.00  0.00    +0.000 NA
ATOM     21  N   UNL     1     -10.205  -0.499 122.397  0.00  0.00    +0.000 NA
ATOM     22  N   UNL     1      -9.228  -0.652 123.308  0.00  0.00    +0.000 N 
BRANCH  22  23
ATOM     23  C   UNL     1      -8.317  -1.765 123.154  0.00  0.00    +0.000 C 
ATOM     24  C   UNL     1      -6.879  -1.255 122.940  0.00  0.00    +0.000 C 
ATOM     25  C   UNL     1      -5.835  -2.338 123.164  0.00  0.00    +0.000 C 
ATOM     26  C   UNL     1      -6.115  -3.250 124.343  0.00  0.00    +0.000 C 
ATOM     27  C   UNL     1      -7.514  -3.823 124.447  0.00  0.00    +0.000 C 
ATOM     28  C   UNL     1      -8.631  -2.826 124.220  0.00  0.00    +0.000 C 
ENDBRANCH  22  23
ENDBRANCH  17  18
ENDBRANCH  16  17
ENDBRANCH  15  16
ENDBRANCH   1  15
TORSDOF 7
ENDMDL
MODEL 2
REMARK VINA RESULT:      -8.4      5.492      6.985
REMARK  Name = Cilostazol
REMARK  7 active torsions:
REMARK  status: ('A' for Active; 'I' for Inactive)
REMARK    1  A    between atoms: C_10  and  O_11
REMARK    2  A    between atoms: O_11  and  C_12
REMARK    3  A    between atoms: C_12  and  C_13
REMARK    4  A    between atoms: C_13  and  C_14
REMARK    5  A    between atoms: C_14  and  C_15
REMARK    6  A    between atoms: C_15  and  C_16
REMARK    7  A    between atoms: N_20  and  C_21
REMARK                            x       y       z     vdW  Elec       q    Type
REMARK                         _______ _______ _______ _____ _____    ______ ____
ROOT
ATOM      1  C   UNL     1      -8.720  -3.666 126.557  0.00  0.00    +0.000 C 
ENDROOT
BRANCH   1   2
ATOM      2  O   UNL     1      -8.996  -3.384 127.909  0.00  0.00    +0.000 OA
BRANCH   2  12
ATOM      3  O   UNL     1      -2.730  -1.924 131.915  0.00  0.00    +0.000 OA
ATOM      4  C   UNL     1      -3.684  -2.338 131.239  0.00  0.00    +0.000 C 
ATOM      5  C   UNL     1      -3.765  -3.762 130.745  0.00  0.00    +0.000 C 
ATOM      6  C   UNL     1      -5.203  -4.246 130.723  0.00  0.00    +0.000 C 
ATOM      7  C   UNL     1      -6.055  -3.265 129.976  0.00  0.00    +0.000 A 
ATOM      8  C   UNL     1      -5.767  -1.899 130.062  0.00  0.00    +0.000 A 
ATOM      9  N   UNL     1      -4.657  -1.483 130.802  0.00  0.00    +0.000 N 
ATOM     10  C   UNL     1      -6.575  -0.965 129.425  0.00  0.00    +0.000 A 
ATOM     11  C   UNL     1      -7.675  -1.404 128.677  0.00  0.00    +0.000 A 
ATOM     12  C   UNL     1      -7.974  -2.773 128.594  0.00  0.00    +0.000 A 
ATOM     13  C   UNL     1      -7.169  -3.690 129.257  0.00  0.00    +0.000 A 
ATOM     14  H   UNL     1      -4.528  -0.504 131.025  0.00  0.00    +0.000 HD
ENDBRANCH   2  12
ENDBRANCH   1   2
BRANCH   1  15
ATOM     15  C   UNL     1      -9.491  -2.739 125.587  0.00  0.00    +0.000 C 
BRANCH  15  16
ATOM     16  C   UNL     1      -9.470  -3.363 124.202  0.00  0.00    +0.000 C 
BRANCH  16  17
ATOM     17  C   UNL     1      -9.486  -2.549 122.904  0.00  0.00    +0.000 C 
BRANCH  17  18
ATOM     18  C   UNL     1      -9.252  -1.034 122.952  0.00  0.00    +0.000 A 
ATOM     19  N   UNL     1     -10.185  -0.127 122.691  0.00  0.00    +0.000 NA
ATOM     20  N   UNL     1      -9.611   1.114 122.833  0.00  0.00    +0.000 NA
ATOM     21  N   UNL     1      -8.344   1.005 123.184  0.00  0.00    +0.000 NA
ATOM     22  N   UNL     1      -8.119  -0.317 123.277  0.00  0.00    +0.000 N 
BRANCH  22  23
ATOM     23  C   UNL     1      -6.784  -0.763 123.616  0.00  0.00    +0.000 C 
ATOM     24  C   UNL     1      -6.644  -0.917 125.142  0.00  0.00    +0.000 C 
ATOM     25  C   UNL     1      -5.428  -1.743 125.536  0.00  0.00    +0.000 C 
ATOM     26  C   UNL     1      -5.174  -2.951 124.656  0.00  0.00    +0.000 C 
ATOM     27  C   UNL     1      -5.207  -2.726 123.158  0.00  0.00    +0.000 C 
ATOM     28  C   UNL     1      -6.373  -1.895 122.663  0.00  0.00    +0.000 C 
ENDBRANCH  22  23
ENDBRANCH  17  18
ENDBRANCH  16  17
ENDBRANCH  15  16
ENDBRANCH   1  15
TORSDOF 7
ENDMDL
MODEL 3
REMARK VINA RESULT:      -8.4      4.858      6.857
REMARK  Name = Cilostazol
REMARK  7 active torsions:
REMARK  status: ('A' for Active; 'I' for Inactive)
REMARK    1  A    between atoms: C_10  and  O_11
REMARK    2  A    between atoms: O_11  and  C_12
REMARK    3  A    between atoms: C_12  and  C_13
REMARK    4  A    between atoms: C_13  and  C_14
REMARK    5  A    between atoms: C_14  and  C_15
REMARK    6  A    between atoms: C_15  and  C_16
REMARK    7  A    between atoms: N_20  and  C_21
REMARK                            x       y       z     vdW  Elec       q    Type
REMARK                         _______ _______ _______ _____ _____    ______ ____
ROOT
ATOM      1  C   UNL     1      -5.546   0.318 126.924  0.00  0.00    +0.000 C 
ENDROOT
BRANCH   1   2
ATOM      2  O   UNL     1      -5.441  -1.060 126.653  0.00  0.00    +0.000 OA
BRANCH   2  12
ATOM      3  O   UNL     1      -5.430  -5.359 132.895  0.00  0.00    +0.000 OA
ATOM      4  C   UNL     1      -5.263  -4.594 131.934  0.00  0.00    +0.000 C 
ATOM      5  C   UNL     1      -4.013  -3.763 131.772  0.00  0.00    +0.000 C 
ATOM      6  C   UNL     1      -3.652  -3.610 130.306  0.00  0.00    +0.000 C 
ATOM      7  C   UNL     1      -4.843  -3.120 129.541  0.00  0.00    +0.000 A 
ATOM      8  C   UNL     1      -6.122  -3.542 129.915  0.00  0.00    +0.000 A 
ATOM      9  N   UNL     1      -6.265  -4.372 131.031  0.00  0.00    +0.000 N 
ATOM     10  C   UNL     1      -7.239  -3.148 129.188  0.00  0.00    +0.000 A 
ATOM     11  C   UNL     1      -7.074  -2.304 128.081  0.00  0.00    +0.000 A 
ATOM     12  C   UNL     1      -5.792  -1.884 127.695  0.00  0.00    +0.000 A 
ATOM     13  C   UNL     1      -4.686  -2.308 128.420  0.00  0.00    +0.000 A 
ATOM     14  H   UNL     1      -7.148  -4.830 131.218  0.00  0.00    +0.000 HD
ENDBRANCH   2  12
ENDBRANCH   1   2
BRANCH   1  15
ATOM     15  C   UNL     1      -6.040   1.128 125.701  0.00  0.00    +0.000 C 
BRANCH  15  16
ATOM     16  C   UNL     1      -7.527   1.398 125.869  0.00  0.00    +0.000 C 
BRANCH  16  17
ATOM     17  C   UNL     1      -8.607   0.322 125.718  0.00  0.00    +0.000 C 
BRANCH  17  18
ATOM     18  C   UNL     1      -9.388   0.206 124.403  0.00  0.00    +0.000 A 
ATOM     19  N   UNL     1     -10.382   1.013 124.053  0.00  0.00    +0.000 NA
ATOM     20  N   UNL     1     -10.835   0.606 122.820  0.00  0.00    +0.000 NA
ATOM     21  N   UNL     1     -10.143  -0.430 122.388  0.00  0.00    +0.000 NA
ATOM     22  N   UNL     1      -9.237  -0.672 123.351  0.00  0.00    +0.000 N 
BRANCH  22  23
ATOM     23  C   UNL     1      -8.338  -1.794 123.179  0.00  0.00    +0.000 C 
ATOM     24  C   UNL     1      -6.894  -1.297 122.976  0.00  0.00    +0.000 C 
ATOM     25  C   UNL     1      -5.864  -2.396 123.183  0.00  0.00    +0.000 C 
ATOM     26  C   UNL     1      -6.156  -3.325 124.345  0.00  0.00    +0.000 C 
ATOM     27  C   UNL     1      -7.562  -3.883 124.437  0.00  0.00    +0.000 C 
ATOM     28  C   UNL     1      -8.667  -2.869 124.226  0.00  0.00    +0.000 C 
ENDBRANCH  22  23
ENDBRANCH  17  18
ENDBRANCH  16  17
ENDBRANCH  15  16
ENDBRANCH   1  15
TORSDOF 7
ENDMDL
MODEL 4
REMARK VINA RESULT:      -8.2      5.272      7.619
REMARK  Name = Cilostazol
REMARK  7 active torsions:
REMARK  status: ('A' for Active; 'I' for Inactive)
REMARK    1  A    between atoms: C_10  and  O_11
REMARK    2  A    between atoms: O_11  and  C_12
REMARK    3  A    between atoms: C_12  and  C_13
REMARK    4  A    between atoms: C_13  and  C_14
REMARK    5  A    between atoms: C_14  and  C_15
REMARK    6  A    between atoms: C_15  and  C_16
REMARK    7  A    between atoms: N_20  and  C_21
REMARK                            x       y       z     vdW  Elec       q    Type
REMARK                         _______ _______ _______ _____ _____    ______ ____
ROOT
ATOM      1  C   UNL     1      -7.792  -1.634 128.779  0.00  0.00    +0.000 C 
ENDROOT
BRANCH   1   2
ATOM      2  O   UNL     1      -6.918  -2.634 128.311  0.00  0.00    +0.000 OA
BRANCH   2  12
ATOM      3  O   UNL     1      -2.569  -5.092 134.011  0.00  0.00    +0.000 OA
ATOM      4  C   UNL     1      -3.414  -4.804 133.151  0.00  0.00    +0.000 C 
ATOM      5  C   UNL     1      -4.809  -5.382 133.164  0.00  0.00    +0.000 C 
ATOM      6  C   UNL     1      -5.818  -4.371 132.649  0.00  0.00    +0.000 C 
ATOM      7  C   UNL     1      -5.365  -3.836 131.325  0.00  0.00    +0.000 A 
ATOM      8  C   UNL     1      -3.999  -3.659 131.085  0.00  0.00    +0.000 A 
ATOM      9  N   UNL     1      -3.081  -4.037 132.069  0.00  0.00    +0.000 N 
ATOM     10  C   UNL     1      -3.556  -3.111 129.887  0.00  0.00    +0.000 A 
ATOM     11  C   UNL     1      -4.492  -2.752 128.908  0.00  0.00    +0.000 A 
ATOM     12  C   UNL     1      -5.865  -2.919 129.146  0.00  0.00    +0.000 A 
ATOM     13  C   UNL     1      -6.290  -3.446 130.360  0.00  0.00    +0.000 A 
ATOM     14  H   UNL     1      -2.110  -3.761 131.996  0.00  0.00    +0.000 HD
ENDBRANCH   2  12
ENDBRANCH   1   2
BRANCH   1  15
ATOM     15  C   UNL     1      -7.697  -0.328 127.954  0.00  0.00    +0.000 C 
BRANCH  15  16
ATOM     16  C   UNL     1      -8.273  -0.586 126.572  0.00  0.00    +0.000 C 
BRANCH  16  17
ATOM     17  C   UNL     1      -8.358   0.482 125.476  0.00  0.00    +0.000 C 
BRANCH  17  18
ATOM     18  C   UNL     1      -9.239   0.241 124.243  0.00  0.00    +0.000 A 
ATOM     19  N   UNL     1     -10.275   1.000 123.908  0.00  0.00    +0.000 NA
ATOM     20  N   UNL     1     -10.816   0.481 122.755  0.00  0.00    +0.000 NA
ATOM     21  N   UNL     1     -10.138  -0.579 122.359  0.00  0.00    +0.000 NA
ATOM     22  N   UNL     1      -9.153  -0.723 123.262  0.00  0.00    +0.000 N 
BRANCH  22  23
ATOM     23  C   UNL     1      -8.248  -1.843 123.114  0.00  0.00    +0.000 C 
ATOM     24  C   UNL     1      -6.804  -1.341 122.924  0.00  0.00    +0.000 C 
ATOM     25  C   UNL     1      -5.771  -2.434 123.156  0.00  0.00    +0.000 C 
ATOM     26  C   UNL     1      -6.074  -3.351 124.325  0.00  0.00    +0.000 C 
ATOM     27  C   UNL     1      -7.478  -3.914 124.406  0.00  0.00    +0.000 C 
ATOM     28  C   UNL     1      -8.585  -2.907 124.169  0.00  0.00    +0.000 C 
ENDBRANCH  22  23
ENDBRANCH  17  18
ENDBRANCH  16  17
ENDBRANCH  15  16
ENDBRANCH   1  15
TORSDOF 7
ENDMDL
MODEL 5
REMARK VINA RESULT:      -8.2      5.154      7.564
REMARK  Name = Cilostazol
REMARK  7 active torsions:
REMARK  status: ('A' for Active; 'I' for Inactive)
REMARK    1  A    between atoms: C_10  and  O_11
REMARK    2  A    between atoms: O_11  and  C_12
REMARK    3  A    between atoms: C_12  and  C_13
REMARK    4  A    between atoms: C_13  and  C_14
REMARK    5  A    between atoms: C_14  and  C_15
REMARK    6  A    between atoms: C_15  and  C_16
REMARK    7  A    between atoms: N_20  and  C_21
REMARK                            x       y       z     vdW  Elec       q    Type
REMARK                         _______ _______ _______ _____ _____    ______ ____
ROOT
ATOM      1  C   UNL     1      -8.795  -3.330 126.747  0.00  0.00    +0.000 C 
ENDROOT
BRANCH   1   2
ATOM      2  O   UNL     1      -8.234  -2.187 127.348  0.00  0.00    +0.000 OA
BRANCH   2  12
ATOM      3  O   UNL     1      -3.099  -4.261 132.523  0.00  0.00    +0.000 OA
ATOM      4  C   UNL     1      -4.060  -4.033 131.772  0.00  0.00    +0.000 C 
ATOM      5  C   UNL     1      -5.427  -4.628 132.007  0.00  0.00    +0.000 C 
ATOM      6  C   UNL     1      -6.517  -3.662 131.581  0.00  0.00    +0.000 C 
ATOM      7  C   UNL     1      -6.260  -3.196 130.181  0.00  0.00    +0.000 A 
ATOM      8  C   UNL     1      -4.944  -3.014 129.747  0.00  0.00    +0.000 A 
ATOM      9  N   UNL     1      -3.893  -3.323 130.615  0.00  0.00    +0.000 N 
ATOM     10  C   UNL     1      -4.680  -2.529 128.472  0.00  0.00    +0.000 A 
ATOM     11  C   UNL     1      -5.748  -2.238 127.613  0.00  0.00    +0.000 A 
ATOM     12  C   UNL     1      -7.071  -2.411 128.045  0.00  0.00    +0.000 A 
ATOM     13  C   UNL     1      -7.316  -2.874 129.332  0.00  0.00    +0.000 A 
ATOM     14  H   UNL     1      -2.946  -3.039 130.395  0.00  0.00    +0.000 HD
ENDBRANCH   2  12
ENDBRANCH   1   2
BRANCH   1  15
ATOM     15  C   UNL     1      -9.450  -3.021 125.379  0.00  0.00    +0.000 C 
BRANCH  15  16
ATOM     16  C   UNL     1      -8.436  -3.305 124.283  0.00  0.00    +0.000 C 
BRANCH  16  17
ATOM     17  C   UNL     1      -8.144  -2.342 123.127  0.00  0.00    +0.000 C 
BRANCH  17  18
ATOM     18  C   UNL     1      -8.942  -1.038 123.001  0.00  0.00    +0.000 A 
ATOM     19  N   UNL     1     -10.209  -0.974 122.610  0.00  0.00    +0.000 NA
ATOM     20  N   UNL     1     -10.582   0.349 122.620  0.00  0.00    +0.000 NA
ATOM     21  N   UNL     1      -9.582   1.113 123.015  0.00  0.00    +0.000 NA
ATOM     22  N   UNL     1      -8.571   0.263 123.269  0.00  0.00    +0.000 N 
BRANCH  22  23
ATOM     23  C   UNL     1      -7.302   0.815 123.694  0.00  0.00    +0.000 C 
ATOM     24  C   UNL     1      -7.240   2.320 123.373  0.00  0.00    +0.000 C 
ATOM     25  C   UNL     1      -6.130   3.033 124.130  0.00  0.00    +0.000 C 
ATOM     26  C   UNL     1      -5.962   2.589 125.570  0.00  0.00    +0.000 C 
ATOM     27  C   UNL     1      -5.912   1.096 125.824  0.00  0.00    +0.000 C 
ATOM     28  C   UNL     1      -6.968   0.289 125.097  0.00  0.00    +0.000 C 
ENDBRANCH  22  23
ENDBRANCH  17  18
ENDBRANCH  16  17
ENDBRANCH  15  16
ENDBRANCH   1  15
TORSDOF 7
ENDMDL
MODEL 6
REMARK VINA RESULT:      -8.1      3.649      9.417
REMARK  Name = Cilostazol
REMARK  7 active torsions:
REMARK  status: ('A' for Active; 'I' for Inactive)
REMARK    1  A    between atoms: C_10  and  O_11
REMARK    2  A    between atoms: O_11  and  C_12
REMARK    3  A    between atoms: C_12  and  C_13
REMARK    4  A    between atoms: C_13  and  C_14
REMARK    5  A    between atoms: C_14  and  C_15
REMARK    6  A    between atoms: C_15  and  C_16
REMARK    7  A    between atoms: N_20  and  C_21
REMARK                            x       y       z     vdW  Elec       q    Type
REMARK                         _______ _______ _______ _____ _____    ______ ____
ROOT
ATOM      1  C   UNL     1      -7.868   2.908 127.467  0.00  0.00    +0.000 C 
ENDROOT
BRANCH   1   2
ATOM      2  O   UNL     1      -7.950   1.849 126.542  0.00  0.00    +0.000 OA
BRANCH   2  12
ATOM      3  O   UNL     1      -6.759   4.423 119.514  0.00  0.00    +0.000 OA
ATOM      4  C   UNL     1      -6.764   4.001 120.680  0.00  0.00    +0.000 C 
ATOM      5  C   UNL     1      -5.494   3.784 121.466  0.00  0.00    +0.000 C 
ATOM      6  C   UNL     1      -5.709   4.090 122.937  0.00  0.00    +0.000 C 
ATOM      7  C   UNL     1      -6.904   3.337 123.440  0.00  0.00    +0.000 A 
ATOM      8  C   UNL     1      -7.995   3.134 122.591  0.00  0.00    +0.000 A 
ATOM      9  N   UNL     1      -7.927   3.592 121.273  0.00  0.00    +0.000 N 
ATOM     10  C   UNL     1      -9.138   2.489 123.050  0.00  0.00    +0.000 A 
ATOM     11  C   UNL     1      -9.180   2.025 124.372  0.00  0.00    +0.000 A 
ATOM     12  C   UNL     1      -8.090   2.234 125.231  0.00  0.00    +0.000 A 
ATOM     13  C   UNL     1      -6.967   2.902 124.761  0.00  0.00    +0.000 A 
ATOM     14  H   UNL     1      -8.758   3.615 120.695  0.00  0.00    +0.000 HD
ENDBRANCH   2  12
ENDBRANCH   1   2
BRANCH   1  15
ATOM     15  C   UNL     1      -7.891   2.418 128.935  0.00  0.00    +0.000 C 
BRANCH  15  16
ATOM     16  C   UNL     1      -8.991   3.161 129.675  0.00  0.00    +0.000 C 
BRANCH  16  17
ATOM     17  C   UNL     1      -9.171   4.682 129.623  0.00  0.00    +0.000 C 
BRANCH  17  18
ATOM     18  C   UNL     1      -9.711   5.427 130.850  0.00  0.00    +0.000 A 
ATOM     19  N   UNL     1      -9.390   5.131 132.104  0.00  0.00    +0.000 NA
ATOM     20  N   UNL     1     -10.061   6.006 132.924  0.00  0.00    +0.000 NA
ATOM     21  N   UNL     1     -10.788   6.847 132.214  0.00  0.00    +0.000 NA
ATOM     22  N   UNL     1     -10.564   6.508 130.932  0.00  0.00    +0.000 N 
BRANCH  22  23
ATOM     23  C   UNL     1     -11.263   7.240 129.898  0.00  0.00    +0.000 C 
ATOM     24  C   UNL     1     -10.256   7.901 128.936  0.00  0.00    +0.000 C 
ATOM     25  C   UNL     1     -10.899   8.342 127.630  0.00  0.00    +0.000 C 
ATOM     26  C   UNL     1     -11.913   7.366 127.064  0.00  0.00    +0.000 C 
ATOM     27  C   UNL     1     -12.957   6.832 128.023  0.00  0.00    +0.000 C 
ATOM     28  C   UNL     1     -12.420   6.382 129.366  0.00  0.00    +0.000 C 
ENDBRANCH  22  23
ENDBRANCH  17  18
ENDBRANCH  16  17
ENDBRANCH  15  16
ENDBRANCH   1  15
TORSDOF 7
ENDMDL
MODEL 7
REMARK VINA RESULT:      -8.1      1.696      2.281
REMARK  Name = Cilostazol
REMARK  7 active torsions:
REMARK  status: ('A' for Active; 'I' for Inactive)
REMARK    1  A    between atoms: C_10  and  O_11
REMARK    2  A    between atoms: O_11  and  C_12
REMARK    3  A    between atoms: C_12  and  C_13
REMARK    4  A    between atoms: C_13  and  C_14
REMARK    5  A    between atoms: C_14  and  C_15
REMARK    6  A    between atoms: C_15  and  C_16
REMARK    7  A    between atoms: N_20  and  C_21
REMARK                            x       y       z     vdW  Elec       q    Type
REMARK                         _______ _______ _______ _____ _____    ______ ____
ROOT
ATOM      1  C   UNL     1      -7.669  -1.389 128.711  0.00  0.00    +0.000 C 
ENDROOT
BRANCH   1   2
ATOM      2  O   UNL     1      -6.976  -0.476 129.528  0.00  0.00    +0.000 OA
BRANCH   2  12
ATOM      3  O   UNL     1     -10.701   5.717 131.810  0.00  0.00    +0.000 OA
ATOM      4  C   UNL     1     -10.058   4.801 131.277  0.00  0.00    +0.000 C 
ATOM      5  C   UNL     1      -9.435   4.942 129.909  0.00  0.00    +0.000 C 
ATOM      6  C   UNL     1      -8.128   4.174 129.829  0.00  0.00    +0.000 C 
ATOM      7  C   UNL     1      -8.342   2.764 130.287  0.00  0.00    +0.000 A 
ATOM      8  C   UNL     1      -9.254   2.505 131.314  0.00  0.00    +0.000 A 
ATOM      9  N   UNL     1      -9.986   3.565 131.856  0.00  0.00    +0.000 N 
ATOM     10  C   UNL     1      -9.429   1.213 131.796  0.00  0.00    +0.000 A 
ATOM     11  C   UNL     1      -8.695   0.163 131.229  0.00  0.00    +0.000 A 
ATOM     12  C   UNL     1      -7.772   0.418 130.203  0.00  0.00    +0.000 A 
ATOM     13  C   UNL     1      -7.593   1.719 129.751  0.00  0.00    +0.000 A 
ATOM     14  H   UNL     1     -10.517   3.437 132.709  0.00  0.00    +0.000 HD
ENDBRANCH   2  12
ENDBRANCH   1   2
BRANCH   1  15
ATOM     15  C   UNL     1      -7.421  -1.145 127.203  0.00  0.00    +0.000 C 
BRANCH  15  16
ATOM     16  C   UNL     1      -8.497  -0.206 126.682  0.00  0.00    +0.000 C 
BRANCH  16  17
ATOM     17  C   UNL     1      -8.352   0.625 125.403  0.00  0.00    +0.000 C 
BRANCH  17  18
ATOM     18  C   UNL     1      -9.263   0.341 124.202  0.00  0.00    +0.000 A 
ATOM     19  N   UNL     1     -10.312   1.085 123.871  0.00  0.00    +0.000 NA
ATOM     20  N   UNL     1     -10.880   0.528 122.750  0.00  0.00    +0.000 NA
ATOM     21  N   UNL     1     -10.207  -0.540 122.368  0.00  0.00    +0.000 NA
ATOM     22  N   UNL     1      -9.198  -0.652 123.249  0.00  0.00    +0.000 N 
BRANCH  22  23
ATOM     23  C   UNL     1      -8.290  -1.772 123.111  0.00  0.00    +0.000 C 
ATOM     24  C   UNL     1      -6.841  -1.270 122.963  0.00  0.00    +0.000 C 
ATOM     25  C   UNL     1      -5.816  -2.367 123.209  0.00  0.00    +0.000 C 
ATOM     26  C   UNL     1      -6.150  -3.296 124.360  0.00  0.00    +0.000 C 
ATOM     27  C   UNL     1      -7.556  -3.858 124.399  0.00  0.00    +0.000 C 
ATOM     28  C   UNL     1      -8.655  -2.847 124.145  0.00  0.00    +0.000 C 
ENDBRANCH  22  23
ENDBRANCH  17  18
ENDBRANCH  16  17
ENDBRANCH  15  16
ENDBRANCH   1  15
TORSDOF 7
ENDMDL
MODEL 8
REMARK VINA RESULT:      -8.1      4.467      6.713
REMARK  Name = Cilostazol
REMARK  7 active torsions:
REMARK  status: ('A' for Active; 'I' for Inactive)
REMARK    1  A    between atoms: C_10  and  O_11
REMARK    2  A    between atoms: O_11  and  C_12
REMARK    3  A    between atoms: C_12  and  C_13
REMARK    4  A    between atoms: C_13  and  C_14
REMARK    5  A    between atoms: C_14  and  C_15
REMARK    6  A    between atoms: C_15  and  C_16
REMARK    7  A    between atoms: N_20  and  C_21
REMARK                            x       y       z     vdW  Elec       q    Type
REMARK                         _______ _______ _______ _____ _____    ______ ____
ROOT
ATOM      1  C   UNL     1      -7.243   1.381 126.979  0.00  0.00    +0.000 C 
ENDROOT
BRANCH   1   2
ATOM      2  O   UNL     1      -6.676   2.516 126.369  0.00  0.00    +0.000 OA
BRANCH   2  12
ATOM      3  O   UNL     1      -7.145   4.310 119.020  0.00  0.00    +0.000 OA
ATOM      4  C   UNL     1      -6.881   4.010 120.194  0.00  0.00    +0.000 C 
ATOM      5  C   UNL     1      -5.463   3.831 120.681  0.00  0.00    +0.000 C 
ATOM      6  C   UNL     1      -5.323   4.294 122.120  0.00  0.00    +0.000 C 
ATOM      7  C   UNL     1      -6.373   3.640 122.965  0.00  0.00    +0.000 A 
ATOM      8  C   UNL     1      -7.636   3.388 122.421  0.00  0.00    +0.000 A 
ATOM      9  N   UNL     1      -7.875   3.705 121.081  0.00  0.00    +0.000 N 
ATOM     10  C   UNL     1      -8.645   2.834 123.201  0.00  0.00    +0.000 A 
ATOM     11  C   UNL     1      -8.380   2.511 124.538  0.00  0.00    +0.000 A 
ATOM     12  C   UNL     1      -7.117   2.769 125.092  0.00  0.00    +0.000 A 
ATOM     13  C   UNL     1      -6.129   3.345 124.304  0.00  0.00    +0.000 A 
ATOM     14  H   UNL     1      -8.818   3.698 120.714  0.00  0.00    +0.000 HD
ENDBRANCH   2  12
ENDBRANCH   1   2
BRANCH   1  15
ATOM     15  C   UNL     1      -7.265   1.484 128.523  0.00  0.00    +0.000 C 
BRANCH  15  16
ATOM     16  C   UNL     1      -7.759   0.163 129.089  0.00  0.00    +0.000 C 
BRANCH  16  17
ATOM     17  C   UNL     1      -7.061  -1.179 128.843  0.00  0.00    +0.000 C 
BRANCH  17  18
ATOM     18  C   UNL     1      -7.788  -2.285 128.067  0.00  0.00    +0.000 A 
ATOM     19  N   UNL     1      -8.557  -3.208 128.631  0.00  0.00    +0.000 NA
ATOM     20  N   UNL     1      -9.034  -4.021 127.629  0.00  0.00    +0.000 NA
ATOM     21  N   UNL     1      -8.588  -3.623 126.454  0.00  0.00    +0.000 NA
ATOM     22  N   UNL     1      -7.832  -2.542 126.713  0.00  0.00    +0.000 N 
BRANCH  22  23
ATOM     23  C   UNL     1      -7.164  -1.891 125.606  0.00  0.00    +0.000 C 
ATOM     24  C   UNL     1      -6.049  -2.795 125.048  0.00  0.00    +0.000 C 
ATOM     25  C   UNL     1      -5.581  -2.361 123.667  0.00  0.00    +0.000 C 
ATOM     26  C   UNL     1      -6.692  -1.917 122.735  0.00  0.00    +0.000 C 
ATOM     27  C   UNL     1      -7.701  -0.934 123.294  0.00  0.00    +0.000 C 
ATOM     28  C   UNL     1      -8.217  -1.266 124.678  0.00  0.00    +0.000 C 
ENDBRANCH  22  23
ENDBRANCH  17  18
ENDBRANCH  16  17
ENDBRANCH  15  16
ENDBRANCH   1  15
TORSDOF 7
ENDMDL
MODEL 9
REMARK VINA RESULT:      -8.0      1.697      2.624
REMARK  Name = Cilostazol
REMARK  7 active torsions:
REMARK  status: ('A' for Active; 'I' for Inactive)
REMARK    1  A    between atoms: C_10  and  O_11
REMARK    2  A    between atoms: O_11  and  C_12
REMARK    3  A    between atoms: C_12  and  C_13
REMARK    4  A    between atoms: C_13  and  C_14
REMARK    5  A    between atoms: C_14  and  C_15
REMARK    6  A    between atoms: C_15  and  C_16
REMARK    7  A    between atoms: N_20  and  C_21
REMARK                            x       y       z     vdW  Elec       q    Type
REMARK                         _______ _______ _______ _____ _____    ______ ____
ROOT
ATOM      1  C   UNL     1      -8.300   3.999 129.470  0.00  0.00    +0.000 C 
ENDROOT
BRANCH   1   2
ATOM      2  O   UNL     1      -8.828   4.324 130.734  0.00  0.00    +0.000 OA
BRANCH   2  12
ATOM      3  O   UNL     1     -13.523   9.937 128.763  0.00  0.00    +0.000 OA
ATOM      4  C   UNL     1     -12.723   9.000 128.899  0.00  0.00    +0.000 C 
ATOM      5  C   UNL     1     -12.024   8.358 127.725  0.00  0.00    +0.000 C 
ATOM      6  C   UNL     1     -10.623   7.917 128.105  0.00  0.00    +0.000 C 
ATOM      7  C   UNL     1     -10.676   7.080 129.347  0.00  0.00    +0.000 A 
ATOM      8  C   UNL     1     -11.618   7.377 130.336  0.00  0.00    +0.000 A 
ATOM      9  N   UNL     1     -12.527   8.417 130.120  0.00  0.00    +0.000 N 
ATOM     10  C   UNL     1     -11.651   6.652 131.522  0.00  0.00    +0.000 A 
ATOM     11  C   UNL     1     -10.741   5.605 131.712  0.00  0.00    +0.000 A 
ATOM     12  C   UNL     1      -9.787   5.308 130.727  0.00  0.00    +0.000 A 
ATOM     13  C   UNL     1      -9.754   6.059 129.559  0.00  0.00    +0.000 A 
ATOM     14  H   UNL     1     -13.097   8.765 130.881  0.00  0.00    +0.000 HD
ENDBRANCH   2  12
ENDBRANCH   1   2
BRANCH   1  15
ATOM     15  C   UNL     1      -7.856   2.520 129.374  0.00  0.00    +0.000 C 
BRANCH  15  16
ATOM     16  C   UNL     1      -8.577   1.873 128.202  0.00  0.00    +0.000 C 
BRANCH  16  17
ATOM     17  C   UNL     1      -7.984   1.771 126.793  0.00  0.00    +0.000 C 
BRANCH  17  18
ATOM     18  C   UNL     1      -8.847   1.245 125.639  0.00  0.00    +0.000 A 
ATOM     19  N   UNL     1      -9.740   1.975 124.984  0.00  0.00    +0.000 NA
ATOM     20  N   UNL     1     -10.313   1.172 124.026  0.00  0.00    +0.000 NA
ATOM     21  N   UNL     1      -9.794  -0.040 124.062  0.00  0.00    +0.000 NA
ATOM     22  N   UNL     1      -8.875   0.002 125.043  0.00  0.00    +0.000 N 
BRANCH  22  23
ATOM     23  C   UNL     1      -8.148  -1.211 125.352  0.00  0.00    +0.000 C 
ATOM     24  C   UNL     1      -9.124  -2.390 125.526  0.00  0.00    +0.000 C 
ATOM     25  C   UNL     1      -8.427  -3.740 125.459  0.00  0.00    +0.000 C 
ATOM     26  C   UNL     1      -7.347  -3.840 124.399  0.00  0.00    +0.000 C 
ATOM     27  C   UNL     1      -6.338  -2.712 124.342  0.00  0.00    +0.000 C 
ATOM     28  C   UNL     1      -6.931  -1.320 124.423  0.00  0.00    +0.000 C 
ENDBRANCH  22  23
ENDBRANCH  17  18
ENDBRANCH  16  17
ENDBRANCH  15  16
ENDBRANCH   1  15
TORSDOF 7
ENDMDL
