MODEL 1
REMARK VINA RESULT:      -5.7      0.000      0.000
REMARK  Name = Cimetidine
REMARK  8 active torsions:
REMARK  status: ('A' for Active; 'I' for Inactive)
REMARK    1  A    between atoms: C_1  and  N_2
REMARK    2  A    between atoms: N_4  and  C_5
REMARK    3  A    between atoms: C_5  and  C_6
REMARK    4  A    between atoms: C_6  and  S_7
REMARK    5  A    between atoms: S_7  and  C_8
REMARK    6  A    between atoms: C_8  and  C_9
REMARK    7  A    between atoms: C_10  and  C_11
REMARK    8  A    between atoms: N_15  and  C_16
REMARK                            x       y       z     vdW  Elec       q    Type
REMARK                         _______ _______ _______ _____ _____    ______ ____
ROOT
ATOM      1  C   UNL     1     -12.694   7.157 130.313  0.00  0.00    +0.000 C 
ENDROOT
BRANCH   1   5
ATOM      2  C   UNL     1     -13.205   9.870 129.804  0.00  0.00    +0.000 C 
ATOM      3  N   UNL     1     -12.371   9.558 128.670  0.00  0.00    +0.000 N 
ATOM      4  C   UNL     1     -11.764   8.380 128.302  0.00  0.00    +0.000 C 
ATOM      5  N   UNL     1     -11.924   7.273 129.098  0.00  0.00    +0.000 N 
ATOM      6  N   UNL     1     -11.060   8.393 127.201  0.00  0.00    +0.000 NA
ATOM      7  H   UNL     1     -12.212  10.337 128.038  0.00  0.00    +0.000 HD
ATOM      8  H   UNL     1     -11.475   6.418 128.794  0.00  0.00    +0.000 HD
BRANCH   6   9
ATOM      9  C   UNL     1     -10.453   7.267 126.810  0.00  0.00    +0.000 C 
ATOM     10  N   UNL     1      -9.882   6.311 126.460  0.00  0.00    +0.000 NA
ENDBRANCH   6   9
ENDBRANCH   1   5
BRANCH   1  11
ATOM     11  C   UNL     1     -11.948   6.598 131.516  0.00  0.00    +0.000 C 
BRANCH  11  12
ATOM     12  S   UNL     1     -10.492   5.787 130.788  0.00  0.00    +0.000 S 
BRANCH  12  13
ATOM     13  C   UNL     1     -11.054   4.073 130.469  0.00  0.00    +0.000 C 
BRANCH  13  14
ATOM     14  C   UNL     1      -9.854   3.158 130.399  0.00  0.00    +0.000 A 
ATOM     15  C   UNL     1      -9.143   2.568 131.435  0.00  0.00    +0.000 A 
ATOM     16  C   UNL     1      -9.301   2.614 132.907  0.00  0.00    +0.000 C 
ATOM     17  N   UNL     1      -8.176   1.810 130.826  0.00  0.00    +0.000 N 
ATOM     18  C   UNL     1      -8.299   1.987 129.479  0.00  0.00    +0.000 A 
ATOM     19  N   UNL     1      -9.295   2.793 129.187  0.00  0.00    +0.000 NA
ATOM     20  H   UNL     1      -7.494   1.227 131.291  0.00  0.00    +0.000 HD
ENDBRANCH  13  14
ENDBRANCH  12  13
ENDBRANCH  11  12
ENDBRANCH   1  11
TORSDOF 6
ENDMDL
MODEL 2
REMARK VINA RESULT:      -5.4      8.042      9.089
REMARK  Name = Cimetidine
REMARK  8 active torsions:
REMARK  status: ('A' for Active; 'I' for Inactive)
REMARK    1  A    between atoms: C_1  and  N_2
REMARK    2  A    between atoms: N_4  and  C_5
REMARK    3  A    between atoms: C_5  and  C_6
REMARK    4  A    between atoms: C_6  and  S_7
REMARK    5  A    between atoms: S_7  and  C_8
REMARK    6  A    between atoms: C_8  and  C_9
REMARK    7  A    between atoms: C_10  and  C_11
REMARK    8  A    between atoms: N_15  and  C_16
REMARK                            x       y       z     vdW  Elec       q    Type
REMARK                         _______ _______ _______ _____ _____    ______ ____
ROOT
ATOM      1  C   UNL     1      -7.771   2.985 123.084  0.00  0.00    +0.000 C 
ENDROOT
BRANCH   1   5
ATOM      2  C   UNL     1      -5.890   3.474 125.110  0.00  0.00    +0.000 C 
ATOM      3  N   UNL     1      -5.231   4.115 123.999  0.00  0.00    +0.000 N 
ATOM      4  C   UNL     1      -5.613   4.245 122.685  0.00  0.00    +0.000 C 
ATOM      5  N   UNL     1      -6.805   3.696 122.282  0.00  0.00    +0.000 N 
ATOM      6  N   UNL     1      -4.801   4.893 121.891  0.00  0.00    +0.000 NA
ATOM      7  H   UNL     1      -4.339   4.543 124.231  0.00  0.00    +0.000 HD
ATOM      8  H   UNL     1      -7.064   3.819 121.311  0.00  0.00    +0.000 HD
BRANCH   6   9
ATOM      9  C   UNL     1      -5.137   5.040 120.605  0.00  0.00    +0.000 C 
ATOM     10  N   UNL     1      -5.407   5.212 119.483  0.00  0.00    +0.000 NA
ENDBRANCH   6   9
ENDBRANCH   1   5
BRANCH   1  11
ATOM     11  C   UNL     1      -9.017   2.510 122.350  0.00  0.00    +0.000 C 
BRANCH  11  12
ATOM     12  S   UNL     1      -9.607   1.112 123.352  0.00  0.00    +0.000 S 
BRANCH  12  13
ATOM     13  C   UNL     1      -8.071   0.340 123.985  0.00  0.00    +0.000 C 
BRANCH  13  14
ATOM     14  C   UNL     1      -8.252  -1.157 124.047  0.00  0.00    +0.000 A 
ATOM     15  C   UNL     1      -7.398  -2.160 123.608  0.00  0.00    +0.000 A 
ATOM     16  C   UNL     1      -6.066  -2.125 122.962  0.00  0.00    +0.000 C 
ATOM     17  N   UNL     1      -8.022  -3.337 123.934  0.00  0.00    +0.000 N 
ATOM     18  C   UNL     1      -9.220  -3.025 124.508  0.00  0.00    +0.000 A 
ATOM     19  N   UNL     1      -9.392  -1.724 124.590  0.00  0.00    +0.000 NA
ATOM     20  H   UNL     1      -7.662  -4.268 123.776  0.00  0.00    +0.000 HD
ENDBRANCH  13  14
ENDBRANCH  12  13
ENDBRANCH  11  12
ENDBRANCH   1  11
TORSDOF 6
ENDMDL
MODEL 3
REMARK VINA RESULT:      -5.2      7.445      8.616
REMARK  Name = Cimetidine
REMARK  8 active torsions:
REMARK  status: ('A' for Active; 'I' for Inactive)
REMARK    1  A    between atoms: C_1  and  N_2
REMARK    2  A    between atoms: N_4  and  C_5
REMARK    3  A    between atoms: C_5  and  C_6
REMARK    4  A    between atoms: C_6  and  S_7
REMARK    5  A    between atoms: S_7  and  C_8
REMARK    6  A    between atoms: C_8  and  C_9
REMARK    7  A    between atoms: C_10  and  C_11
REMARK    8  A    between atoms: N_15  and  C_16
REMARK                            x       y       z     vdW  Elec       q    Type
REMARK                         _______ _______ _______ _____ _____    ______ ____
ROOT
ATOM      1  C   UNL     1      -6.578   1.560 124.988  0.00  0.00    +0.000 C 
ENDROOT
BRANCH   1   5
ATOM      2  C   UNL     1      -6.156   4.030 123.722  0.00  0.00    +0.000 C 
ATOM      3  N   UNL     1      -7.358   3.608 123.047  0.00  0.00    +0.000 N 
ATOM      4  C   UNL     1      -8.111   2.466 123.190  0.00  0.00    +0.000 C 
ATOM      5  N   UNL     1      -7.715   1.518 124.101  0.00  0.00    +0.000 N 
ATOM      6  N   UNL     1      -9.172   2.355 122.434  0.00  0.00    +0.000 NA
ATOM      7  H   UNL     1      -7.706   4.267 122.357  0.00  0.00    +0.000 HD
ATOM      8  H   UNL     1      -8.297   0.694 124.191  0.00  0.00    +0.000 HD
BRANCH   6   9
ATOM      9  C   UNL     1      -9.930   1.259 122.543  0.00  0.00    +0.000 C 
ATOM     10  N   UNL     1     -10.599   0.313 122.685  0.00  0.00    +0.000 NA
ENDBRANCH   6   9
ENDBRANCH   1   5
BRANCH   1  11
ATOM     11  C   UNL     1      -6.822   1.044 126.398  0.00  0.00    +0.000 C 
BRANCH  11  12
ATOM     12  S   UNL     1      -8.504   0.356 126.326  0.00  0.00    +0.000 S 
BRANCH  12  13
ATOM     13  C   UNL     1      -8.250  -1.453 126.463  0.00  0.00    +0.000 C 
BRANCH  13  14
ATOM     14  C   UNL     1      -8.432  -2.088 125.106  0.00  0.00    +0.000 A 
ATOM     15  C   UNL     1      -7.502  -2.260 124.089  0.00  0.00    +0.000 A 
ATOM     16  C   UNL     1      -6.068  -1.907 123.978  0.00  0.00    +0.000 C 
ATOM     17  N   UNL     1      -8.173  -2.920 123.092  0.00  0.00    +0.000 N 
ATOM     18  C   UNL     1      -9.462  -3.091 123.502  0.00  0.00    +0.000 A 
ATOM     19  N   UNL     1      -9.654  -2.601 124.707  0.00  0.00    +0.000 NA
ATOM     20  H   UNL     1      -7.784  -3.224 122.210  0.00  0.00    +0.000 HD
ENDBRANCH  13  14
ENDBRANCH  12  13
ENDBRANCH  11  12
ENDBRANCH   1  11
TORSDOF 6
ENDMDL
MODEL 4
REMARK VINA RESULT:      -5.2      6.862      8.523
REMARK  Name = Cimetidine
REMARK  8 active torsions:
REMARK  status: ('A' for Active; 'I' for Inactive)
REMARK    1  A    between atoms: C_1  and  N_2
REMARK    2  A    between atoms: N_4  and  C_5
REMARK    3  A    between atoms: C_5  and  C_6
REMARK    4  A    between atoms: C_6  and  S_7
REMARK    5  A    between atoms: S_7  and  C_8
REMARK    6  A    between atoms: C_8  and  C_9
REMARK    7  A    between atoms: C_10  and  C_11
REMARK    8  A    between atoms: N_15  and  C_16
REMARK                            x       y       z     vdW  Elec       q    Type
REMARK                         _______ _______ _______ _____ _____    ______ ____
ROOT
ATOM      1  C   UNL     1      -6.459   3.997 124.506  0.00  0.00    +0.000 C 
ENDROOT
BRANCH   1   5
ATOM      2  C   UNL     1      -7.200   1.554 123.339  0.00  0.00    +0.000 C 
ATOM      3  N   UNL     1      -6.628   2.213 122.192  0.00  0.00    +0.000 N 
ATOM      4  C   UNL     1      -6.066   3.461 122.064  0.00  0.00    +0.000 C 
ATOM      5  N   UNL     1      -6.011   4.281 123.164  0.00  0.00    +0.000 N 
ATOM      6  N   UNL     1      -5.617   3.793 120.881  0.00  0.00    +0.000 NA
ATOM      7  H   UNL     1      -6.638   1.659 121.341  0.00  0.00    +0.000 HD
ATOM      8  H   UNL     1      -5.581   5.189 123.040  0.00  0.00    +0.000 HD
BRANCH   6   9
ATOM      9  C   UNL     1      -5.066   5.000 120.716  0.00  0.00    +0.000 C 
ATOM     10  N   UNL     1      -4.567   6.051 120.619  0.00  0.00    +0.000 NA
ENDBRANCH   6   9
ENDBRANCH   1   5
BRANCH   1  11
ATOM     11  C   UNL     1      -5.701   4.707 125.618  0.00  0.00    +0.000 C 
BRANCH  11  12
ATOM     12  S   UNL     1      -6.545   4.166 127.136  0.00  0.00    +0.000 S 
BRANCH  12  13
ATOM     13  C   UNL     1      -5.181   3.631 128.235  0.00  0.00    +0.000 C 
BRANCH  13  14
ATOM     14  C   UNL     1      -4.083   4.666 128.210  0.00  0.00    +0.000 A 
ATOM     15  C   UNL     1      -2.777   4.545 127.753  0.00  0.00    +0.000 A 
ATOM     16  C   UNL     1      -2.032   3.417 127.149  0.00  0.00    +0.000 C 
ATOM     17  N   UNL     1      -2.216   5.784 127.925  0.00  0.00    +0.000 N 
ATOM     18  C   UNL     1      -3.156   6.589 128.500  0.00  0.00    +0.000 A 
ATOM     19  N   UNL     1      -4.289   5.949 128.688  0.00  0.00    +0.000 NA
ATOM     20  H   UNL     1      -1.276   6.054 127.673  0.00  0.00    +0.000 HD
ENDBRANCH  13  14
ENDBRANCH  12  13
ENDBRANCH  11  12
ENDBRANCH   1  11
TORSDOF 6
ENDMDL
MODEL 5
REMARK VINA RESULT:      -5.1      7.059      8.316
REMARK  Name = Cimetidine
REMARK  8 active torsions:
REMARK  status: ('A' for Active; 'I' for Inactive)
REMARK    1  A    between atoms: C_1  and  N_2
REMARK    2  A    between atoms: N_4  and  C_5
REMARK    3  A    between atoms: C_5  and  C_6
REMARK    4  A    between atoms: C_6  and  S_7
REMARK    5  A    between atoms: S_7  and  C_8
REMARK    6  A    between atoms: C_8  and  C_9
REMARK    7  A    between atoms: C_10  and  C_11
REMARK    8  A    between atoms: N_15  and  C_16
REMARK                            x       y       z     vdW  Elec       q    Type
REMARK                         _______ _______ _______ _____ _____    ______ ____
ROOT
ATOM      1  C   UNL     1      -5.868   4.077 122.964  0.00  0.00    +0.000 C 
ENDROOT
BRANCH   1   5
ATOM      2  C   UNL     1      -6.946   4.205 120.375  0.00  0.00    +0.000 C 
ATOM      3  N   UNL     1      -8.016   3.519 121.055  0.00  0.00    +0.000 N 
ATOM      4  C   UNL     1      -8.139   3.130 122.368  0.00  0.00    +0.000 C 
ATOM      5  N   UNL     1      -7.110   3.395 123.238  0.00  0.00    +0.000 N 
ATOM      6  N   UNL     1      -9.244   2.520 122.707  0.00  0.00    +0.000 NA
ATOM      7  H   UNL     1      -8.811   3.293 120.466  0.00  0.00    +0.000 HD
ATOM      8  H   UNL     1      -7.235   3.107 124.201  0.00  0.00    +0.000 HD
BRANCH   6   9
ATOM      9  C   UNL     1      -9.400   2.124 123.975  0.00  0.00    +0.000 C 
ATOM     10  N   UNL     1      -9.487   1.771 125.084  0.00  0.00    +0.000 NA
ENDBRANCH   6   9
ENDBRANCH   1   5
BRANCH   1  11
ATOM     11  C   UNL     1      -5.143   4.640 124.177  0.00  0.00    +0.000 C 
BRANCH  11  12
ATOM     12  S   UNL     1      -6.322   4.401 125.541  0.00  0.00    +0.000 S 
BRANCH  12  13
ATOM     13  C   UNL     1      -5.320   3.617 126.859  0.00  0.00    +0.000 C 
BRANCH  13  14
ATOM     14  C   UNL     1      -4.222   4.563 127.282  0.00  0.00    +0.000 A 
ATOM     15  C   UNL     1      -2.851   4.348 127.324  0.00  0.00    +0.000 A 
ATOM     16  C   UNL     1      -2.013   3.176 126.978  0.00  0.00    +0.000 C 
ATOM     17  N   UNL     1      -2.310   5.535 127.746  0.00  0.00    +0.000 N 
ATOM     18  C   UNL     1      -3.339   6.399 127.980  0.00  0.00    +0.000 A 
ATOM     19  N   UNL     1      -4.503   5.848 127.714  0.00  0.00    +0.000 NA
ATOM     20  H   UNL     1      -1.327   5.734 127.865  0.00  0.00    +0.000 HD
ENDBRANCH  13  14
ENDBRANCH  12  13
ENDBRANCH  11  12
ENDBRANCH   1  11
TORSDOF 6
ENDMDL
MODEL 6
REMARK VINA RESULT:      -5.0      6.360      8.551
REMARK  Name = Cimetidine
REMARK  8 active torsions:
REMARK  status: ('A' for Active; 'I' for Inactive)
REMARK    1  A    between atoms: C_1  and  N_2
REMARK    2  A    between atoms: N_4  and  C_5
REMARK    3  A    between atoms: C_5  and  C_6
REMARK    4  A    between atoms: C_6  and  S_7
REMARK    5  A    between atoms: S_7  and  C_8
REMARK    6  A    between atoms: C_8  and  C_9
REMARK    7  A    between atoms: C_10  and  C_11
REMARK    8  A    between atoms: N_15  and  C_16
REMARK                            x       y       z     vdW  Elec       q    Type
REMARK                         _______ _______ _______ _____ _____    ______ ____
ROOT
ATOM      1  C   UNL     1      -7.750   0.397 125.021  0.00  0.00    +0.000 C 
ENDROOT
BRANCH   1   5
ATOM      2  C   UNL     1      -9.920   1.005 123.347  0.00  0.00    +0.000 C 
ATOM      3  N   UNL     1      -9.647   2.315 123.885  0.00  0.00    +0.000 N 
ATOM      4  C   UNL     1      -8.694   2.733 124.784  0.00  0.00    +0.000 C 
ATOM      5  N   UNL     1      -7.825   1.809 125.308  0.00  0.00    +0.000 N 
ATOM      6  N   UNL     1      -8.681   4.005 125.087  0.00  0.00    +0.000 NA
ATOM      7  H   UNL     1     -10.258   3.048 123.536  0.00  0.00    +0.000 HD
ATOM      8  H   UNL     1      -7.128   2.150 125.959  0.00  0.00    +0.000 HD
BRANCH   6   9
ATOM      9  C   UNL     1      -7.770   4.450 125.960  0.00  0.00    +0.000 C 
ATOM     10  N   UNL     1      -6.963   4.791 126.730  0.00  0.00    +0.000 NA
ENDBRANCH   6   9
ENDBRANCH   1   5
BRANCH   1  11
ATOM     11  C   UNL     1      -6.347  -0.186 124.938  0.00  0.00    +0.000 C 
BRANCH  11  12
ATOM     12  S   UNL     1      -6.434  -1.333 123.529  0.00  0.00    +0.000 S 
BRANCH  12  13
ATOM     13  C   UNL     1      -6.523  -2.988 124.310  0.00  0.00    +0.000 C 
BRANCH  13  14
ATOM     14  C   UNL     1      -7.802  -3.097 125.105  0.00  0.00    +0.000 A 
ATOM     15  C   UNL     1      -9.109  -3.203 124.649  0.00  0.00    +0.000 A 
ATOM     16  C   UNL     1      -9.690  -3.252 123.287  0.00  0.00    +0.000 C 
ATOM     17  N   UNL     1      -9.880  -3.308 125.778  0.00  0.00    +0.000 N 
ATOM     18  C   UNL     1      -9.049  -3.226 126.856  0.00  0.00    +0.000 A 
ATOM     19  N   UNL     1      -7.793  -3.097 126.489  0.00  0.00    +0.000 NA
ATOM     20  H   UNL     1     -10.883  -3.423 125.807  0.00  0.00    +0.000 HD
ENDBRANCH  13  14
ENDBRANCH  12  13
ENDBRANCH  11  12
ENDBRANCH   1  11
TORSDOF 6
ENDMDL
MODEL 7
REMARK VINA RESULT:      -4.9      7.210      8.650
REMARK  Name = Cimetidine
REMARK  8 active torsions:
REMARK  status: ('A' for Active; 'I' for Inactive)
REMARK    1  A    between atoms: C_1  and  N_2
REMARK    2  A    between atoms: N_4  and  C_5
REMARK    3  A    between atoms: C_5  and  C_6
REMARK    4  A    between atoms: C_6  and  S_7
REMARK    5  A    between atoms: S_7  and  C_8
REMARK    6  A    between atoms: C_8  and  C_9
REMARK    7  A    between atoms: C_10  and  C_11
REMARK    8  A    between atoms: N_15  and  C_16
REMARK                            x       y       z     vdW  Elec       q    Type
REMARK                         _______ _______ _______ _____ _____    ______ ____
ROOT
ATOM      1  C   UNL     1      -8.175   3.418 124.699  0.00  0.00    +0.000 C 
ENDROOT
BRANCH   1   5
ATOM      2  C   UNL     1      -6.069   4.530 126.185  0.00  0.00    +0.000 C 
ATOM      3  N   UNL     1      -5.519   4.640 124.856  0.00  0.00    +0.000 N 
ATOM      4  C   UNL     1      -6.041   4.273 123.639  0.00  0.00    +0.000 C 
ATOM      5  N   UNL     1      -7.285   3.692 123.597  0.00  0.00    +0.000 N 
ATOM      6  N   UNL     1      -5.305   4.502 122.583  0.00  0.00    +0.000 NA
ATOM      7  H   UNL     1      -4.597   5.062 124.817  0.00  0.00    +0.000 HD
ATOM      8  H   UNL     1      -7.647   3.444 122.684  0.00  0.00    +0.000 HD
BRANCH   6   9
ATOM      9  C   UNL     1      -5.778   4.159 121.380  0.00  0.00    +0.000 C 
ATOM     10  N   UNL     1      -6.177   3.811 120.340  0.00  0.00    +0.000 NA
ENDBRANCH   6   9
ENDBRANCH   1   5
BRANCH   1  11
ATOM     11  C   UNL     1      -8.431   1.947 124.990  0.00  0.00    +0.000 C 
BRANCH  11  12
ATOM     12  S   UNL     1      -7.294   1.076 123.869  0.00  0.00    +0.000 S 
BRANCH  12  13
ATOM     13  C   UNL     1      -8.278  -0.342 123.254  0.00  0.00    +0.000 C 
BRANCH  13  14
ATOM     14  C   UNL     1      -7.650  -1.630 123.728  0.00  0.00    +0.000 A 
ATOM     15  C   UNL     1      -8.217  -2.893 123.833  0.00  0.00    +0.000 A 
ATOM     16  C   UNL     1      -9.571  -3.408 123.525  0.00  0.00    +0.000 C 
ATOM     17  N   UNL     1      -7.209  -3.708 124.280  0.00  0.00    +0.000 N 
ATOM     18  C   UNL     1      -6.102  -2.933 124.467  0.00  0.00    +0.000 A 
ATOM     19  N   UNL     1      -6.331  -1.679 124.147  0.00  0.00    +0.000 NA
ATOM     20  H   UNL     1      -7.273  -4.703 124.444  0.00  0.00    +0.000 HD
ENDBRANCH  13  14
ENDBRANCH  12  13
ENDBRANCH  11  12
ENDBRANCH   1  11
TORSDOF 6
ENDMDL
MODEL 8
REMARK VINA RESULT:      -4.9      4.569      6.214
REMARK  Name = Cimetidine
REMARK  8 active torsions:
REMARK  status: ('A' for Active; 'I' for Inactive)
REMARK    1  A    between atoms: C_1  and  N_2
REMARK    2  A    between atoms: N_4  and  C_5
REMARK    3  A    between atoms: C_5  and  C_6
REMARK    4  A    between atoms: C_6  and  S_7
REMARK    5  A    between atoms: S_7  and  C_8
REMARK    6  A    between atoms: C_8  and  C_9
REMARK    7  A    between atoms: C_10  and  C_11
REMARK    8  A    between atoms: N_15  and  C_16
REMARK                            x       y       z     vdW  Elec       q    Type
REMARK                         _______ _______ _______ _____ _____    ______ ____
ROOT
ATOM      1  C   UNL     1      -7.766   3.932 129.846  0.00  0.00    +0.000 C 
ENDROOT
BRANCH   1   5
ATOM      2  C   UNL     1      -9.847   2.783 131.340  0.00  0.00    +0.000 C 
ATOM      3  N   UNL     1     -10.537   3.924 130.791  0.00  0.00    +0.000 N 
ATOM      4  C   UNL     1     -10.093   4.922 129.956  0.00  0.00    +0.000 C 
ATOM      5  N   UNL     1      -8.785   4.906 129.538  0.00  0.00    +0.000 N 
ATOM      6  N   UNL     1     -10.959   5.839 129.613  0.00  0.00    +0.000 NA
ATOM      7  H   UNL     1     -11.512   3.995 131.063  0.00  0.00    +0.000 HD
ATOM      8  H   UNL     1      -8.492   5.649 128.915  0.00  0.00    +0.000 HD
BRANCH   6   9
ATOM      9  C   UNL     1     -10.565   6.828 128.803  0.00  0.00    +0.000 C 
ATOM     10  N   UNL     1     -10.210   7.718 128.137  0.00  0.00    +0.000 NA
ENDBRANCH   6   9
ENDBRANCH   1   5
BRANCH   1  11
ATOM     11  C   UNL     1      -6.347   4.314 129.451  0.00  0.00    +0.000 C 
BRANCH  11  12
ATOM     12  S   UNL     1      -6.017   3.304 127.976  0.00  0.00    +0.000 S 
BRANCH  12  13
ATOM     13  C   UNL     1      -5.364   4.503 126.755  0.00  0.00    +0.000 C 
BRANCH  13  14
ATOM     14  C   UNL     1      -4.143   5.183 127.325  0.00  0.00    +0.000 A 
ATOM     15  C   UNL     1      -2.866   4.674 127.513  0.00  0.00    +0.000 A 
ATOM     16  C   UNL     1      -2.267   3.349 127.227  0.00  0.00    +0.000 C 
ATOM     17  N   UNL     1      -2.132   5.712 128.027  0.00  0.00    +0.000 N 
ATOM     18  C   UNL     1      -2.969   6.779 128.171  0.00  0.00    +0.000 A 
ATOM     19  N   UNL     1      -4.186   6.497 127.761  0.00  0.00    +0.000 NA
ATOM     20  H   UNL     1      -1.149   5.691 128.261  0.00  0.00    +0.000 HD
ENDBRANCH  13  14
ENDBRANCH  12  13
ENDBRANCH  11  12
ENDBRANCH   1  11
TORSDOF 6
ENDMDL
MODEL 9
REMARK VINA RESULT:      -4.8      3.602      5.892
REMARK  Name = Cimetidine
REMARK  8 active torsions:
REMARK  status: ('A' for Active; 'I' for Inactive)
REMARK    1  A    between atoms: C_1  and  N_2
REMARK    2  A    between atoms: N_4  and  C_5
REMARK    3  A    between atoms: C_5  and  C_6
REMARK    4  A    between atoms: C_6  and  S_7
REMARK    5  A    between atoms: S_7  and  C_8
REMARK    6  A    between atoms: C_8  and  C_9
REMARK    7  A    between atoms: C_10  and  C_11
REMARK    8  A    between atoms: N_15  and  C_16
REMARK                            x       y       z     vdW  Elec       q    Type
REMARK                         _______ _______ _______ _____ _____    ______ ____
ROOT
ATOM      1  C   UNL     1      -7.107   3.382 127.066  0.00  0.00    +0.000 C 
ENDROOT
BRANCH   1   5
ATOM      2  C   UNL     1      -6.221   5.165 125.087  0.00  0.00    +0.000 C 
ATOM      3  N   UNL     1      -7.209   4.432 124.335  0.00  0.00    +0.000 N 
ATOM      4  C   UNL     1      -8.032   3.395 124.710  0.00  0.00    +0.000 C 
ATOM      5  N   UNL     1      -7.954   2.916 125.994  0.00  0.00    +0.000 N 
ATOM      6  N   UNL     1      -8.845   2.924 123.802  0.00  0.00    +0.000 NA
ATOM      7  H   UNL     1      -7.317   4.737 123.373  0.00  0.00    +0.000 HD
ATOM      8  H   UNL     1      -8.580   2.160 126.243  0.00  0.00    +0.000 HD
BRANCH   6   9
ATOM      9  C   UNL     1      -9.660   1.914 124.127  0.00  0.00    +0.000 C 
ATOM     10  N   UNL     1     -10.407   1.067 124.421  0.00  0.00    +0.000 NA
ENDBRANCH   6   9
ENDBRANCH   1   5
BRANCH   1  11
ATOM     11  C   UNL     1      -7.816   4.109 128.199  0.00  0.00    +0.000 C 
BRANCH  11  12
ATOM     12  S   UNL     1      -8.600   2.772 129.152  0.00  0.00    +0.000 S 
BRANCH  12  13
ATOM     13  C   UNL     1      -9.040   3.563 130.745  0.00  0.00    +0.000 C 
BRANCH  13  14
ATOM     14  C   UNL     1      -9.932   4.753 130.484  0.00  0.00    +0.000 A 
ATOM     15  C   UNL     1      -9.640   6.105 130.594  0.00  0.00    +0.000 A 
ATOM     16  C   UNL     1      -8.408   6.833 130.979  0.00  0.00    +0.000 C 
ATOM     17  N   UNL     1     -10.784   6.756 130.209  0.00  0.00    +0.000 N 
ATOM     18  C   UNL     1     -11.723   5.809 129.923  0.00  0.00    +0.000 A 
ATOM     19  N   UNL     1     -11.246   4.594 130.080  0.00  0.00    +0.000 NA
ATOM     20  H   UNL     1     -10.911   7.757 130.150  0.00  0.00    +0.000 HD
ENDBRANCH  13  14
ENDBRANCH  12  13
ENDBRANCH  11  12
ENDBRANCH   1  11
TORSDOF 6
ENDMDL
