MODEL 1
REMARK VINA RESULT:      -7.0      0.000      0.000
REMARK  Name = Cinacalcet
REMARK  8 active torsions:
REMARK  status: ('A' for Active; 'I' for Inactive)
REMARK    1  A    between atoms: C_1  and  C_2
REMARK    2  A    between atoms: C_2  and  N_3
REMARK    3  A    between atoms: C_2  and  C_17
REMARK    4  A    between atoms: N_3  and  C_4
REMARK    5  A    between atoms: C_4  and  C_5
REMARK    6  A    between atoms: C_5  and  C_6
REMARK    7  A    between atoms: C_6  and  C_7
REMARK    8  A    between atoms: C_9  and  C_13
REMARK                            x       y       z     vdW  Elec       q    Type
REMARK                         _______ _______ _______ _____ _____    ______ ____
ROOT
ATOM      1  N   UNL     1      -5.591  -0.407 128.825  0.00  0.00    +0.000 NA
ATOM      2  H   UNL     1      -5.488  -0.251 127.820  0.00  0.00    +0.000 HD
ENDROOT
BRANCH   1   4
ATOM      3  C   UNL     1      -4.534  -2.605 128.949  0.00  0.00    +0.000 C 
ATOM      4  C   UNL     1      -5.849  -1.844 129.091  0.00  0.00    +0.000 C 
BRANCH   4   5
ATOM      5  C   UNL     1      -6.873  -2.492 128.149  0.00  0.00    +0.000 A 
ATOM      6  C   UNL     1      -8.069  -3.029 128.728  0.00  0.00    +0.000 A 
ATOM      7  C   UNL     1      -8.994  -3.686 127.940  0.00  0.00    +0.000 A 
ATOM      8  C   UNL     1      -8.785  -3.720 126.574  0.00  0.00    +0.000 A 
ATOM      9  C   UNL     1      -7.606  -3.218 125.984  0.00  0.00    +0.000 A 
ATOM     10  C   UNL     1      -7.351  -3.466 124.647  0.00  0.00    +0.000 A 
ATOM     11  C   UNL     1      -6.099  -3.193 124.049  0.00  0.00    +0.000 A 
ATOM     12  C   UNL     1      -5.472  -1.989 124.244  0.00  0.00    +0.000 A 
ATOM     13  C   UNL     1      -5.596  -1.920 125.651  0.00  0.00    +0.000 A 
ATOM     14  C   UNL     1      -6.637  -2.514 126.662  0.00  0.00    +0.000 A 
ENDBRANCH   4   5
ENDBRANCH   1   4
BRANCH   1  15
ATOM     15  C   UNL     1      -6.679   0.426 129.321  0.00  0.00    +0.000 C 
BRANCH  15  16
ATOM     16  C   UNL     1      -7.156   1.344 128.227  0.00  0.00    +0.000 C 
BRANCH  16  17
ATOM     17  C   UNL     1      -8.314   0.686 127.492  0.00  0.00    +0.000 C 
BRANCH  17  18
ATOM     18  C   UNL     1      -8.115   0.783 126.009  0.00  0.00    +0.000 A 
ATOM     19  C   UNL     1      -8.932   0.059 125.145  0.00  0.00    +0.000 A 
ATOM     20  C   UNL     1      -8.599  -0.010 123.788  0.00  0.00    +0.000 A 
ATOM     21  C   UNL     1      -7.581   0.800 123.273  0.00  0.00    +0.000 A 
ATOM     22  C   UNL     1      -6.795   1.556 124.123  0.00  0.00    +0.000 A 
ATOM     23  C   UNL     1      -7.050   1.528 125.485  0.00  0.00    +0.000 A 
BRANCH  20  24
ATOM     24  C   UNL     1      -9.231  -1.049 122.916  0.00  0.00    +0.000 C 
ATOM     25  F   UNL     1     -10.214  -0.519 122.134  0.00  0.00    +0.000 F 
ATOM     26  F   UNL     1      -8.347  -1.642 122.073  0.00  0.00    +0.000 F 
ATOM     27  F   UNL     1      -9.824  -2.050 123.624  0.00  0.00    +0.000 F 
ENDBRANCH  20  24
ENDBRANCH  17  18
ENDBRANCH  16  17
ENDBRANCH  15  16
ENDBRANCH   1  15
TORSDOF 7
ENDMDL
MODEL 2
REMARK VINA RESULT:      -6.7      2.470      4.208
REMARK  Name = Cinacalcet
REMARK  8 active torsions:
REMARK  status: ('A' for Active; 'I' for Inactive)
REMARK    1  A    between atoms: C_1  and  C_2
REMARK    2  A    between atoms: C_2  and  N_3
REMARK    3  A    between atoms: C_2  and  C_17
REMARK    4  A    between atoms: N_3  and  C_4
REMARK    5  A    between atoms: C_4  and  C_5
REMARK    6  A    between atoms: C_5  and  C_6
REMARK    7  A    between atoms: C_6  and  C_7
REMARK    8  A    between atoms: C_9  and  C_13
REMARK                            x       y       z     vdW  Elec       q    Type
REMARK                         _______ _______ _______ _____ _____    ______ ____
ROOT
ATOM      1  N   UNL     1      -7.194  -3.448 128.830  0.00  0.00    +0.000 NA
ATOM      2  H   UNL     1      -6.982  -4.376 129.202  0.00  0.00    +0.000 HD
ENDROOT
BRANCH   1   4
ATOM      3  C   UNL     1      -7.471  -2.688 131.135  0.00  0.00    +0.000 C 
ATOM      4  C   UNL     1      -6.781  -2.406 129.804  0.00  0.00    +0.000 C 
BRANCH   4   5
ATOM      5  C   UNL     1      -7.129  -0.970 129.386  0.00  0.00    +0.000 A 
ATOM      6  C   UNL     1      -7.936  -0.191 130.276  0.00  0.00    +0.000 A 
ATOM      7  C   UNL     1      -8.339   1.083 129.922  0.00  0.00    +0.000 A 
ATOM      8  C   UNL     1      -7.861   1.616 128.740  0.00  0.00    +0.000 A 
ATOM      9  C   UNL     1      -7.084   0.861 127.837  0.00  0.00    +0.000 A 
ATOM     10  C   UNL     1      -6.811   1.367 126.579  0.00  0.00    +0.000 A 
ATOM     11  C   UNL     1      -6.238   0.582 125.552  0.00  0.00    +0.000 A 
ATOM     12  C   UNL     1      -5.138  -0.200 125.793  0.00  0.00    +0.000 A 
ATOM     13  C   UNL     1      -5.591  -0.831 126.974  0.00  0.00    +0.000 A 
ATOM     14  C   UNL     1      -6.594  -0.399 128.099  0.00  0.00    +0.000 A 
ENDBRANCH   4   5
ENDBRANCH   1   4
BRANCH   1  15
ATOM     15  C   UNL     1      -8.621  -3.370 128.544  0.00  0.00    +0.000 C 
BRANCH  15  16
ATOM     16  C   UNL     1      -8.879  -3.792 127.122  0.00  0.00    +0.000 C 
BRANCH  16  17
ATOM     17  C   UNL     1      -9.213  -2.562 126.289  0.00  0.00    +0.000 C 
BRANCH  17  18
ATOM     18  C   UNL     1      -8.352  -2.512 125.063  0.00  0.00    +0.000 A 
ATOM     19  C   UNL     1      -7.237  -3.338 124.957  0.00  0.00    +0.000 A 
ATOM     20  C   UNL     1      -6.328  -3.128 123.915  0.00  0.00    +0.000 A 
ATOM     21  C   UNL     1      -6.638  -2.238 122.881  0.00  0.00    +0.000 A 
ATOM     22  C   UNL     1      -7.769  -1.445 122.961  0.00  0.00    +0.000 A 
ATOM     23  C   UNL     1      -8.607  -1.569 124.058  0.00  0.00    +0.000 A 
BRANCH  20  24
ATOM     24  C   UNL     1      -4.966  -3.744 123.977  0.00  0.00    +0.000 C 
ATOM     25  F   UNL     1      -4.428  -3.655 125.226  0.00  0.00    +0.000 F 
ATOM     26  F   UNL     1      -4.965  -5.062 123.652  0.00  0.00    +0.000 F 
ATOM     27  F   UNL     1      -4.069  -3.139 123.148  0.00  0.00    +0.000 F 
ENDBRANCH  20  24
ENDBRANCH  17  18
ENDBRANCH  16  17
ENDBRANCH  15  16
ENDBRANCH   1  15
TORSDOF 7
ENDMDL
MODEL 3
REMARK VINA RESULT:      -6.7      1.875      3.452
REMARK  Name = Cinacalcet
REMARK  8 active torsions:
REMARK  status: ('A' for Active; 'I' for Inactive)
REMARK    1  A    between atoms: C_1  and  C_2
REMARK    2  A    between atoms: C_2  and  N_3
REMARK    3  A    between atoms: C_2  and  C_17
REMARK    4  A    between atoms: N_3  and  C_4
REMARK    5  A    between atoms: C_4  and  C_5
REMARK    6  A    between atoms: C_5  and  C_6
REMARK    7  A    between atoms: C_6  and  C_7
REMARK    8  A    between atoms: C_9  and  C_13
REMARK                            x       y       z     vdW  Elec       q    Type
REMARK                         _______ _______ _______ _____ _____    ______ ____
ROOT
ATOM      1  N   UNL     1      -7.134  -2.316 129.445  0.00  0.00    +0.000 NA
ATOM      2  H   UNL     1      -7.429  -1.346 129.323  0.00  0.00    +0.000 HD
ENDROOT
BRANCH   1   4
ATOM      3  C   UNL     1      -4.714  -2.627 129.330  0.00  0.00    +0.000 C 
ATOM      4  C   UNL     1      -6.010  -2.623 128.525  0.00  0.00    +0.000 C 
BRANCH   4   5
ATOM      5  C   UNL     1      -5.845  -1.628 127.368  0.00  0.00    +0.000 A 
ATOM      6  C   UNL     1      -5.908  -0.229 127.674  0.00  0.00    +0.000 A 
ATOM      7  C   UNL     1      -5.837   0.712 126.665  0.00  0.00    +0.000 A 
ATOM      8  C   UNL     1      -5.601   0.273 125.375  0.00  0.00    +0.000 A 
ATOM      9  C   UNL     1      -5.556  -1.099 125.047  0.00  0.00    +0.000 A 
ATOM     10  C   UNL     1      -5.531  -1.483 123.718  0.00  0.00    +0.000 A 
ATOM     11  C   UNL     1      -5.713  -2.826 123.312  0.00  0.00    +0.000 A 
ATOM     12  C   UNL     1      -5.027  -3.845 123.921  0.00  0.00    +0.000 A 
ATOM     13  C   UNL     1      -5.283  -3.489 125.266  0.00  0.00    +0.000 A 
ATOM     14  C   UNL     1      -5.579  -2.120 125.970  0.00  0.00    +0.000 A 
ENDBRANCH   4   5
ENDBRANCH   1   4
BRANCH   1  15
ATOM     15  C   UNL     1      -8.274  -3.190 129.197  0.00  0.00    +0.000 C 
BRANCH  15  16
ATOM     16  C   UNL     1      -8.146  -3.820 127.835  0.00  0.00    +0.000 C 
BRANCH  16  17
ATOM     17  C   UNL     1      -9.452  -3.638 127.076  0.00  0.00    +0.000 C 
BRANCH  17  18
ATOM     18  C   UNL     1      -9.239  -2.773 125.870  0.00  0.00    +0.000 A 
ATOM     19  C   UNL     1      -9.103  -1.395 126.013  0.00  0.00    +0.000 A 
ATOM     20  C   UNL     1      -9.123  -0.585 124.873  0.00  0.00    +0.000 A 
ATOM     21  C   UNL     1      -9.075  -1.163 123.600  0.00  0.00    +0.000 A 
ATOM     22  C   UNL     1      -9.165  -2.536 123.455  0.00  0.00    +0.000 A 
ATOM     23  C   UNL     1      -9.269  -3.331 124.585  0.00  0.00    +0.000 A 
BRANCH  20  24
ATOM     24  C   UNL     1      -9.340   0.890 125.008  0.00  0.00    +0.000 C 
ATOM     25  F   UNL     1     -10.584   1.256 124.589  0.00  0.00    +0.000 F 
ATOM     26  F   UNL     1      -9.220   1.328 126.287  0.00  0.00    +0.000 F 
ATOM     27  F   UNL     1      -8.470   1.626 124.262  0.00  0.00    +0.000 F 
ENDBRANCH  20  24
ENDBRANCH  17  18
ENDBRANCH  16  17
ENDBRANCH  15  16
ENDBRANCH   1  15
TORSDOF 7
ENDMDL
MODEL 4
REMARK VINA RESULT:      -6.6      1.776      2.336
REMARK  Name = Cinacalcet
REMARK  8 active torsions:
REMARK  status: ('A' for Active; 'I' for Inactive)
REMARK    1  A    between atoms: C_1  and  C_2
REMARK    2  A    between atoms: C_2  and  N_3
REMARK    3  A    between atoms: C_2  and  C_17
REMARK    4  A    between atoms: N_3  and  C_4
REMARK    5  A    between atoms: C_4  and  C_5
REMARK    6  A    between atoms: C_5  and  C_6
REMARK    7  A    between atoms: C_6  and  C_7
REMARK    8  A    between atoms: C_9  and  C_13
REMARK                            x       y       z     vdW  Elec       q    Type
REMARK                         _______ _______ _______ _____ _____    ______ ____
ROOT
ATOM      1  N   UNL     1      -5.396  -0.512 128.772  0.00  0.00    +0.000 NA
ATOM      2  H   UNL     1      -5.384  -0.327 127.766  0.00  0.00    +0.000 HD
ENDROOT
BRANCH   1   4
ATOM      3  C   UNL     1      -4.463  -2.769 128.802  0.00  0.00    +0.000 C 
ATOM      4  C   UNL     1      -5.724  -1.938 129.020  0.00  0.00    +0.000 C 
BRANCH   4   5
ATOM      5  C   UNL     1      -6.825  -2.505 128.114  0.00  0.00    +0.000 A 
ATOM      6  C   UNL     1      -7.976  -3.084 128.741  0.00  0.00    +0.000 A 
ATOM      7  C   UNL     1      -8.967  -3.673 127.979  0.00  0.00    +0.000 A 
ATOM      8  C   UNL     1      -8.866  -3.598 126.602  0.00  0.00    +0.000 A 
ATOM      9  C   UNL     1      -7.733  -3.053 125.962  0.00  0.00    +0.000 A 
ATOM     10  C   UNL     1      -7.587  -3.193 124.593  0.00  0.00    +0.000 A 
ATOM     11  C   UNL     1      -6.383  -2.876 123.922  0.00  0.00    +0.000 A 
ATOM     12  C   UNL     1      -5.732  -1.694 124.162  0.00  0.00    +0.000 A 
ATOM     13  C   UNL     1      -5.744  -1.738 125.576  0.00  0.00    +0.000 A 
ATOM     14  C   UNL     1      -6.707  -2.408 126.615  0.00  0.00    +0.000 A 
ENDBRANCH   4   5
ENDBRANCH   1   4
BRANCH   1  15
ATOM     15  C   UNL     1      -6.369   0.372 129.401  0.00  0.00    +0.000 C 
BRANCH  15  16
ATOM     16  C   UNL     1      -6.846   1.395 128.404  0.00  0.00    +0.000 C 
BRANCH  16  17
ATOM     17  C   UNL     1      -8.244   1.021 127.934  0.00  0.00    +0.000 C 
BRANCH  17  18
ATOM     18  C   UNL     1      -8.272   0.871 126.443  0.00  0.00    +0.000 A 
ATOM     19  C   UNL     1      -7.359   1.564 125.654  0.00  0.00    +0.000 A 
ATOM     20  C   UNL     1      -7.534   1.584 124.266  0.00  0.00    +0.000 A 
ATOM     21  C   UNL     1      -8.488   0.755 123.666  0.00  0.00    +0.000 A 
ATOM     22  C   UNL     1      -9.369   0.030 124.447  0.00  0.00    +0.000 A 
ATOM     23  C   UNL     1      -9.272   0.107 125.827  0.00  0.00    +0.000 A 
BRANCH  20  24
ATOM     24  C   UNL     1      -6.802   2.592 123.435  0.00  0.00    +0.000 C 
ATOM     25  F   UNL     1      -6.373   2.057 122.257  0.00  0.00    +0.000 F 
ATOM     26  F   UNL     1      -7.566   3.667 123.113  0.00  0.00    +0.000 F 
ATOM     27  F   UNL     1      -5.686   3.077 124.047  0.00  0.00    +0.000 F 
ENDBRANCH  20  24
ENDBRANCH  17  18
ENDBRANCH  16  17
ENDBRANCH  15  16
ENDBRANCH   1  15
TORSDOF 7
ENDMDL
MODEL 5
REMARK VINA RESULT:      -6.6      1.745      4.514
REMARK  Name = Cinacalcet
REMARK  8 active torsions:
REMARK  status: ('A' for Active; 'I' for Inactive)
REMARK    1  A    between atoms: C_1  and  C_2
REMARK    2  A    between atoms: C_2  and  N_3
REMARK    3  A    between atoms: C_2  and  C_17
REMARK    4  A    between atoms: N_3  and  C_4
REMARK    5  A    between atoms: C_4  and  C_5
REMARK    6  A    between atoms: C_5  and  C_6
REMARK    7  A    between atoms: C_6  and  C_7
REMARK    8  A    between atoms: C_9  and  C_13
REMARK                            x       y       z     vdW  Elec       q    Type
REMARK                         _______ _______ _______ _____ _____    ______ ____
ROOT
ATOM      1  N   UNL     1      -7.909  -0.506 129.533  0.00  0.00    +0.000 NA
ATOM      2  H   UNL     1      -8.406  -0.796 128.688  0.00  0.00    +0.000 HD
ENDROOT
BRANCH   1   4
ATOM      3  C   UNL     1      -8.369   1.891 129.629  0.00  0.00    +0.000 C 
ATOM      4  C   UNL     1      -7.308   0.837 129.330  0.00  0.00    +0.000 C 
BRANCH   4   5
ATOM      5  C   UNL     1      -6.778   1.089 127.911  0.00  0.00    +0.000 A 
ATOM      6  C   UNL     1      -5.375   1.338 127.756  0.00  0.00    +0.000 A 
ATOM      7  C   UNL     1      -4.852   1.641 126.513  0.00  0.00    +0.000 A 
ATOM      8  C   UNL     1      -5.695   1.597 125.419  0.00  0.00    +0.000 A 
ATOM      9  C   UNL     1      -7.082   1.376 125.550  0.00  0.00    +0.000 A 
ATOM     10  C   UNL     1      -7.910   1.553 124.455  0.00  0.00    +0.000 A 
ATOM     11  C   UNL     1      -9.320   1.571 124.564  0.00  0.00    +0.000 A 
ATOM     12  C   UNL     1      -9.984   0.605 125.275  0.00  0.00    +0.000 A 
ATOM     13  C   UNL     1      -9.200   0.643 126.452  0.00  0.00    +0.000 A 
ATOM     14  C   UNL     1      -7.706   1.029 126.727  0.00  0.00    +0.000 A 
ENDBRANCH   4   5
ENDBRANCH   1   4
BRANCH   1  15
ATOM     15  C   UNL     1      -6.890  -1.500 129.843  0.00  0.00    +0.000 C 
BRANCH  15  16
ATOM     16  C   UNL     1      -6.826  -2.524 128.741  0.00  0.00    +0.000 C 
BRANCH  16  17
ATOM     17  C   UNL     1      -8.226  -2.756 128.193  0.00  0.00    +0.000 C 
BRANCH  17  18
ATOM     18  C   UNL     1      -8.195  -2.837 126.696  0.00  0.00    +0.000 A 
ATOM     19  C   UNL     1      -7.009  -2.603 126.008  0.00  0.00    +0.000 A 
ATOM     20  C   UNL     1      -7.042  -2.469 124.616  0.00  0.00    +0.000 A 
ATOM     21  C   UNL     1      -8.212  -2.767 123.909  0.00  0.00    +0.000 A 
ATOM     22  C   UNL     1      -9.384  -3.044 124.589  0.00  0.00    +0.000 A 
ATOM     23  C   UNL     1      -9.377  -3.056 125.974  0.00  0.00    +0.000 A 
BRANCH  20  24
ATOM     24  C   UNL     1      -5.874  -1.872 123.895  0.00  0.00    +0.000 C 
ATOM     25  F   UNL     1      -5.253  -2.787 123.098  0.00  0.00    +0.000 F 
ATOM     26  F   UNL     1      -6.222  -0.835 123.091  0.00  0.00    +0.000 F 
ATOM     27  F   UNL     1      -4.910  -1.404 124.737  0.00  0.00    +0.000 F 
ENDBRANCH  20  24
ENDBRANCH  17  18
ENDBRANCH  16  17
ENDBRANCH  15  16
ENDBRANCH   1  15
TORSDOF 7
ENDMDL
MODEL 6
REMARK VINA RESULT:      -6.6      2.680      5.441
REMARK  Name = Cinacalcet
REMARK  8 active torsions:
REMARK  status: ('A' for Active; 'I' for Inactive)
REMARK    1  A    between atoms: C_1  and  C_2
REMARK    2  A    between atoms: C_2  and  N_3
REMARK    3  A    between atoms: C_2  and  C_17
REMARK    4  A    between atoms: N_3  and  C_4
REMARK    5  A    between atoms: C_4  and  C_5
REMARK    6  A    between atoms: C_5  and  C_6
REMARK    7  A    between atoms: C_6  and  C_7
REMARK    8  A    between atoms: C_9  and  C_13
REMARK                            x       y       z     vdW  Elec       q    Type
REMARK                         _______ _______ _______ _____ _____    ______ ____
ROOT
ATOM      1  N   UNL     1      -5.900   2.796 126.909  0.00  0.00    +0.000 NA
ATOM      2  H   UNL     1      -6.751   2.237 126.820  0.00  0.00    +0.000 HD
ENDROOT
BRANCH   1   4
ATOM      3  C   UNL     1      -5.604   5.026 125.957  0.00  0.00    +0.000 C 
ATOM      4  C   UNL     1      -5.644   3.533 125.646  0.00  0.00    +0.000 C 
BRANCH   4   5
ATOM      5  C   UNL     1      -6.696   3.306 124.552  0.00  0.00    +0.000 A 
ATOM      6  C   UNL     1      -7.975   2.799 124.949  0.00  0.00    +0.000 A 
ATOM      7  C   UNL     1      -8.938   2.508 124.001  0.00  0.00    +0.000 A 
ATOM      8  C   UNL     1      -8.669   2.814 122.680  0.00  0.00    +0.000 A 
ATOM      9  C   UNL     1      -7.409   3.293 122.262  0.00  0.00    +0.000 A 
ATOM     10  C   UNL     1      -7.124   3.380 120.911  0.00  0.00    +0.000 A 
ATOM     11  C   UNL     1      -5.820   3.633 120.425  0.00  0.00    +0.000 A 
ATOM     12  C   UNL     1      -5.057   4.644 120.948  0.00  0.00    +0.000 A 
ATOM     13  C   UNL     1      -5.238   4.349 122.319  0.00  0.00    +0.000 A 
ATOM     14  C   UNL     1      -6.392   3.652 123.118  0.00  0.00    +0.000 A 
ENDBRANCH   4   5
ENDBRANCH   1   4
BRANCH   1  15
ATOM     15  C   UNL     1      -4.789   1.913 127.241  0.00  0.00    +0.000 C 
BRANCH  15  16
ATOM     16  C   UNL     1      -4.858   0.669 126.394  0.00  0.00    +0.000 C 
BRANCH  16  17
ATOM     17  C   UNL     1      -6.123  -0.102 126.740  0.00  0.00    +0.000 C 
BRANCH  17  18
ATOM     18  C   UNL     1      -6.800  -0.583 125.493  0.00  0.00    +0.000 A 
ATOM     19  C   UNL     1      -7.861  -1.480 125.574  0.00  0.00    +0.000 A 
ATOM     20  C   UNL     1      -8.337  -2.083 124.405  0.00  0.00    +0.000 A 
ATOM     21  C   UNL     1      -7.892  -1.640 123.155  0.00  0.00    +0.000 A 
ATOM     22  C   UNL     1      -6.867  -0.715 123.069  0.00  0.00    +0.000 A 
ATOM     23  C   UNL     1      -6.313  -0.209 124.233  0.00  0.00    +0.000 A 
BRANCH  20  24
ATOM     24  C   UNL     1      -9.212  -3.295 124.492  0.00  0.00    +0.000 C 
ATOM     25  F   UNL     1      -8.478  -4.436 124.629  0.00  0.00    +0.000 F 
ATOM     26  F   UNL     1     -10.065  -3.257 125.547  0.00  0.00    +0.000 F 
ATOM     27  F   UNL     1      -9.976  -3.481 123.380  0.00  0.00    +0.000 F 
ENDBRANCH  20  24
ENDBRANCH  17  18
ENDBRANCH  16  17
ENDBRANCH  15  16
ENDBRANCH   1  15
TORSDOF 7
ENDMDL
MODEL 7
REMARK VINA RESULT:      -6.5      1.725      2.181
REMARK  Name = Cinacalcet
REMARK  8 active torsions:
REMARK  status: ('A' for Active; 'I' for Inactive)
REMARK    1  A    between atoms: C_1  and  C_2
REMARK    2  A    between atoms: C_2  and  N_3
REMARK    3  A    between atoms: C_2  and  C_17
REMARK    4  A    between atoms: N_3  and  C_4
REMARK    5  A    between atoms: C_4  and  C_5
REMARK    6  A    between atoms: C_5  and  C_6
REMARK    7  A    between atoms: C_6  and  C_7
REMARK    8  A    between atoms: C_9  and  C_13
REMARK                            x       y       z     vdW  Elec       q    Type
REMARK                         _______ _______ _______ _____ _____    ______ ____
ROOT
ATOM      1  N   UNL     1      -5.040  -0.471 127.032  0.00  0.00    +0.000 NA
ATOM      2  H   UNL     1      -5.247  -0.568 126.035  0.00  0.00    +0.000 HD
ENDROOT
BRANCH   1   4
ATOM      3  C   UNL     1      -4.945  -2.557 128.298  0.00  0.00    +0.000 C 
ATOM      4  C   UNL     1      -5.856  -1.434 127.814  0.00  0.00    +0.000 C 
BRANCH   4   5
ATOM      5  C   UNL     1      -7.014  -2.069 127.032  0.00  0.00    +0.000 A 
ATOM      6  C   UNL     1      -7.981  -2.828 127.768  0.00  0.00    +0.000 A 
ATOM      7  C   UNL     1      -9.006  -3.481 127.111  0.00  0.00    +0.000 A 
ATOM      8  C   UNL     1      -9.130  -3.298 125.746  0.00  0.00    +0.000 A 
ATOM      9  C   UNL     1      -8.179  -2.574 124.998  0.00  0.00    +0.000 A 
ATOM     10  C   UNL     1      -8.233  -2.600 123.615  0.00  0.00    +0.000 A 
ATOM     11  C   UNL     1      -7.191  -2.090 122.805  0.00  0.00    +0.000 A 
ATOM     12  C   UNL     1      -6.648  -0.856 123.050  0.00  0.00    +0.000 A 
ATOM     13  C   UNL     1      -6.434  -0.999 124.440  0.00  0.00    +0.000 A 
ATOM     14  C   UNL     1      -7.142  -1.854 125.547  0.00  0.00    +0.000 A 
ENDBRANCH   4   5
ENDBRANCH   1   4
BRANCH   1  15
ATOM     15  C   UNL     1      -5.310   0.903 127.436  0.00  0.00    +0.000 C 
BRANCH  15  16
ATOM     16  C   UNL     1      -4.888   1.848 126.343  0.00  0.00    +0.000 C 
BRANCH  16  17
ATOM     17  C   UNL     1      -5.869   3.010 126.280  0.00  0.00    +0.000 C 
BRANCH  17  18
ATOM     18  C   UNL     1      -6.767   2.872 125.088  0.00  0.00    +0.000 A 
ATOM     19  C   UNL     1      -8.007   2.255 125.214  0.00  0.00    +0.000 A 
ATOM     20  C   UNL     1      -8.735   1.942 124.061  0.00  0.00    +0.000 A 
ATOM     21  C   UNL     1      -8.318   2.423 122.815  0.00  0.00    +0.000 A 
ATOM     22  C   UNL     1      -7.106   3.076 122.692  0.00  0.00    +0.000 A 
ATOM     23  C   UNL     1      -6.327   3.278 123.820  0.00  0.00    +0.000 A 
BRANCH  20  24
ATOM     24  C   UNL     1      -9.876   0.976 124.137  0.00  0.00    +0.000 C 
ATOM     25  F   UNL     1      -9.906   0.145 123.057  0.00  0.00    +0.000 F 
ATOM     26  F   UNL     1      -9.823   0.179 125.234  0.00  0.00    +0.000 F 
ATOM     27  F   UNL     1     -11.092   1.590 124.161  0.00  0.00    +0.000 F 
ENDBRANCH  20  24
ENDBRANCH  17  18
ENDBRANCH  16  17
ENDBRANCH  15  16
ENDBRANCH   1  15
TORSDOF 7
ENDMDL
MODEL 8
REMARK VINA RESULT:      -6.5      1.542      4.409
REMARK  Name = Cinacalcet
REMARK  8 active torsions:
REMARK  status: ('A' for Active; 'I' for Inactive)
REMARK    1  A    between atoms: C_1  and  C_2
REMARK    2  A    between atoms: C_2  and  N_3
REMARK    3  A    between atoms: C_2  and  C_17
REMARK    4  A    between atoms: N_3  and  C_4
REMARK    5  A    between atoms: C_4  and  C_5
REMARK    6  A    between atoms: C_5  and  C_6
REMARK    7  A    between atoms: C_6  and  C_7
REMARK    8  A    between atoms: C_9  and  C_13
REMARK                            x       y       z     vdW  Elec       q    Type
REMARK                         _______ _______ _______ _____ _____    ______ ____
ROOT
ATOM      1  N   UNL     1      -6.793   0.632 128.605  0.00  0.00    +0.000 NA
ATOM      2  H   UNL     1      -7.572   0.010 128.380  0.00  0.00    +0.000 HD
ENDROOT
BRANCH   1   4
ATOM      3  C   UNL     1      -6.492   2.983 128.017  0.00  0.00    +0.000 C 
ATOM      4  C   UNL     1      -6.544   1.560 127.473  0.00  0.00    +0.000 C 
BRANCH   4   5
ATOM      5  C   UNL     1      -7.608   1.515 126.367  0.00  0.00    +0.000 A 
ATOM      6  C   UNL     1      -8.839   0.839 126.650  0.00  0.00    +0.000 A 
ATOM      7  C   UNL     1      -9.805   0.706 125.671  0.00  0.00    +0.000 A 
ATOM      8  C   UNL     1      -9.595   1.327 124.454  0.00  0.00    +0.000 A 
ATOM      9  C   UNL     1      -8.383   1.979 124.145  0.00  0.00    +0.000 A 
ATOM     10  C   UNL     1      -8.141   2.396 122.848  0.00  0.00    +0.000 A 
ATOM     11  C   UNL     1      -6.871   2.848 122.420  0.00  0.00    +0.000 A 
ATOM     12  C   UNL     1      -6.164   3.764 123.154  0.00  0.00    +0.000 A 
ATOM     13  C   UNL     1      -6.287   3.148 124.422  0.00  0.00    +0.000 A 
ATOM     14  C   UNL     1      -7.369   2.203 125.050  0.00  0.00    +0.000 A 
ENDBRANCH   4   5
ENDBRANCH   1   4
BRANCH   1  15
ATOM     15  C   UNL     1      -5.616  -0.175 128.897  0.00  0.00    +0.000 C 
BRANCH  15  16
ATOM     16  C   UNL     1      -5.492  -1.281 127.883  0.00  0.00    +0.000 C 
BRANCH  16  17
ATOM     17  C   UNL     1      -6.604  -2.294 128.110  0.00  0.00    +0.000 C 
BRANCH  17  18
ATOM     18  C   UNL     1      -7.384  -2.506 126.847  0.00  0.00    +0.000 A 
ATOM     19  C   UNL     1      -6.831  -2.163 125.618  0.00  0.00    +0.000 A 
ATOM     20  C   UNL     1      -7.643  -2.162 124.479  0.00  0.00    +0.000 A 
ATOM     21  C   UNL     1      -8.937  -2.693 124.539  0.00  0.00    +0.000 A 
ATOM     22  C   UNL     1      -9.476  -3.077 125.754  0.00  0.00    +0.000 A 
ATOM     23  C   UNL     1      -8.708  -2.961 126.902  0.00  0.00    +0.000 A 
BRANCH  20  24
ATOM     24  C   UNL     1      -7.186  -1.467 123.235  0.00  0.00    +0.000 C 
ATOM     25  F   UNL     1      -6.495  -2.308 122.414  0.00  0.00    +0.000 F 
ATOM     26  F   UNL     1      -8.212  -0.968 122.500  0.00  0.00    +0.000 F 
ATOM     27  F   UNL     1      -6.344  -0.426 123.485  0.00  0.00    +0.000 F 
ENDBRANCH  20  24
ENDBRANCH  17  18
ENDBRANCH  16  17
ENDBRANCH  15  16
ENDBRANCH   1  15
TORSDOF 7
ENDMDL
MODEL 9
REMARK VINA RESULT:      -6.5      3.740      5.749
REMARK  Name = Cinacalcet
REMARK  8 active torsions:
REMARK  status: ('A' for Active; 'I' for Inactive)
REMARK    1  A    between atoms: C_1  and  C_2
REMARK    2  A    between atoms: C_2  and  N_3
REMARK    3  A    between atoms: C_2  and  C_17
REMARK    4  A    between atoms: N_3  and  C_4
REMARK    5  A    between atoms: C_4  and  C_5
REMARK    6  A    between atoms: C_5  and  C_6
REMARK    7  A    between atoms: C_6  and  C_7
REMARK    8  A    between atoms: C_9  and  C_13
REMARK                            x       y       z     vdW  Elec       q    Type
REMARK                         _______ _______ _______ _____ _____    ______ ____
ROOT
ATOM      1  N   UNL     1      -7.028   0.894 125.700  0.00  0.00    +0.000 NA
ATOM      2  H   UNL     1      -7.578   0.487 126.460  0.00  0.00    +0.000 HD
ENDROOT
BRANCH   1   4
ATOM      3  C   UNL     1      -8.585   0.924 123.818  0.00  0.00    +0.000 C 
ATOM      4  C   UNL     1      -7.367   0.228 124.417  0.00  0.00    +0.000 C 
BRANCH   4   5
ATOM      5  C   UNL     1      -7.691  -1.267 124.542  0.00  0.00    +0.000 A 
ATOM      6  C   UNL     1      -9.009  -1.633 124.969  0.00  0.00    +0.000 A 
ATOM      7  C   UNL     1      -9.337  -2.961 125.168  0.00  0.00    +0.000 A 
ATOM      8  C   UNL     1      -8.397  -3.923 124.847  0.00  0.00    +0.000 A 
ATOM      9  C   UNL     1      -7.087  -3.586 124.446  0.00  0.00    +0.000 A 
ATOM     10  C   UNL     1      -6.127  -4.578 124.343  0.00  0.00    +0.000 A 
ATOM     11  C   UNL     1      -4.753  -4.289 124.169  0.00  0.00    +0.000 A 
ATOM     12  C   UNL     1      -4.337  -3.385 123.227  0.00  0.00    +0.000 A 
ATOM     13  C   UNL     1      -5.228  -2.334 123.545  0.00  0.00    +0.000 A 
ATOM     14  C   UNL     1      -6.661  -2.304 124.181  0.00  0.00    +0.000 A 
ENDBRANCH   4   5
ENDBRANCH   1   4
BRANCH   1  15
ATOM     15  C   UNL     1      -5.612   0.749 126.014  0.00  0.00    +0.000 C 
BRANCH  15  16
ATOM     16  C   UNL     1      -5.454   0.147 127.385  0.00  0.00    +0.000 C 
BRANCH  16  17
ATOM     17  C   UNL     1      -5.287  -1.360 127.252  0.00  0.00    +0.000 C 
BRANCH  17  18
ATOM     18  C   UNL     1      -6.096  -2.070 128.296  0.00  0.00    +0.000 A 
ATOM     19  C   UNL     1      -5.461  -2.788 129.304  0.00  0.00    +0.000 A 
ATOM     20  C   UNL     1      -6.222  -3.617 130.135  0.00  0.00    +0.000 A 
ATOM     21  C   UNL     1      -7.620  -3.567 130.087  0.00  0.00    +0.000 A 
ATOM     22  C   UNL     1      -8.256  -2.819 129.114  0.00  0.00    +0.000 A 
ATOM     23  C   UNL     1      -7.495  -2.093 128.212  0.00  0.00    +0.000 A 
BRANCH  20  24
ATOM     24  C   UNL     1      -5.547  -4.657 130.974  0.00  0.00    +0.000 C 
ATOM     25  F   UNL     1      -5.995  -4.634 132.261  0.00  0.00    +0.000 F 
ATOM     26  F   UNL     1      -5.750  -5.919 130.517  0.00  0.00    +0.000 F 
ATOM     27  F   UNL     1      -4.198  -4.485 131.052  0.00  0.00    +0.000 F 
ENDBRANCH  20  24
ENDBRANCH  17  18
ENDBRANCH  16  17
ENDBRANCH  15  16
ENDBRANCH   1  15
TORSDOF 7
ENDMDL
