MODEL 1
REMARK VINA RESULT:      -6.8      0.000      0.000
REMARK  Name = Cinchocaine
REMARK  13 active torsions:
REMARK  status: ('A' for Active; 'I' for Inactive)
REMARK    1  A    between atoms: C_1  and  C_2
REMARK    2  A    between atoms: C_2  and  C_3
REMARK    3  A    between atoms: C_3  and  C_4
REMARK    4  A    between atoms: C_4  and  O_5
REMARK    5  A    between atoms: O_5  and  C_6
REMARK    6  A    between atoms: C_14  and  C_16
REMARK    7  A    between atoms: N_18  and  C_19
REMARK    8  A    between atoms: C_19  and  C_20
REMARK    9  A    between atoms: C_20  and  N_21
REMARK   10  A    between atoms: N_21  and  C_22
REMARK   11  A    between atoms: N_21  and  C_24
REMARK   12  A    between atoms: C_22  and  C_23
REMARK   13  A    between atoms: C_24  and  C_25
REMARK                            x       y       z     vdW  Elec       q    Type
REMARK                         _______ _______ _______ _____ _____    ______ ____
ROOT
ATOM      1  C   UNL     1      -5.449   3.815 125.182  0.00  0.00    +0.000 A 
ATOM      2  N   UNL     1      -4.881   4.444 124.135  0.00  0.00    +0.000 NA
ATOM      3  C   UNL     1      -5.380   4.222 122.899  0.00  0.00    +0.000 A 
ATOM      4  C   UNL     1      -4.781   4.873 121.815  0.00  0.00    +0.000 A 
ATOM      5  C   UNL     1      -5.222   4.739 120.492  0.00  0.00    +0.000 A 
ATOM      6  C   UNL     1      -6.282   3.919 120.220  0.00  0.00    +0.000 A 
ATOM      7  C   UNL     1      -6.853   3.228 121.267  0.00  0.00    +0.000 A 
ATOM      8  C   UNL     1      -6.464   3.355 122.638  0.00  0.00    +0.000 A 
ATOM      9  C   UNL     1      -7.035   2.692 123.772  0.00  0.00    +0.000 A 
ATOM     10  C   UNL     1      -6.507   2.937 125.054  0.00  0.00    +0.000 A 
ENDROOT
BRANCH   9  11
ATOM     11  C   UNL     1      -8.178   1.697 123.722  0.00  0.00    +0.000 C 
ATOM     12  O   UNL     1      -9.323   2.081 123.595  0.00  0.00    +0.000 OA
ATOM     13  N   UNL     1      -7.846   0.344 123.761  0.00  0.00    +0.000 N 
ATOM     14  H   UNL     1      -7.088   0.154 123.148  0.00  0.00    +0.000 HD
BRANCH  13  15
ATOM     15  C   UNL     1      -8.832  -0.658 123.483  0.00  0.00    +0.000 C 
BRANCH  15  16
ATOM     16  C   UNL     1      -8.285  -1.927 122.784  0.00  0.00    +0.000 C 
BRANCH  16  17
ATOM     17  N   UNL     1      -8.122  -3.085 123.693  0.00  0.00    +0.000 NA
BRANCH  17  18
ATOM     18  C   UNL     1      -6.824  -3.094 124.407  0.00  0.00    +0.000 C 
ATOM     19  C   UNL     1      -5.553  -2.929 123.579  0.00  0.00    +0.000 C 
ENDBRANCH  17  18
BRANCH  17  20
ATOM     20  C   UNL     1      -9.244  -3.118 124.665  0.00  0.00    +0.000 C 
ATOM     21  C   UNL     1      -8.777  -3.333 126.106  0.00  0.00    +0.000 C 
ENDBRANCH  17  20
ENDBRANCH  16  17
ENDBRANCH  15  16
ENDBRANCH  13  15
ENDBRANCH   9  11
BRANCH   1  22
ATOM     22  O   UNL     1      -4.884   3.937 126.440  0.00  0.00    +0.000 OA
BRANCH  22  23
ATOM     23  C   UNL     1      -4.819   2.703 127.166  0.00  0.00    +0.000 C 
BRANCH  23  24
ATOM     24  C   UNL     1      -3.554   2.719 128.037  0.00  0.00    +0.000 C 
BRANCH  24  26
ATOM     25  C   UNL     1      -1.517   2.972 126.567  0.00  0.00    +0.000 C 
ATOM     26  C   UNL     1      -2.488   3.679 127.503  0.00  0.00    +0.000 C 
ENDBRANCH  24  26
ENDBRANCH  23  24
ENDBRANCH  22  23
ENDBRANCH   1  22
TORSDOF 10
ENDMDL
MODEL 2
REMARK VINA RESULT:      -6.4      1.875      7.319
REMARK  Name = Cinchocaine
REMARK  13 active torsions:
REMARK  status: ('A' for Active; 'I' for Inactive)
REMARK    1  A    between atoms: C_1  and  C_2
REMARK    2  A    between atoms: C_2  and  C_3
REMARK    3  A    between atoms: C_3  and  C_4
REMARK    4  A    between atoms: C_4  and  O_5
REMARK    5  A    between atoms: O_5  and  C_6
REMARK    6  A    between atoms: C_14  and  C_16
REMARK    7  A    between atoms: N_18  and  C_19
REMARK    8  A    between atoms: C_19  and  C_20
REMARK    9  A    between atoms: C_20  and  N_21
REMARK   10  A    between atoms: N_21  and  C_22
REMARK   11  A    between atoms: N_21  and  C_24
REMARK   12  A    between atoms: C_22  and  C_23
REMARK   13  A    between atoms: C_24  and  C_25
REMARK                            x       y       z     vdW  Elec       q    Type
REMARK                         _______ _______ _______ _____ _____    ______ ____
ROOT
ATOM      1  C   UNL     1      -8.933   1.082 123.251  0.00  0.00    +0.000 A 
ATOM      2  N   UNL     1      -9.337  -0.178 123.001  0.00  0.00    +0.000 NA
ATOM      3  C   UNL     1      -8.784  -1.187 123.710  0.00  0.00    +0.000 A 
ATOM      4  C   UNL     1      -9.202  -2.494 123.441  0.00  0.00    +0.000 A 
ATOM      5  C   UNL     1      -8.719  -3.618 124.123  0.00  0.00    +0.000 A 
ATOM      6  C   UNL     1      -7.772  -3.453 125.097  0.00  0.00    +0.000 A 
ATOM      7  C   UNL     1      -7.308  -2.178 125.342  0.00  0.00    +0.000 A 
ATOM      8  C   UNL     1      -7.792  -0.995 124.699  0.00  0.00    +0.000 A 
ATOM      9  C   UNL     1      -7.377   0.356 124.928  0.00  0.00    +0.000 A 
ATOM     10  C   UNL     1      -7.965   1.396 124.185  0.00  0.00    +0.000 A 
ENDROOT
BRANCH   9  11
ATOM     11  C   UNL     1      -6.307   0.788 125.912  0.00  0.00    +0.000 C 
ATOM     12  O   UNL     1      -5.187   0.323 125.847  0.00  0.00    +0.000 OA
ATOM     13  N   UNL     1      -6.651   1.776 126.833  0.00  0.00    +0.000 N 
ATOM     14  H   UNL     1      -7.141   2.514 126.385  0.00  0.00    +0.000 HD
BRANCH  13  15
ATOM     15  C   UNL     1      -5.646   2.408 127.636  0.00  0.00    +0.000 C 
BRANCH  15  16
ATOM     16  C   UNL     1      -5.259   3.836 127.182  0.00  0.00    +0.000 C 
BRANCH  16  17
ATOM     17  N   UNL     1      -3.841   4.178 127.438  0.00  0.00    +0.000 NA
BRANCH  17  18
ATOM     18  C   UNL     1      -2.931   3.780 126.339  0.00  0.00    +0.000 C 
ATOM     19  C   UNL     1      -1.713   2.933 126.693  0.00  0.00    +0.000 C 
ENDBRANCH  17  18
BRANCH  17  20
ATOM     20  C   UNL     1      -3.719   5.635 127.704  0.00  0.00    +0.000 C 
ATOM     21  C   UNL     1      -2.475   5.988 128.522  0.00  0.00    +0.000 C 
ENDBRANCH  17  20
ENDBRANCH  16  17
ENDBRANCH  15  16
ENDBRANCH  13  15
ENDBRANCH   9  11
BRANCH   1  22
ATOM     22  O   UNL     1      -9.400   2.118 122.460  0.00  0.00    +0.000 OA
BRANCH  22  23
ATOM     23  C   UNL     1      -8.418   3.128 122.192  0.00  0.00    +0.000 C 
BRANCH  23  24
ATOM     24  C   UNL     1      -8.697   3.719 120.802  0.00  0.00    +0.000 C 
BRANCH  24  26
ATOM     25  C   UNL     1      -6.179   3.873 120.910  0.00  0.00    +0.000 C 
ATOM     26  C   UNL     1      -7.412   4.025 120.029  0.00  0.00    +0.000 C 
ENDBRANCH  24  26
ENDBRANCH  23  24
ENDBRANCH  22  23
ENDBRANCH   1  22
TORSDOF 10
ENDMDL
MODEL 3
REMARK VINA RESULT:      -6.4      3.184      6.795
REMARK  Name = Cinchocaine
REMARK  13 active torsions:
REMARK  status: ('A' for Active; 'I' for Inactive)
REMARK    1  A    between atoms: C_1  and  C_2
REMARK    2  A    between atoms: C_2  and  C_3
REMARK    3  A    between atoms: C_3  and  C_4
REMARK    4  A    between atoms: C_4  and  O_5
REMARK    5  A    between atoms: O_5  and  C_6
REMARK    6  A    between atoms: C_14  and  C_16
REMARK    7  A    between atoms: N_18  and  C_19
REMARK    8  A    between atoms: C_19  and  C_20
REMARK    9  A    between atoms: C_20  and  N_21
REMARK   10  A    between atoms: N_21  and  C_22
REMARK   11  A    between atoms: N_21  and  C_24
REMARK   12  A    between atoms: C_22  and  C_23
REMARK   13  A    between atoms: C_24  and  C_25
REMARK                            x       y       z     vdW  Elec       q    Type
REMARK                         _______ _______ _______ _____ _____    ______ ____
ROOT
ATOM      1  C   UNL     1      -7.979  -2.437 128.029  0.00  0.00    +0.000 A 
ATOM      2  N   UNL     1      -8.276  -3.283 127.025  0.00  0.00    +0.000 NA
ATOM      3  C   UNL     1      -8.539  -2.769 125.803  0.00  0.00    +0.000 A 
ATOM      4  C   UNL     1      -8.855  -3.652 124.765  0.00  0.00    +0.000 A 
ATOM      5  C   UNL     1      -9.124  -3.241 123.453  0.00  0.00    +0.000 A 
ATOM      6  C   UNL     1      -9.102  -1.907 123.152  0.00  0.00    +0.000 A 
ATOM      7  C   UNL     1      -8.845  -1.016 124.173  0.00  0.00    +0.000 A 
ATOM      8  C   UNL     1      -8.529  -1.385 125.519  0.00  0.00    +0.000 A 
ATOM      9  C   UNL     1      -8.223  -0.514 126.614  0.00  0.00    +0.000 A 
ATOM     10  C   UNL     1      -7.948  -1.064 127.879  0.00  0.00    +0.000 A 
ENDROOT
BRANCH   9  11
ATOM     11  C   UNL     1      -8.190   1.001 126.546  0.00  0.00    +0.000 C 
ATOM     12  O   UNL     1      -9.040   1.660 127.110  0.00  0.00    +0.000 OA
ATOM     13  N   UNL     1      -7.119   1.585 125.874  0.00  0.00    +0.000 N 
ATOM     14  H   UNL     1      -6.265   1.152 126.136  0.00  0.00    +0.000 HD
BRANCH  13  15
ATOM     15  C   UNL     1      -6.883   2.996 125.961  0.00  0.00    +0.000 C 
BRANCH  15  16
ATOM     16  C   UNL     1      -7.344   3.806 124.725  0.00  0.00    +0.000 C 
BRANCH  16  17
ATOM     17  N   UNL     1      -6.998   3.170 123.433  0.00  0.00    +0.000 NA
BRANCH  17  18
ATOM     18  C   UNL     1      -8.128   3.127 122.477  0.00  0.00    +0.000 C 
ATOM     19  C   UNL     1      -9.233   2.105 122.724  0.00  0.00    +0.000 C 
ENDBRANCH  17  18
BRANCH  17  20
ATOM     20  C   UNL     1      -5.838   3.872 122.827  0.00  0.00    +0.000 C 
ATOM     21  C   UNL     1      -5.694   3.599 121.328  0.00  0.00    +0.000 C 
ENDBRANCH  17  20
ENDBRANCH  16  17
ENDBRANCH  15  16
ENDBRANCH  13  15
ENDBRANCH   9  11
BRANCH   1  22
ATOM     22  O   UNL     1      -7.819  -2.931 129.312  0.00  0.00    +0.000 OA
BRANCH  22  23
ATOM     23  C   UNL     1      -6.631  -2.464 129.967  0.00  0.00    +0.000 C 
BRANCH  23  24
ATOM     24  C   UNL     1      -5.507  -3.479 129.714  0.00  0.00    +0.000 C 
BRANCH  24  26
ATOM     25  C   UNL     1      -3.099  -3.802 129.025  0.00  0.00    +0.000 C 
ATOM     26  C   UNL     1      -4.282  -2.842 129.055  0.00  0.00    +0.000 C 
ENDBRANCH  24  26
ENDBRANCH  23  24
ENDBRANCH  22  23
ENDBRANCH   1  22
TORSDOF 10
ENDMDL
MODEL 4
REMARK VINA RESULT:      -6.4      3.144      8.105
REMARK  Name = Cinchocaine
REMARK  13 active torsions:
REMARK  status: ('A' for Active; 'I' for Inactive)
REMARK    1  A    between atoms: C_1  and  C_2
REMARK    2  A    between atoms: C_2  and  C_3
REMARK    3  A    between atoms: C_3  and  C_4
REMARK    4  A    between atoms: C_4  and  O_5
REMARK    5  A    between atoms: O_5  and  C_6
REMARK    6  A    between atoms: C_14  and  C_16
REMARK    7  A    between atoms: N_18  and  C_19
REMARK    8  A    between atoms: C_19  and  C_20
REMARK    9  A    between atoms: C_20  and  N_21
REMARK   10  A    between atoms: N_21  and  C_22
REMARK   11  A    between atoms: N_21  and  C_24
REMARK   12  A    between atoms: C_22  and  C_23
REMARK   13  A    between atoms: C_24  and  C_25
REMARK                            x       y       z     vdW  Elec       q    Type
REMARK                         _______ _______ _______ _____ _____    ______ ____
ROOT
ATOM      1  C   UNL     1      -8.207  -1.031 124.772  0.00  0.00    +0.000 A 
ATOM      2  N   UNL     1      -8.700  -2.150 125.337  0.00  0.00    +0.000 NA
ATOM      3  C   UNL     1      -8.472  -2.363 126.652  0.00  0.00    +0.000 A 
ATOM      4  C   UNL     1      -8.981  -3.530 127.232  0.00  0.00    +0.000 A 
ATOM      5  C   UNL     1      -8.829  -3.851 128.588  0.00  0.00    +0.000 A 
ATOM      6  C   UNL     1      -8.133  -3.001 129.403  0.00  0.00    +0.000 A 
ATOM      7  C   UNL     1      -7.579  -1.870 128.839  0.00  0.00    +0.000 A 
ATOM      8  C   UNL     1      -7.734  -1.480 127.472  0.00  0.00    +0.000 A 
ATOM      9  C   UNL     1      -7.213  -0.308 126.834  0.00  0.00    +0.000 A 
ATOM     10  C   UNL     1      -7.461  -0.097 125.465  0.00  0.00    +0.000 A 
ENDROOT
BRANCH   9  11
ATOM     11  C   UNL     1      -6.367   0.754 127.509  0.00  0.00    +0.000 C 
ATOM     12  O   UNL     1      -5.324   0.454 128.056  0.00  0.00    +0.000 OA
ATOM     13  N   UNL     1      -6.804   2.073 127.412  0.00  0.00    +0.000 N 
ATOM     14  H   UNL     1      -7.085   2.280 126.483  0.00  0.00    +0.000 HD
BRANCH  13  15
ATOM     15  C   UNL     1      -5.955   3.156 127.812  0.00  0.00    +0.000 C 
BRANCH  15  16
ATOM     16  C   UNL     1      -5.190   3.840 126.652  0.00  0.00    +0.000 C 
BRANCH  16  17
ATOM     17  N   UNL     1      -3.825   4.281 127.017  0.00  0.00    +0.000 NA
BRANCH  17  18
ATOM     18  C   UNL     1      -3.800   5.255 128.133  0.00  0.00    +0.000 C 
ATOM     19  C   UNL     1      -2.694   6.306 128.139  0.00  0.00    +0.000 C 
ENDBRANCH  17  18
BRANCH  17  20
ATOM     20  C   UNL     1      -2.990   3.098 127.349  0.00  0.00    +0.000 C 
ATOM     21  C   UNL     1      -1.685   3.048 126.552  0.00  0.00    +0.000 C 
ENDBRANCH  17  20
ENDBRANCH  16  17
ENDBRANCH  15  16
ENDBRANCH  13  15
ENDBRANCH   9  11
BRANCH   1  22
ATOM     22  O   UNL     1      -8.328  -0.847 123.405  0.00  0.00    +0.000 OA
BRANCH  22  23
ATOM     23  C   UNL     1      -7.748  -1.902 122.627  0.00  0.00    +0.000 C 
BRANCH  23  24
ATOM     24  C   UNL     1      -6.223  -1.714 122.615  0.00  0.00    +0.000 C 
BRANCH  24  26
ATOM     25  C   UNL     1      -5.223  -3.001 124.543  0.00  0.00    +0.000 C 
ATOM     26  C   UNL     1      -5.475  -2.979 123.041  0.00  0.00    +0.000 C 
ENDBRANCH  24  26
ENDBRANCH  23  24
ENDBRANCH  22  23
ENDBRANCH   1  22
TORSDOF 10
ENDMDL
MODEL 5
REMARK VINA RESULT:      -6.3      3.827      6.994
REMARK  Name = Cinchocaine
REMARK  13 active torsions:
REMARK  status: ('A' for Active; 'I' for Inactive)
REMARK    1  A    between atoms: C_1  and  C_2
REMARK    2  A    between atoms: C_2  and  C_3
REMARK    3  A    between atoms: C_3  and  C_4
REMARK    4  A    between atoms: C_4  and  O_5
REMARK    5  A    between atoms: O_5  and  C_6
REMARK    6  A    between atoms: C_14  and  C_16
REMARK    7  A    between atoms: N_18  and  C_19
REMARK    8  A    between atoms: C_19  and  C_20
REMARK    9  A    between atoms: C_20  and  N_21
REMARK   10  A    between atoms: N_21  and  C_22
REMARK   11  A    between atoms: N_21  and  C_24
REMARK   12  A    between atoms: C_22  and  C_23
REMARK   13  A    between atoms: C_24  and  C_25
REMARK                            x       y       z     vdW  Elec       q    Type
REMARK                         _______ _______ _______ _____ _____    ______ ____
ROOT
ATOM      1  C   UNL     1      -9.083  -0.674 124.190  0.00  0.00    +0.000 A 
ATOM      2  N   UNL     1      -8.134  -0.939 123.271  0.00  0.00    +0.000 NA
ATOM      3  C   UNL     1      -7.127  -1.776 123.605  0.00  0.00    +0.000 A 
ATOM      4  C   UNL     1      -6.141  -2.041 122.649  0.00  0.00    +0.000 A 
ATOM      5  C   UNL     1      -5.062  -2.907 122.869  0.00  0.00    +0.000 A 
ATOM      6  C   UNL     1      -4.935  -3.522 124.084  0.00  0.00    +0.000 A 
ATOM      7  C   UNL     1      -5.867  -3.234 125.058  0.00  0.00    +0.000 A 
ATOM      8  C   UNL     1      -7.005  -2.386 124.873  0.00  0.00    +0.000 A 
ATOM      9  C   UNL     1      -8.024  -2.071 125.830  0.00  0.00    +0.000 A 
ATOM     10  C   UNL     1      -9.068  -1.201 125.466  0.00  0.00    +0.000 A 
ENDROOT
BRANCH   9  11
ATOM     11  C   UNL     1      -8.074  -2.583 127.256  0.00  0.00    +0.000 C 
ATOM     12  O   UNL     1      -8.743  -3.557 127.537  0.00  0.00    +0.000 OA
ATOM     13  N   UNL     1      -7.276  -1.931 128.195  0.00  0.00    +0.000 N 
ATOM     14  H   UNL     1      -6.366  -1.776 127.830  0.00  0.00    +0.000 HD
BRANCH  13  15
ATOM     15  C   UNL     1      -7.082  -2.488 129.501  0.00  0.00    +0.000 C 
BRANCH  15  16
ATOM     16  C   UNL     1      -5.787  -3.322 129.662  0.00  0.00    +0.000 C 
BRANCH  16  17
ATOM     17  N   UNL     1      -4.881  -2.817 130.719  0.00  0.00    +0.000 NA
BRANCH  17  18
ATOM     18  C   UNL     1      -4.894  -3.642 131.949  0.00  0.00    +0.000 C 
ATOM     19  C   UNL     1      -5.359  -5.091 131.831  0.00  0.00    +0.000 C 
ENDBRANCH  17  18
BRANCH  17  20
ATOM     20  C   UNL     1      -3.499  -2.713 130.184  0.00  0.00    +0.000 C 
ATOM     21  C   UNL     1      -3.228  -3.695 129.043  0.00  0.00    +0.000 C 
ENDBRANCH  17  20
ENDBRANCH  16  17
ENDBRANCH  15  16
ENDBRANCH  13  15
ENDBRANCH   9  11
BRANCH   1  22
ATOM     22  O   UNL     1     -10.059   0.267 123.911  0.00  0.00    +0.000 OA
BRANCH  22  23
ATOM     23  C   UNL     1      -9.686   1.198 122.886  0.00  0.00    +0.000 C 
BRANCH  23  24
ATOM     24  C   UNL     1      -9.013   2.408 123.552  0.00  0.00    +0.000 C 
BRANCH  24  26
ATOM     25  C   UNL     1      -8.714   3.441 121.268  0.00  0.00    +0.000 C 
ATOM     26  C   UNL     1      -8.055   3.137 122.607  0.00  0.00    +0.000 C 
ENDBRANCH  24  26
ENDBRANCH  23  24
ENDBRANCH  22  23
ENDBRANCH   1  22
TORSDOF 10
ENDMDL
MODEL 6
REMARK VINA RESULT:      -6.3      3.228      6.182
REMARK  Name = Cinchocaine
REMARK  13 active torsions:
REMARK  status: ('A' for Active; 'I' for Inactive)
REMARK    1  A    between atoms: C_1  and  C_2
REMARK    2  A    between atoms: C_2  and  C_3
REMARK    3  A    between atoms: C_3  and  C_4
REMARK    4  A    between atoms: C_4  and  O_5
REMARK    5  A    between atoms: O_5  and  C_6
REMARK    6  A    between atoms: C_14  and  C_16
REMARK    7  A    between atoms: N_18  and  C_19
REMARK    8  A    between atoms: C_19  and  C_20
REMARK    9  A    between atoms: C_20  and  N_21
REMARK   10  A    between atoms: N_21  and  C_22
REMARK   11  A    between atoms: N_21  and  C_24
REMARK   12  A    between atoms: C_22  and  C_23
REMARK   13  A    between atoms: C_24  and  C_25
REMARK                            x       y       z     vdW  Elec       q    Type
REMARK                         _______ _______ _______ _____ _____    ______ ____
ROOT
ATOM      1  C   UNL     1      -8.510   1.578 124.130  0.00  0.00    +0.000 A 
ATOM      2  N   UNL     1      -8.945   0.609 123.302  0.00  0.00    +0.000 NA
ATOM      3  C   UNL     1      -8.875  -0.675 123.719  0.00  0.00    +0.000 A 
ATOM      4  C   UNL     1      -9.320  -1.679 122.852  0.00  0.00    +0.000 A 
ATOM      5  C   UNL     1      -9.318  -3.041 123.178  0.00  0.00    +0.000 A 
ATOM      6  C   UNL     1      -8.841  -3.436 124.398  0.00  0.00    +0.000 A 
ATOM      7  C   UNL     1      -8.349  -2.467 125.247  0.00  0.00    +0.000 A 
ATOM      8  C   UNL     1      -8.360  -1.062 124.976  0.00  0.00    +0.000 A 
ATOM      9  C   UNL     1      -7.895  -0.006 125.824  0.00  0.00    +0.000 A 
ATOM     10  C   UNL     1      -7.978   1.326 125.379  0.00  0.00    +0.000 A 
ENDROOT
BRANCH   9  11
ATOM     11  C   UNL     1      -7.275  -0.192 127.196  0.00  0.00    +0.000 C 
ATOM     12  O   UNL     1      -7.912   0.062 128.198  0.00  0.00    +0.000 OA
ATOM     13  N   UNL     1      -5.988  -0.724 127.246  0.00  0.00    +0.000 N 
ATOM     14  H   UNL     1      -5.908  -1.501 126.634  0.00  0.00    +0.000 HD
BRANCH  13  15
ATOM     15  C   UNL     1      -5.422  -1.150 128.492  0.00  0.00    +0.000 C 
BRANCH  15  16
ATOM     16  C   UNL     1      -5.666  -2.640 128.836  0.00  0.00    +0.000 C 
BRANCH  16  17
ATOM     17  N   UNL     1      -6.354  -2.847 130.131  0.00  0.00    +0.000 NA
BRANCH  17  18
ATOM     18  C   UNL     1      -7.823  -2.990 130.000  0.00  0.00    +0.000 C 
ATOM     19  C   UNL     1      -8.374  -3.506 128.674  0.00  0.00    +0.000 C 
ENDBRANCH  17  18
BRANCH  17  20
ATOM     20  C   UNL     1      -5.782  -4.034 130.816  0.00  0.00    +0.000 C 
ATOM     21  C   UNL     1      -4.269  -3.930 131.023  0.00  0.00    +0.000 C 
ENDBRANCH  17  20
ENDBRANCH  16  17
ENDBRANCH  15  16
ENDBRANCH  13  15
ENDBRANCH   9  11
BRANCH   1  22
ATOM     22  O   UNL     1      -8.465   2.888 123.682  0.00  0.00    +0.000 OA
BRANCH  22  23
ATOM     23  C   UNL     1      -7.942   3.026 122.354  0.00  0.00    +0.000 C 
BRANCH  23  24
ATOM     24  C   UNL     1      -6.421   3.227 122.451  0.00  0.00    +0.000 C 
BRANCH  24  26
ATOM     25  C   UNL     1      -5.374   4.556 120.577  0.00  0.00    +0.000 C 
ATOM     26  C   UNL     1      -5.736   3.166 121.085  0.00  0.00    +0.000 C 
ENDBRANCH  24  26
ENDBRANCH  23  24
ENDBRANCH  22  23
ENDBRANCH   1  22
TORSDOF 10
ENDMDL
MODEL 7
REMARK VINA RESULT:      -6.3      7.017      9.122
REMARK  Name = Cinchocaine
REMARK  13 active torsions:
REMARK  status: ('A' for Active; 'I' for Inactive)
REMARK    1  A    between atoms: C_1  and  C_2
REMARK    2  A    between atoms: C_2  and  C_3
REMARK    3  A    between atoms: C_3  and  C_4
REMARK    4  A    between atoms: C_4  and  O_5
REMARK    5  A    between atoms: O_5  and  C_6
REMARK    6  A    between atoms: C_14  and  C_16
REMARK    7  A    between atoms: N_18  and  C_19
REMARK    8  A    between atoms: C_19  and  C_20
REMARK    9  A    between atoms: C_20  and  N_21
REMARK   10  A    between atoms: N_21  and  C_22
REMARK   11  A    between atoms: N_21  and  C_24
REMARK   12  A    between atoms: C_22  and  C_23
REMARK   13  A    between atoms: C_24  and  C_25
REMARK                            x       y       z     vdW  Elec       q    Type
REMARK                         _______ _______ _______ _____ _____    ______ ____
ROOT
ATOM      1  C   UNL     1     -10.632   4.591 130.547  0.00  0.00    +0.000 A 
ATOM      2  N   UNL     1     -10.143   5.453 131.459  0.00  0.00    +0.000 NA
ATOM      3  C   UNL     1      -9.341   4.974 132.436  0.00  0.00    +0.000 A 
ATOM      4  C   UNL     1      -8.843   5.873 133.385  0.00  0.00    +0.000 A 
ATOM      5  C   UNL     1      -7.986   5.501 134.430  0.00  0.00    +0.000 A 
ATOM      6  C   UNL     1      -7.620   4.189 134.559  0.00  0.00    +0.000 A 
ATOM      7  C   UNL     1      -8.142   3.278 133.665  0.00  0.00    +0.000 A 
ATOM      8  C   UNL     1      -8.990   3.611 132.562  0.00  0.00    +0.000 A 
ATOM      9  C   UNL     1      -9.539   2.721 131.583  0.00  0.00    +0.000 A 
ATOM     10  C   UNL     1     -10.369   3.235 130.570  0.00  0.00    +0.000 A 
ENDROOT
BRANCH   9  11
ATOM     11  C   UNL     1      -9.325   1.221 131.545  0.00  0.00    +0.000 C 
ATOM     12  O   UNL     1     -10.115   0.473 132.085  0.00  0.00    +0.000 OA
ATOM     13  N   UNL     1      -8.234   0.751 130.816  0.00  0.00    +0.000 N 
ATOM     14  H   UNL     1      -8.178   1.212 129.939  0.00  0.00    +0.000 HD
BRANCH  13  15
ATOM     15  C   UNL     1      -8.092  -0.646 130.533  0.00  0.00    +0.000 C 
BRANCH  15  16
ATOM     16  C   UNL     1      -6.743  -1.039 129.881  0.00  0.00    +0.000 C 
BRANCH  16  17
ATOM     17  N   UNL     1      -6.800  -2.305 129.113  0.00  0.00    +0.000 NA
BRANCH  17  18
ATOM     18  C   UNL     1      -5.653  -3.204 129.376  0.00  0.00    +0.000 C 
ATOM     19  C   UNL     1      -5.781  -4.206 130.520  0.00  0.00    +0.000 C 
ENDBRANCH  17  18
BRANCH  17  20
ATOM     20  C   UNL     1      -8.078  -3.005 129.397  0.00  0.00    +0.000 C 
ATOM     21  C   UNL     1      -8.672  -3.686 128.162  0.00  0.00    +0.000 C 
ENDBRANCH  17  20
ENDBRANCH  16  17
ENDBRANCH  15  16
ENDBRANCH  13  15
ENDBRANCH   9  11
BRANCH   1  22
ATOM     22  O   UNL     1     -11.545   5.037 129.607  0.00  0.00    +0.000 OA
BRANCH  22  23
ATOM     23  C   UNL     1     -11.780   6.451 129.658  0.00  0.00    +0.000 C 
BRANCH  23  24
ATOM     24  C   UNL     1     -11.181   7.088 128.395  0.00  0.00    +0.000 C 
BRANCH  24  26
ATOM     25  C   UNL     1     -12.699   9.034 128.925  0.00  0.00    +0.000 C 
ATOM     26  C   UNL     1     -11.344   8.609 128.373  0.00  0.00    +0.000 C 
ENDBRANCH  24  26
ENDBRANCH  23  24
ENDBRANCH  22  23
ENDBRANCH   1  22
TORSDOF 10
ENDMDL
MODEL 8
REMARK VINA RESULT:      -6.3      3.006      5.765
REMARK  Name = Cinchocaine
REMARK  13 active torsions:
REMARK  status: ('A' for Active; 'I' for Inactive)
REMARK    1  A    between atoms: C_1  and  C_2
REMARK    2  A    between atoms: C_2  and  C_3
REMARK    3  A    between atoms: C_3  and  C_4
REMARK    4  A    between atoms: C_4  and  O_5
REMARK    5  A    between atoms: O_5  and  C_6
REMARK    6  A    between atoms: C_14  and  C_16
REMARK    7  A    between atoms: N_18  and  C_19
REMARK    8  A    between atoms: C_19  and  C_20
REMARK    9  A    between atoms: C_20  and  N_21
REMARK   10  A    between atoms: N_21  and  C_22
REMARK   11  A    between atoms: N_21  and  C_24
REMARK   12  A    between atoms: C_22  and  C_23
REMARK   13  A    between atoms: C_24  and  C_25
REMARK                            x       y       z     vdW  Elec       q    Type
REMARK                         _______ _______ _______ _____ _____    ______ ____
ROOT
ATOM      1  C   UNL     1      -8.811   0.151 124.028  0.00  0.00    +0.000 A 
ATOM      2  N   UNL     1      -8.124   1.006 123.247  0.00  0.00    +0.000 NA
ATOM      3  C   UNL     1      -7.383   1.969 123.839  0.00  0.00    +0.000 A 
ATOM      4  C   UNL     1      -6.677   2.859 123.023  0.00  0.00    +0.000 A 
ATOM      5  C   UNL     1      -5.859   3.883 123.518  0.00  0.00    +0.000 A 
ATOM      6  C   UNL     1      -5.746   4.052 124.871  0.00  0.00    +0.000 A 
ATOM      7  C   UNL     1      -6.474   3.219 125.693  0.00  0.00    +0.000 A 
ATOM      8  C   UNL     1      -7.295   2.138 125.239  0.00  0.00    +0.000 A 
ATOM      9  C   UNL     1      -8.050   1.220 126.038  0.00  0.00    +0.000 A 
ATOM     10  C   UNL     1      -8.813   0.220 125.407  0.00  0.00    +0.000 A 
ENDROOT
BRANCH   9  11
ATOM     11  C   UNL     1      -8.130   1.237 127.552  0.00  0.00    +0.000 C 
ATOM     12  O   UNL     1      -8.991   1.882 128.115  0.00  0.00    +0.000 OA
ATOM     13  N   UNL     1      -7.225   0.435 128.247  0.00  0.00    +0.000 N 
ATOM     14  H   UNL     1      -7.169  -0.465 127.833  0.00  0.00    +0.000 HD
BRANCH  13  15
ATOM     15  C   UNL     1      -7.380   0.209 129.653  0.00  0.00    +0.000 C 
BRANCH  15  16
ATOM     16  C   UNL     1      -7.895  -1.202 130.028  0.00  0.00    +0.000 C 
BRANCH  16  17
ATOM     17  N   UNL     1      -6.946  -2.290 129.695  0.00  0.00    +0.000 NA
BRANCH  17  18
ATOM     18  C   UNL     1      -6.848  -3.327 130.749  0.00  0.00    +0.000 C 
ATOM     19  C   UNL     1      -5.781  -4.406 130.590  0.00  0.00    +0.000 C 
ENDBRANCH  17  18
BRANCH  17  20
ATOM     20  C   UNL     1      -7.329  -2.908 128.400  0.00  0.00    +0.000 C 
ATOM     21  C   UNL     1      -8.699  -3.589 128.447  0.00  0.00    +0.000 C 
ENDBRANCH  17  20
ENDBRANCH  16  17
ENDBRANCH  15  16
ENDBRANCH  13  15
ENDBRANCH   9  11
BRANCH   1  22
ATOM     22  O   UNL     1      -9.665  -0.769 123.445  0.00  0.00    +0.000 OA
BRANCH  22  23
ATOM     23  C   UNL     1      -8.989  -1.849 122.787  0.00  0.00    +0.000 C 
BRANCH  23  24
ATOM     24  C   UNL     1      -9.447  -3.169 123.425  0.00  0.00    +0.000 C 
BRANCH  24  26
ATOM     25  C   UNL     1      -7.169  -3.477 124.470  0.00  0.00    +0.000 C 
ATOM     26  C   UNL     1      -8.674  -3.499 124.704  0.00  0.00    +0.000 C 
ENDBRANCH  24  26
ENDBRANCH  23  24
ENDBRANCH  22  23
ENDBRANCH   1  22
TORSDOF 10
ENDMDL
MODEL 9
REMARK VINA RESULT:      -6.2      2.552      7.805
REMARK  Name = Cinchocaine
REMARK  13 active torsions:
REMARK  status: ('A' for Active; 'I' for Inactive)
REMARK    1  A    between atoms: C_1  and  C_2
REMARK    2  A    between atoms: C_2  and  C_3
REMARK    3  A    between atoms: C_3  and  C_4
REMARK    4  A    between atoms: C_4  and  O_5
REMARK    5  A    between atoms: O_5  and  C_6
REMARK    6  A    between atoms: C_14  and  C_16
REMARK    7  A    between atoms: N_18  and  C_19
REMARK    8  A    between atoms: C_19  and  C_20
REMARK    9  A    between atoms: C_20  and  N_21
REMARK   10  A    between atoms: N_21  and  C_22
REMARK   11  A    between atoms: N_21  and  C_24
REMARK   12  A    between atoms: C_22  and  C_23
REMARK   13  A    between atoms: C_24  and  C_25
REMARK                            x       y       z     vdW  Elec       q    Type
REMARK                         _______ _______ _______ _____ _____    ______ ____
ROOT
ATOM      1  C   UNL     1      -8.941  -1.678 125.380  0.00  0.00    +0.000 A 
ATOM      2  N   UNL     1      -8.935  -2.672 126.289  0.00  0.00    +0.000 NA
ATOM      3  C   UNL     1      -8.384  -2.437 127.500  0.00  0.00    +0.000 A 
ATOM      4  C   UNL     1      -8.373  -3.476 128.436  0.00  0.00    +0.000 A 
ATOM      5  C   UNL     1      -7.850  -3.347 129.730  0.00  0.00    +0.000 A 
ATOM      6  C   UNL     1      -7.298  -2.156 130.113  0.00  0.00    +0.000 A 
ATOM      7  C   UNL     1      -7.250  -1.136 129.187  0.00  0.00    +0.000 A 
ATOM      8  C   UNL     1      -7.800  -1.204 127.867  0.00  0.00    +0.000 A 
ATOM      9  C   UNL     1      -7.812  -0.174 126.872  0.00  0.00    +0.000 A 
ATOM     10  C   UNL     1      -8.393  -0.432 125.617  0.00  0.00    +0.000 A 
ENDROOT
BRANCH   9  11
ATOM     11  C   UNL     1      -7.214   1.210 127.036  0.00  0.00    +0.000 C 
ATOM     12  O   UNL     1      -6.009   1.362 127.043  0.00  0.00    +0.000 OA
ATOM     13  N   UNL     1      -8.101   2.282 127.108  0.00  0.00    +0.000 N 
ATOM     14  H   UNL     1      -8.802   2.201 126.410  0.00  0.00    +0.000 HD
BRANCH  13  15
ATOM     15  C   UNL     1      -7.624   3.631 127.026  0.00  0.00    +0.000 C 
BRANCH  15  16
ATOM     16  C   UNL     1      -7.609   4.226 125.597  0.00  0.00    +0.000 C 
BRANCH  16  17
ATOM     17  N   UNL     1      -6.292   4.768 125.191  0.00  0.00    +0.000 NA
BRANCH  17  18
ATOM     18  C   UNL     1      -5.278   4.720 126.270  0.00  0.00    +0.000 C 
ATOM     19  C   UNL     1      -3.986   3.955 126.002  0.00  0.00    +0.000 C 
ENDBRANCH  17  18
BRANCH  17  20
ATOM     20  C   UNL     1      -5.801   4.041 123.992  0.00  0.00    +0.000 C 
ATOM     21  C   UNL     1      -6.670   2.835 123.630  0.00  0.00    +0.000 C 
ENDBRANCH  17  20
ENDBRANCH  16  17
ENDBRANCH  15  16
ENDBRANCH  13  15
ENDBRANCH   9  11
BRANCH   1  22
ATOM     22  O   UNL     1      -9.396  -1.929 124.097  0.00  0.00    +0.000 OA
BRANCH  22  23
ATOM     23  C   UNL     1      -8.521  -2.764 123.327  0.00  0.00    +0.000 C 
BRANCH  23  24
ATOM     24  C   UNL     1      -7.485  -1.869 122.630  0.00  0.00    +0.000 C 
BRANCH  24  26
ATOM     25  C   UNL     1      -5.992  -3.247 124.129  0.00  0.00    +0.000 C 
ATOM     26  C   UNL     1      -6.047  -2.275 122.957  0.00  0.00    +0.000 C 
ENDBRANCH  24  26
ENDBRANCH  23  24
ENDBRANCH  22  23
ENDBRANCH   1  22
TORSDOF 10
ENDMDL
