MODEL 1
REMARK VINA RESULT:      -5.4      0.000      0.000
REMARK  Name = Cinnamaldehyde
REMARK  2 active torsions:
REMARK  status: ('A' for Active; 'I' for Inactive)
REMARK    1  A    between atoms: C_2  and  C_3
REMARK    2  A    between atoms: C_4  and  C_5
REMARK                            x       y       z     vdW  Elec       q    Type
REMARK                         _______ _______ _______ _____ _____    ______ ____
ROOT
ATOM      1  C   UNL     1      -6.693   3.795 121.115  0.00  0.00    +0.000 A 
ATOM      2  C   UNL     1      -5.446   4.428 121.061  0.00  0.00    +0.000 A 
ATOM      3  C   UNL     1      -5.102   5.212 119.953  0.00  0.00    +0.000 A 
ATOM      4  C   UNL     1      -5.975   5.323 118.871  0.00  0.00    +0.000 A 
ATOM      5  C   UNL     1      -7.218   4.699 118.918  0.00  0.00    +0.000 A 
ATOM      6  C   UNL     1      -7.580   3.960 120.042  0.00  0.00    +0.000 A 
ENDROOT
BRANCH   1   8
ATOM      7  C   UNL     1      -8.390   3.005 122.684  0.00  0.00    +0.000 C 
ATOM      8  C   UNL     1      -7.108   3.010 122.287  0.00  0.00    +0.000 C 
BRANCH   7  10
ATOM      9  O   UNL     1      -9.124   2.925 124.915  0.00  0.00    +0.000 OA
ATOM     10  C   UNL     1      -8.834   2.301 123.898  0.00  0.00    +0.000 C 
ENDBRANCH   7  10
ENDBRANCH   1   8
TORSDOF 2
ENDMDL
MODEL 2
REMARK VINA RESULT:      -5.3     10.245     11.060
REMARK  Name = Cinnamaldehyde
REMARK  2 active torsions:
REMARK  status: ('A' for Active; 'I' for Inactive)
REMARK    1  A    between atoms: C_2  and  C_3
REMARK    2  A    between atoms: C_4  and  C_5
REMARK                            x       y       z     vdW  Elec       q    Type
REMARK                         _______ _______ _______ _____ _____    ______ ____
ROOT
ATOM      1  C   UNL     1     -12.583   7.384 130.104  0.00  0.00    +0.000 A 
ATOM      2  C   UNL     1     -13.076   6.553 129.090  0.00  0.00    +0.000 A 
ATOM      3  C   UNL     1     -13.611   7.110 127.922  0.00  0.00    +0.000 A 
ATOM      4  C   UNL     1     -13.709   8.495 127.783  0.00  0.00    +0.000 A 
ATOM      5  C   UNL     1     -13.219   9.327 128.785  0.00  0.00    +0.000 A 
ATOM      6  C   UNL     1     -12.642   8.773 129.926  0.00  0.00    +0.000 A 
ENDROOT
BRANCH   1   8
ATOM      7  C   UNL     1     -10.697   6.393 131.296  0.00  0.00    +0.000 C 
ATOM      8  C   UNL     1     -11.964   6.831 131.318  0.00  0.00    +0.000 C 
BRANCH   7  10
ATOM      9  O   UNL     1      -9.267   6.377 133.162  0.00  0.00    +0.000 OA
ATOM     10  C   UNL     1     -10.065   5.757 132.463  0.00  0.00    +0.000 C 
ENDBRANCH   7  10
ENDBRANCH   1   8
TORSDOF 2
ENDMDL
MODEL 3
REMARK VINA RESULT:      -5.2      1.337      2.233
REMARK  Name = Cinnamaldehyde
REMARK  2 active torsions:
REMARK  status: ('A' for Active; 'I' for Inactive)
REMARK    1  A    between atoms: C_2  and  C_3
REMARK    2  A    between atoms: C_4  and  C_5
REMARK                            x       y       z     vdW  Elec       q    Type
REMARK                         _______ _______ _______ _____ _____    ______ ____
ROOT
ATOM      1  C   UNL     1      -7.778   3.375 121.920  0.00  0.00    +0.000 A 
ATOM      2  C   UNL     1      -8.503   3.723 120.773  0.00  0.00    +0.000 A 
ATOM      3  C   UNL     1      -7.838   4.213 119.642  0.00  0.00    +0.000 A 
ATOM      4  C   UNL     1      -6.458   4.411 119.668  0.00  0.00    +0.000 A 
ATOM      5  C   UNL     1      -5.730   4.066 120.803  0.00  0.00    +0.000 A 
ATOM      6  C   UNL     1      -6.385   3.532 121.910  0.00  0.00    +0.000 A 
ENDROOT
BRANCH   1   8
ATOM      7  C   UNL     1      -9.401   1.881 122.967  0.00  0.00    +0.000 C 
ATOM      8  C   UNL     1      -8.438   2.806 123.104  0.00  0.00    +0.000 C 
BRANCH   7  10
ATOM      9  O   UNL     1     -11.357   1.156 124.051  0.00  0.00    +0.000 OA
ATOM     10  C   UNL     1     -10.145   1.346 124.119  0.00  0.00    +0.000 C 
ENDBRANCH   7  10
ENDBRANCH   1   8
TORSDOF 2
ENDMDL
MODEL 4
REMARK VINA RESULT:      -5.1      1.928      2.061
REMARK  Name = Cinnamaldehyde
REMARK  2 active torsions:
REMARK  status: ('A' for Active; 'I' for Inactive)
REMARK    1  A    between atoms: C_2  and  C_3
REMARK    2  A    between atoms: C_4  and  C_5
REMARK                            x       y       z     vdW  Elec       q    Type
REMARK                         _______ _______ _______ _____ _____    ______ ____
ROOT
ATOM      1  C   UNL     1      -6.293   4.022 121.084  0.00  0.00    +0.000 A 
ATOM      2  C   UNL     1      -5.235   4.829 120.651  0.00  0.00    +0.000 A 
ATOM      3  C   UNL     1      -5.307   5.477 119.411  0.00  0.00    +0.000 A 
ATOM      4  C   UNL     1      -6.406   5.279 118.576  0.00  0.00    +0.000 A 
ATOM      5  C   UNL     1      -7.463   4.480 119.001  0.00  0.00    +0.000 A 
ATOM      6  C   UNL     1      -7.414   3.875 120.255  0.00  0.00    +0.000 A 
ENDROOT
BRANCH   1   8
ATOM      7  C   UNL     1      -5.837   4.038 123.483  0.00  0.00    +0.000 C 
ATOM      8  C   UNL     1      -6.274   3.372 122.404  0.00  0.00    +0.000 C 
BRANCH   7  10
ATOM      9  O   UNL     1      -4.701   3.524 125.476  0.00  0.00    +0.000 OA
ATOM     10  C   UNL     1      -5.723   3.402 124.806  0.00  0.00    +0.000 C 
ENDBRANCH   7  10
ENDBRANCH   1   8
TORSDOF 2
ENDMDL
MODEL 5
REMARK VINA RESULT:      -5.1      1.929      2.544
REMARK  Name = Cinnamaldehyde
REMARK  2 active torsions:
REMARK  status: ('A' for Active; 'I' for Inactive)
REMARK    1  A    between atoms: C_2  and  C_3
REMARK    2  A    between atoms: C_4  and  C_5
REMARK                            x       y       z     vdW  Elec       q    Type
REMARK                         _______ _______ _______ _____ _____    ______ ____
ROOT
ATOM      1  C   UNL     1      -6.352   4.035 121.053  0.00  0.00    +0.000 A 
ATOM      2  C   UNL     1      -7.464   3.880 120.217  0.00  0.00    +0.000 A 
ATOM      3  C   UNL     1      -7.485   4.486 118.954  0.00  0.00    +0.000 A 
ATOM      4  C   UNL     1      -6.425   5.296 118.544  0.00  0.00    +0.000 A 
ATOM      5  C   UNL     1      -5.316   5.453 119.369  0.00  0.00    +0.000 A 
ATOM      6  C   UNL     1      -5.273   4.809 120.604  0.00  0.00    +0.000 A 
ENDROOT
BRANCH   1   8
ATOM      7  C   UNL     1      -5.819   4.028 123.436  0.00  0.00    +0.000 C 
ATOM      8  C   UNL     1      -6.273   3.367 122.360  0.00  0.00    +0.000 C 
BRANCH   7  10
ATOM      9  O   UNL     1      -4.751   3.727 125.508  0.00  0.00    +0.000 OA
ATOM     10  C   UNL     1      -5.645   3.375 124.744  0.00  0.00    +0.000 C 
ENDBRANCH   7  10
ENDBRANCH   1   8
TORSDOF 2
ENDMDL
MODEL 6
REMARK VINA RESULT:      -4.8      5.217      7.147
REMARK  Name = Cinnamaldehyde
REMARK  2 active torsions:
REMARK  status: ('A' for Active; 'I' for Inactive)
REMARK    1  A    between atoms: C_2  and  C_3
REMARK    2  A    between atoms: C_4  and  C_5
REMARK                            x       y       z     vdW  Elec       q    Type
REMARK                         _______ _______ _______ _____ _____    ______ ____
ROOT
ATOM      1  C   UNL     1      -7.538  -2.141 123.213  0.00  0.00    +0.000 A 
ATOM      2  C   UNL     1      -7.863  -3.185 124.087  0.00  0.00    +0.000 A 
ATOM      3  C   UNL     1      -6.866  -4.056 124.544  0.00  0.00    +0.000 A 
ATOM      4  C   UNL     1      -5.554  -3.925 124.088  0.00  0.00    +0.000 A 
ATOM      5  C   UNL     1      -5.223  -2.888 123.221  0.00  0.00    +0.000 A 
ATOM      6  C   UNL     1      -6.205  -1.991 122.806  0.00  0.00    +0.000 A 
ENDROOT
BRANCH   1   8
ATOM      7  C   UNL     1      -8.865  -0.113 123.516  0.00  0.00    +0.000 C 
ATOM      8  C   UNL     1      -8.550  -1.175 122.759  0.00  0.00    +0.000 C 
BRANCH   7  10
ATOM      9  O   UNL     1     -10.891   0.462 122.473  0.00  0.00    +0.000 OA
ATOM     10  C   UNL     1      -9.929   0.832 123.140  0.00  0.00    +0.000 C 
ENDBRANCH   7  10
ENDBRANCH   1   8
TORSDOF 2
ENDMDL
MODEL 7
REMARK VINA RESULT:      -4.8      7.279      8.702
REMARK  Name = Cinnamaldehyde
REMARK  2 active torsions:
REMARK  status: ('A' for Active; 'I' for Inactive)
REMARK    1  A    between atoms: C_2  and  C_3
REMARK    2  A    between atoms: C_4  and  C_5
REMARK                            x       y       z     vdW  Elec       q    Type
REMARK                         _______ _______ _______ _____ _____    ______ ____
ROOT
ATOM      1  C   UNL     1      -7.236  -2.973 124.597  0.00  0.00    +0.000 A 
ATOM      2  C   UNL     1      -7.054  -1.588 124.697  0.00  0.00    +0.000 A 
ATOM      3  C   UNL     1      -8.002  -0.799 125.360  0.00  0.00    +0.000 A 
ATOM      4  C   UNL     1      -9.162  -1.378 125.876  0.00  0.00    +0.000 A 
ATOM      5  C   UNL     1      -9.349  -2.754 125.783  0.00  0.00    +0.000 A 
ATOM      6  C   UNL     1      -8.382  -3.545 125.168  0.00  0.00    +0.000 A 
ENDROOT
BRANCH   1   8
ATOM      7  C   UNL     1      -4.927  -3.667 124.213  0.00  0.00    +0.000 C 
ATOM      8  C   UNL     1      -6.233  -3.837 123.957  0.00  0.00    +0.000 C 
BRANCH   7  10
ATOM      9  O   UNL     1      -4.169  -5.479 122.921  0.00  0.00    +0.000 OA
ATOM     10  C   UNL     1      -3.884  -4.452 123.533  0.00  0.00    +0.000 C 
ENDBRANCH   7  10
ENDBRANCH   1   8
TORSDOF 2
ENDMDL
MODEL 8
REMARK VINA RESULT:      -4.7      9.926     10.894
REMARK  Name = Cinnamaldehyde
REMARK  2 active torsions:
REMARK  status: ('A' for Active; 'I' for Inactive)
REMARK    1  A    between atoms: C_2  and  C_3
REMARK    2  A    between atoms: C_4  and  C_5
REMARK                            x       y       z     vdW  Elec       q    Type
REMARK                         _______ _______ _______ _____ _____    ______ ____
ROOT
ATOM      1  C   UNL     1     -10.936   6.837 130.745  0.00  0.00    +0.000 A 
ATOM      2  C   UNL     1      -9.727   7.219 130.151  0.00  0.00    +0.000 A 
ATOM      3  C   UNL     1      -8.510   6.915 130.775  0.00  0.00    +0.000 A 
ATOM      4  C   UNL     1      -8.495   6.282 132.018  0.00  0.00    +0.000 A 
ATOM      5  C   UNL     1      -9.693   5.897 132.613  0.00  0.00    +0.000 A 
ATOM      6  C   UNL     1     -10.901   6.155 131.969  0.00  0.00    +0.000 A 
ENDROOT
BRANCH   1   8
ATOM      7  C   UNL     1     -12.419   6.747 128.808  0.00  0.00    +0.000 C 
ATOM      8  C   UNL     1     -12.228   7.091 130.090  0.00  0.00    +0.000 C 
BRANCH   7  10
ATOM      9  O   UNL     1     -13.886   8.190 127.670  0.00  0.00    +0.000 OA
ATOM     10  C   UNL     1     -13.666   7.056 128.089  0.00  0.00    +0.000 C 
ENDBRANCH   7  10
ENDBRANCH   1   8
TORSDOF 2
ENDMDL
MODEL 9
REMARK VINA RESULT:      -4.7      8.073      9.589
REMARK  Name = Cinnamaldehyde
REMARK  2 active torsions:
REMARK  status: ('A' for Active; 'I' for Inactive)
REMARK    1  A    between atoms: C_2  and  C_3
REMARK    2  A    between atoms: C_4  and  C_5
REMARK                            x       y       z     vdW  Elec       q    Type
REMARK                         _______ _______ _______ _____ _____    ______ ____
ROOT
ATOM      1  C   UNL     1      -8.122  -2.752 126.995  0.00  0.00    +0.000 A 
ATOM      2  C   UNL     1      -6.830  -2.215 127.063  0.00  0.00    +0.000 A 
ATOM      3  C   UNL     1      -6.052  -2.398 128.213  0.00  0.00    +0.000 A 
ATOM      4  C   UNL     1      -6.578  -3.066 129.319  0.00  0.00    +0.000 A 
ATOM      5  C   UNL     1      -7.860  -3.604 129.258  0.00  0.00    +0.000 A 
ATOM      6  C   UNL     1      -8.615  -3.465 128.096  0.00  0.00    +0.000 A 
ENDROOT
BRANCH   1   8
ATOM      7  C   UNL     1      -8.696  -3.394 124.710  0.00  0.00    +0.000 C 
ATOM      8  C   UNL     1      -8.944  -2.626 125.782  0.00  0.00    +0.000 C 
BRANCH   7  10
ATOM      9  O   UNL     1      -9.949  -2.171 123.142  0.00  0.00    +0.000 OA
ATOM     10  C   UNL     1      -9.439  -3.245 123.448  0.00  0.00    +0.000 C 
ENDBRANCH   7  10
ENDBRANCH   1   8
TORSDOF 2
ENDMDL
