MODEL 1
REMARK VINA RESULT:      -8.4      0.000      0.000
REMARK  Name = Cinnarizine
REMARK  6 active torsions:
REMARK  status: ('A' for Active; 'I' for Inactive)
REMARK    1  A    between atoms: C_1  and  C_2
REMARK    2  A    between atoms: C_1  and  N_10
REMARK    3  A    between atoms: C_3  and  C_4
REMARK    4  A    between atoms: N_13  and  C_16
REMARK    5  A    between atoms: C_16  and  C_17
REMARK    6  A    between atoms: C_16  and  C_23
REMARK                            x       y       z     vdW  Elec       q    Type
REMARK                         _______ _______ _______ _____ _____    ______ ____
ROOT
ATOM      1  N   UNL     1      -4.901   3.492 126.332  0.00  0.00    +0.000 NA
ATOM      2  C   UNL     1      -5.472   2.124 126.277  0.00  0.00    +0.000 C 
ATOM      3  C   UNL     1      -7.006   2.107 126.043  0.00  0.00    +0.000 C 
ATOM      4  N   UNL     1      -7.427   2.875 124.830  0.00  0.00    +0.000 NA
ATOM      5  C   UNL     1      -6.897   4.239 125.003  0.00  0.00    +0.000 C 
ATOM      6  C   UNL     1      -5.353   4.240 125.134  0.00  0.00    +0.000 C 
ENDROOT
BRANCH   1   7
ATOM      7  C   UNL     1      -5.360   4.152 127.564  0.00  0.00    +0.000 C 
BRANCH   7   8
ATOM      8  C   UNL     1      -4.230   4.397 128.496  0.00  0.00    +0.000 C 
ATOM      9  C   UNL     1      -4.393   4.545 129.823  0.00  0.00    +0.000 C 
BRANCH   9  10
ATOM     10  C   UNL     1      -3.254   4.915 130.651  0.00  0.00    +0.000 A 
ATOM     11  C   UNL     1      -2.922   4.152 131.772  0.00  0.00    +0.000 A 
ATOM     12  C   UNL     1      -1.860   4.546 132.586  0.00  0.00    +0.000 A 
ATOM     13  C   UNL     1      -1.098   5.668 132.255  0.00  0.00    +0.000 A 
ATOM     14  C   UNL     1      -1.420   6.426 131.134  0.00  0.00    +0.000 A 
ATOM     15  C   UNL     1      -2.506   6.061 130.346  0.00  0.00    +0.000 A 
ENDBRANCH   9  10
ENDBRANCH   7   8
ENDBRANCH   1   7
BRANCH   4  16
ATOM     16  C   UNL     1      -6.914   2.198 123.595  0.00  0.00    +0.000 C 
BRANCH  16  17
ATOM     17  C   UNL     1      -7.538   0.799 123.503  0.00  0.00    +0.000 A 
ATOM     18  C   UNL     1      -6.744  -0.348 123.360  0.00  0.00    +0.000 A 
ATOM     19  C   UNL     1      -7.341  -1.543 122.970  0.00  0.00    +0.000 A 
ATOM     20  C   UNL     1      -8.726  -1.609 122.789  0.00  0.00    +0.000 A 
ATOM     21  C   UNL     1      -9.527  -0.494 123.023  0.00  0.00    +0.000 A 
ATOM     22  C   UNL     1      -8.939   0.700 123.412  0.00  0.00    +0.000 A 
ENDBRANCH  16  17
BRANCH  16  23
ATOM     23  C   UNL     1      -7.091   2.978 122.262  0.00  0.00    +0.000 A 
ATOM     24  C   UNL     1      -8.368   3.282 121.758  0.00  0.00    +0.000 A 
ATOM     25  C   UNL     1      -8.548   3.855 120.503  0.00  0.00    +0.000 A 
ATOM     26  C   UNL     1      -7.449   4.237 119.749  0.00  0.00    +0.000 A 
ATOM     27  C   UNL     1      -6.175   3.973 120.215  0.00  0.00    +0.000 A 
ATOM     28  C   UNL     1      -6.011   3.288 121.416  0.00  0.00    +0.000 A 
ENDBRANCH  16  23
ENDBRANCH   4  16
TORSDOF 6
ENDMDL
MODEL 2
REMARK VINA RESULT:      -8.2      3.707      8.071
REMARK  Name = Cinnarizine
REMARK  6 active torsions:
REMARK  status: ('A' for Active; 'I' for Inactive)
REMARK    1  A    between atoms: C_1  and  C_2
REMARK    2  A    between atoms: C_1  and  N_10
REMARK    3  A    between atoms: C_3  and  C_4
REMARK    4  A    between atoms: N_13  and  C_16
REMARK    5  A    between atoms: C_16  and  C_17
REMARK    6  A    between atoms: C_16  and  C_23
REMARK                            x       y       z     vdW  Elec       q    Type
REMARK                         _______ _______ _______ _____ _____    ______ ____
ROOT
ATOM      1  N   UNL     1      -6.965   2.901 125.600  0.00  0.00    +0.000 NA
ATOM      2  C   UNL     1      -7.453   1.785 124.753  0.00  0.00    +0.000 C 
ATOM      3  C   UNL     1      -6.392   0.675 124.526  0.00  0.00    +0.000 C 
ATOM      4  N   UNL     1      -5.828   0.128 125.799  0.00  0.00    +0.000 NA
ATOM      5  C   UNL     1      -5.290   1.283 126.539  0.00  0.00    +0.000 C 
ATOM      6  C   UNL     1      -6.389   2.332 126.842  0.00  0.00    +0.000 C 
ENDROOT
BRANCH   1   7
ATOM      7  C   UNL     1      -5.950   3.659 124.853  0.00  0.00    +0.000 C 
BRANCH   7   8
ATOM      8  C   UNL     1      -6.405   3.944 123.467  0.00  0.00    +0.000 C 
ATOM      9  C   UNL     1      -5.620   3.771 122.389  0.00  0.00    +0.000 C 
BRANCH   9  10
ATOM     10  C   UNL     1      -6.092   4.200 121.079  0.00  0.00    +0.000 A 
ATOM     11  C   UNL     1      -7.366   3.838 120.637  0.00  0.00    +0.000 A 
ATOM     12  C   UNL     1      -7.786   4.212 119.361  0.00  0.00    +0.000 A 
ATOM     13  C   UNL     1      -6.961   4.990 118.548  0.00  0.00    +0.000 A 
ATOM     14  C   UNL     1      -5.693   5.361 118.988  0.00  0.00    +0.000 A 
ATOM     15  C   UNL     1      -5.254   4.951 120.242  0.00  0.00    +0.000 A 
ENDBRANCH   9  10
ENDBRANCH   7   8
ENDBRANCH   1   7
BRANCH   4  16
ATOM     16  C   UNL     1      -6.894  -0.606 126.554  0.00  0.00    +0.000 C 
BRANCH  16  17
ATOM     17  C   UNL     1      -7.518  -1.659 125.628  0.00  0.00    +0.000 A 
ATOM     18  C   UNL     1      -8.906  -1.860 125.580  0.00  0.00    +0.000 A 
ATOM     19  C   UNL     1      -9.405  -3.012 124.979  0.00  0.00    +0.000 A 
ATOM     20  C   UNL     1      -8.533  -3.922 124.374  0.00  0.00    +0.000 A 
ATOM     21  C   UNL     1      -7.162  -3.675 124.338  0.00  0.00    +0.000 A 
ATOM     22  C   UNL     1      -6.659  -2.530 124.934  0.00  0.00    +0.000 A 
ENDBRANCH  16  17
BRANCH  16  23
ATOM     23  C   UNL     1      -6.465  -1.238 127.908  0.00  0.00    +0.000 A 
ATOM     24  C   UNL     1      -5.378  -2.127 127.987  0.00  0.00    +0.000 A 
ATOM     25  C   UNL     1      -5.065  -2.807 129.160  0.00  0.00    +0.000 A 
ATOM     26  C   UNL     1      -5.769  -2.544 130.325  0.00  0.00    +0.000 A 
ATOM     27  C   UNL     1      -6.834  -1.663 130.296  0.00  0.00    +0.000 A 
ATOM     28  C   UNL     1      -7.213  -1.083 129.088  0.00  0.00    +0.000 A 
ENDBRANCH  16  23
ENDBRANCH   4  16
TORSDOF 6
ENDMDL
MODEL 3
REMARK VINA RESULT:      -8.2      2.908      4.969
REMARK  Name = Cinnarizine
REMARK  6 active torsions:
REMARK  status: ('A' for Active; 'I' for Inactive)
REMARK    1  A    between atoms: C_1  and  C_2
REMARK    2  A    between atoms: C_1  and  N_10
REMARK    3  A    between atoms: C_3  and  C_4
REMARK    4  A    between atoms: N_13  and  C_16
REMARK    5  A    between atoms: C_16  and  C_17
REMARK    6  A    between atoms: C_16  and  C_23
REMARK                            x       y       z     vdW  Elec       q    Type
REMARK                         _______ _______ _______ _____ _____    ______ ____
ROOT
ATOM      1  N   UNL     1      -8.052   3.689 127.044  0.00  0.00    +0.000 NA
ATOM      2  C   UNL     1      -7.890   4.496 125.810  0.00  0.00    +0.000 C 
ATOM      3  C   UNL     1      -6.622   4.125 124.995  0.00  0.00    +0.000 C 
ATOM      4  N   UNL     1      -6.541   2.670 124.658  0.00  0.00    +0.000 NA
ATOM      5  C   UNL     1      -6.621   1.947 125.938  0.00  0.00    +0.000 C 
ATOM      6  C   UNL     1      -7.942   2.254 126.688  0.00  0.00    +0.000 C 
ENDROOT
BRANCH   1   7
ATOM      7  C   UNL     1      -7.004   4.070 128.004  0.00  0.00    +0.000 C 
BRANCH   7   8
ATOM      8  C   UNL     1      -7.453   3.854 129.404  0.00  0.00    +0.000 C 
ATOM      9  C   UNL     1      -7.928   4.843 130.181  0.00  0.00    +0.000 C 
BRANCH   9  10
ATOM     10  C   UNL     1      -8.221   4.578 131.583  0.00  0.00    +0.000 A 
ATOM     11  C   UNL     1      -7.818   5.481 132.569  0.00  0.00    +0.000 A 
ATOM     12  C   UNL     1      -8.060   5.191 133.912  0.00  0.00    +0.000 A 
ATOM     13  C   UNL     1      -8.749   4.030 134.268  0.00  0.00    +0.000 A 
ATOM     14  C   UNL     1      -9.160   3.132 133.288  0.00  0.00    +0.000 A 
ATOM     15  C   UNL     1      -8.880   3.397 131.952  0.00  0.00    +0.000 A 
ENDBRANCH   9  10
ENDBRANCH   7   8
ENDBRANCH   1   7
BRANCH   4  16
ATOM     16  C   UNL     1      -7.642   2.306 123.708  0.00  0.00    +0.000 C 
BRANCH  16  17
ATOM     17  C   UNL     1      -7.455   3.099 122.407  0.00  0.00    +0.000 A 
ATOM     18  C   UNL     1      -8.548   3.448 121.600  0.00  0.00    +0.000 A 
ATOM     19  C   UNL     1      -8.319   3.881 120.298  0.00  0.00    +0.000 A 
ATOM     20  C   UNL     1      -7.011   4.028 119.826  0.00  0.00    +0.000 A 
ATOM     21  C   UNL     1      -5.924   3.772 120.659  0.00  0.00    +0.000 A 
ATOM     22  C   UNL     1      -6.144   3.340 121.957  0.00  0.00    +0.000 A 
ENDBRANCH  16  17
BRANCH  16  23
ATOM     23  C   UNL     1      -7.823   0.789 123.417  0.00  0.00    +0.000 A 
ATOM     24  C   UNL     1      -6.716  -0.045 123.176  0.00  0.00    +0.000 A 
ATOM     25  C   UNL     1      -6.864  -1.370 122.779  0.00  0.00    +0.000 A 
ATOM     26  C   UNL     1      -8.127  -1.937 122.706  0.00  0.00    +0.000 A 
ATOM     27  C   UNL     1      -9.242  -1.157 122.952  0.00  0.00    +0.000 A 
ATOM     28  C   UNL     1      -9.085   0.199 123.227  0.00  0.00    +0.000 A 
ENDBRANCH  16  23
ENDBRANCH   4  16
TORSDOF 6
ENDMDL
MODEL 4
REMARK VINA RESULT:      -8.1      3.724      8.175
REMARK  Name = Cinnarizine
REMARK  6 active torsions:
REMARK  status: ('A' for Active; 'I' for Inactive)
REMARK    1  A    between atoms: C_1  and  C_2
REMARK    2  A    between atoms: C_1  and  N_10
REMARK    3  A    between atoms: C_3  and  C_4
REMARK    4  A    between atoms: N_13  and  C_16
REMARK    5  A    between atoms: C_16  and  C_17
REMARK    6  A    between atoms: C_16  and  C_23
REMARK                            x       y       z     vdW  Elec       q    Type
REMARK                         _______ _______ _______ _____ _____    ______ ____
ROOT
ATOM      1  N   UNL     1      -5.860   1.761 125.079  0.00  0.00    +0.000 NA
ATOM      2  C   UNL     1      -5.203   1.558 126.394  0.00  0.00    +0.000 C 
ATOM      3  C   UNL     1      -6.207   1.449 127.572  0.00  0.00    +0.000 C 
ATOM      4  N   UNL     1      -7.250   0.397 127.365  0.00  0.00    +0.000 NA
ATOM      5  C   UNL     1      -7.910   0.719 126.088  0.00  0.00    +0.000 C 
ATOM      6  C   UNL     1      -6.905   0.723 124.909  0.00  0.00    +0.000 C 
ENDROOT
BRANCH   1   7
ATOM      7  C   UNL     1      -6.452   3.108 125.044  0.00  0.00    +0.000 C 
BRANCH   7   8
ATOM      8  C   UNL     1      -7.084   3.382 123.728  0.00  0.00    +0.000 C 
ATOM      9  C   UNL     1      -6.432   3.246 122.560  0.00  0.00    +0.000 C 
BRANCH   9  10
ATOM     10  C   UNL     1      -7.078   3.663 121.322  0.00  0.00    +0.000 A 
ATOM     11  C   UNL     1      -8.466   3.587 121.193  0.00  0.00    +0.000 A 
ATOM     12  C   UNL     1      -9.068   3.940 119.986  0.00  0.00    +0.000 A 
ATOM     13  C   UNL     1      -8.294   4.419 118.927  0.00  0.00    +0.000 A 
ATOM     14  C   UNL     1      -6.910   4.505 119.054  0.00  0.00    +0.000 A 
ATOM     15  C   UNL     1      -6.304   4.110 120.242  0.00  0.00    +0.000 A 
ENDBRANCH   9  10
ENDBRANCH   7   8
ENDBRANCH   1   7
BRANCH   4  16
ATOM     16  C   UNL     1      -6.611  -0.960 127.370  0.00  0.00    +0.000 C 
BRANCH  16  17
ATOM     17  C   UNL     1      -6.672  -1.529 128.794  0.00  0.00    +0.000 A 
ATOM     18  C   UNL     1      -5.966  -2.688 129.148  0.00  0.00    +0.000 A 
ATOM     19  C   UNL     1      -6.286  -3.342 130.335  0.00  0.00    +0.000 A 
ATOM     20  C   UNL     1      -7.255  -2.808 131.190  0.00  0.00    +0.000 A 
ATOM     21  C   UNL     1      -7.888  -1.606 130.884  0.00  0.00    +0.000 A 
ATOM     22  C   UNL     1      -7.574  -0.950 129.705  0.00  0.00    +0.000 A 
ENDBRANCH  16  17
BRANCH  16  23
ATOM     23  C   UNL     1      -7.164  -1.981 126.336  0.00  0.00    +0.000 A 
ATOM     24  C   UNL     1      -8.465  -2.503 126.448  0.00  0.00    +0.000 A 
ATOM     25  C   UNL     1      -8.927  -3.517 125.616  0.00  0.00    +0.000 A 
ATOM     26  C   UNL     1      -8.136  -3.977 124.575  0.00  0.00    +0.000 A 
ATOM     27  C   UNL     1      -6.856  -3.478 124.417  0.00  0.00    +0.000 A 
ATOM     28  C   UNL     1      -6.362  -2.552 125.332  0.00  0.00    +0.000 A 
ENDBRANCH  16  23
ENDBRANCH   4  16
TORSDOF 6
ENDMDL
MODEL 5
REMARK VINA RESULT:      -8.0      3.661      7.949
REMARK  Name = Cinnarizine
REMARK  6 active torsions:
REMARK  status: ('A' for Active; 'I' for Inactive)
REMARK    1  A    between atoms: C_1  and  C_2
REMARK    2  A    between atoms: C_1  and  N_10
REMARK    3  A    between atoms: C_3  and  C_4
REMARK    4  A    between atoms: N_13  and  C_16
REMARK    5  A    between atoms: C_16  and  C_17
REMARK    6  A    between atoms: C_16  and  C_23
REMARK                            x       y       z     vdW  Elec       q    Type
REMARK                         _______ _______ _______ _____ _____    ______ ____
ROOT
ATOM      1  N   UNL     1      -7.202   2.088 126.978  0.00  0.00    +0.000 NA
ATOM      2  C   UNL     1      -7.579   1.059 125.979  0.00  0.00    +0.000 C 
ATOM      3  C   UNL     1      -6.404   0.124 125.585  0.00  0.00    +0.000 C 
ATOM      4  N   UNL     1      -5.752  -0.532 126.759  0.00  0.00    +0.000 NA
ATOM      5  C   UNL     1      -5.331   0.557 127.657  0.00  0.00    +0.000 C 
ATOM      6  C   UNL     1      -6.535   1.416 128.119  0.00  0.00    +0.000 C 
ENDROOT
BRANCH   1   7
ATOM      7  C   UNL     1      -6.297   3.060 126.343  0.00  0.00    +0.000 C 
BRANCH   7   8
ATOM      8  C   UNL     1      -6.552   3.157 124.883  0.00  0.00    +0.000 C 
ATOM      9  C   UNL     1      -5.638   3.616 124.009  0.00  0.00    +0.000 C 
BRANCH   9  10
ATOM     10  C   UNL     1      -6.010   3.807 122.614  0.00  0.00    +0.000 A 
ATOM     11  C   UNL     1      -5.106   4.381 121.717  0.00  0.00    +0.000 A 
ATOM     12  C   UNL     1      -5.492   4.605 120.396  0.00  0.00    +0.000 A 
ATOM     13  C   UNL     1      -6.756   4.210 119.955  0.00  0.00    +0.000 A 
ATOM     14  C   UNL     1      -7.657   3.629 120.843  0.00  0.00    +0.000 A 
ATOM     15  C   UNL     1      -7.290   3.446 122.172  0.00  0.00    +0.000 A 
ENDBRANCH   9  10
ENDBRANCH   7   8
ENDBRANCH   1   7
BRANCH   4  16
ATOM     16  C   UNL     1      -6.710  -1.488 127.405  0.00  0.00    +0.000 C 
BRANCH  16  17
ATOM     17  C   UNL     1      -7.369  -2.340 126.312  0.00  0.00    +0.000 A 
ATOM     18  C   UNL     1      -6.631  -2.838 125.228  0.00  0.00    +0.000 A 
ATOM     19  C   UNL     1      -7.306  -3.329 124.114  0.00  0.00    +0.000 A 
ATOM     20  C   UNL     1      -8.703  -3.384 124.109  0.00  0.00    +0.000 A 
ATOM     21  C   UNL     1      -9.434  -2.977 125.223  0.00  0.00    +0.000 A 
ATOM     22  C   UNL     1      -8.768  -2.488 126.335  0.00  0.00    +0.000 A 
ENDBRANCH  16  17
BRANCH  16  23
ATOM     23  C   UNL     1      -6.128  -2.382 128.536  0.00  0.00    +0.000 A 
ATOM     24  C   UNL     1      -6.906  -2.751 129.648  0.00  0.00    +0.000 A 
ATOM     25  C   UNL     1      -6.364  -3.433 130.733  0.00  0.00    +0.000 A 
ATOM     26  C   UNL     1      -5.045  -3.858 130.699  0.00  0.00    +0.000 A 
ATOM     27  C   UNL     1      -4.250  -3.533 129.616  0.00  0.00    +0.000 A 
ATOM     28  C   UNL     1      -4.770  -2.745 128.594  0.00  0.00    +0.000 A 
ENDBRANCH  16  23
ENDBRANCH   4  16
TORSDOF 6
ENDMDL
MODEL 6
REMARK VINA RESULT:      -8.0      6.589      9.737
REMARK  Name = Cinnarizine
REMARK  6 active torsions:
REMARK  status: ('A' for Active; 'I' for Inactive)
REMARK    1  A    between atoms: C_1  and  C_2
REMARK    2  A    between atoms: C_1  and  N_10
REMARK    3  A    between atoms: C_3  and  C_4
REMARK    4  A    between atoms: N_13  and  C_16
REMARK    5  A    between atoms: C_16  and  C_17
REMARK    6  A    between atoms: C_16  and  C_23
REMARK                            x       y       z     vdW  Elec       q    Type
REMARK                         _______ _______ _______ _____ _____    ______ ____
ROOT
ATOM      1  N   UNL     1      -8.660   6.267 132.569  0.00  0.00    +0.000 NA
ATOM      2  C   UNL     1      -7.874   5.226 133.275  0.00  0.00    +0.000 C 
ATOM      3  C   UNL     1      -7.481   4.030 132.366  0.00  0.00    +0.000 C 
ATOM      4  N   UNL     1      -6.760   4.445 131.123  0.00  0.00    +0.000 NA
ATOM      5  C   UNL     1      -7.641   5.408 130.440  0.00  0.00    +0.000 C 
ATOM      6  C   UNL     1      -7.938   6.642 131.329  0.00  0.00    +0.000 C 
ENDROOT
BRANCH   1   7
ATOM      7  C   UNL     1      -9.992   5.729 132.255  0.00  0.00    +0.000 C 
BRANCH   7   8
ATOM      8  C   UNL     1     -10.725   6.621 131.320  0.00  0.00    +0.000 C 
ATOM      9  C   UNL     1     -11.970   6.360 130.883  0.00  0.00    +0.000 C 
BRANCH   9  10
ATOM     10  C   UNL     1     -12.568   7.213 129.864  0.00  0.00    +0.000 A 
ATOM     11  C   UNL     1     -12.500   8.602 129.981  0.00  0.00    +0.000 A 
ATOM     12  C   UNL     1     -13.121   9.407 129.026  0.00  0.00    +0.000 A 
ATOM     13  C   UNL     1     -13.763   8.830 127.929  0.00  0.00    +0.000 A 
ATOM     14  C   UNL     1     -13.825   7.445 127.804  0.00  0.00    +0.000 A 
ATOM     15  C   UNL     1     -13.246   6.640 128.779  0.00  0.00    +0.000 A 
ENDBRANCH   9  10
ENDBRANCH   7   8
ENDBRANCH   1   7
BRANCH   4  16
ATOM     16  C   UNL     1      -5.423   5.022 131.479  0.00  0.00    +0.000 C 
BRANCH  16  17
ATOM     17  C   UNL     1      -4.471   3.874 131.842  0.00  0.00    +0.000 A 
ATOM     18  C   UNL     1      -4.708   2.562 131.406  0.00  0.00    +0.000 A 
ATOM     19  C   UNL     1      -4.015   1.513 132.002  0.00  0.00    +0.000 A 
ATOM     20  C   UNL     1      -3.048   1.775 132.977  0.00  0.00    +0.000 A 
ATOM     21  C   UNL     1      -2.745   3.084 133.342  0.00  0.00    +0.000 A 
ATOM     22  C   UNL     1      -3.431   4.134 132.752  0.00  0.00    +0.000 A 
ENDBRANCH  16  17
BRANCH  16  23
ATOM     23  C   UNL     1      -4.782   5.967 130.424  0.00  0.00    +0.000 A 
ATOM     24  C   UNL     1      -4.303   5.474 129.197  0.00  0.00    +0.000 A 
ATOM     25  C   UNL     1      -3.605   6.278 128.301  0.00  0.00    +0.000 A 
ATOM     26  C   UNL     1      -3.447   7.631 128.559  0.00  0.00    +0.000 A 
ATOM     27  C   UNL     1      -3.918   8.161 129.746  0.00  0.00    +0.000 A 
ATOM     28  C   UNL     1      -4.506   7.321 130.687  0.00  0.00    +0.000 A 
ENDBRANCH  16  23
ENDBRANCH   4  16
TORSDOF 6
ENDMDL
MODEL 7
REMARK VINA RESULT:      -7.9      5.039      7.541
REMARK  Name = Cinnarizine
REMARK  6 active torsions:
REMARK  status: ('A' for Active; 'I' for Inactive)
REMARK    1  A    between atoms: C_1  and  C_2
REMARK    2  A    between atoms: C_1  and  N_10
REMARK    3  A    between atoms: C_3  and  C_4
REMARK    4  A    between atoms: N_13  and  C_16
REMARK    5  A    between atoms: C_16  and  C_17
REMARK    6  A    between atoms: C_16  and  C_23
REMARK                            x       y       z     vdW  Elec       q    Type
REMARK                         _______ _______ _______ _____ _____    ______ ____
ROOT
ATOM      1  N   UNL     1      -8.178   1.992 129.020  0.00  0.00    +0.000 NA
ATOM      2  C   UNL     1      -8.565   1.396 127.719  0.00  0.00    +0.000 C 
ATOM      3  C   UNL     1      -7.349   0.959 126.857  0.00  0.00    +0.000 C 
ATOM      4  N   UNL     1      -6.417   0.036 127.575  0.00  0.00    +0.000 NA
ATOM      5  C   UNL     1      -6.015   0.735 128.807  0.00  0.00    +0.000 C 
ATOM      6  C   UNL     1      -7.236   1.071 129.700  0.00  0.00    +0.000 C 
ENDROOT
BRANCH   1   7
ATOM      7  C   UNL     1      -7.548   3.299 128.778  0.00  0.00    +0.000 C 
BRANCH   7   8
ATOM      8  C   UNL     1      -8.533   4.403 128.910  0.00  0.00    +0.000 C 
ATOM      9  C   UNL     1      -9.025   4.809 130.094  0.00  0.00    +0.000 C 
BRANCH   9  10
ATOM     10  C   UNL     1     -10.086   5.805 130.129  0.00  0.00    +0.000 A 
ATOM     11  C   UNL     1     -10.074   6.878 129.235  0.00  0.00    +0.000 A 
ATOM     12  C   UNL     1     -11.068   7.853 129.313  0.00  0.00    +0.000 A 
ATOM     13  C   UNL     1     -12.102   7.732 130.243  0.00  0.00    +0.000 A 
ATOM     14  C   UNL     1     -12.123   6.659 131.130  0.00  0.00    +0.000 A 
ATOM     15  C   UNL     1     -11.108   5.710 131.084  0.00  0.00    +0.000 A 
ENDBRANCH   9  10
ENDBRANCH   7   8
ENDBRANCH   1   7
BRANCH   4  16
ATOM     16  C   UNL     1      -7.100  -1.272 127.839  0.00  0.00    +0.000 C 
BRANCH  16  17
ATOM     17  C   UNL     1      -7.473  -1.914 126.496  0.00  0.00    +0.000 A 
ATOM     18  C   UNL     1      -8.776  -2.367 126.239  0.00  0.00    +0.000 A 
ATOM     19  C   UNL     1      -8.999  -3.212 125.156  0.00  0.00    +0.000 A 
ATOM     20  C   UNL     1      -7.947  -3.549 124.300  0.00  0.00    +0.000 A 
ATOM     21  C   UNL     1      -6.673  -3.023 124.500  0.00  0.00    +0.000 A 
ATOM     22  C   UNL     1      -6.443  -2.181 125.576  0.00  0.00    +0.000 A 
ENDBRANCH  16  17
BRANCH  16  23
ATOM     23  C   UNL     1      -6.332  -2.276 128.744  0.00  0.00    +0.000 A 
ATOM     24  C   UNL     1      -4.947  -2.473 128.605  0.00  0.00    +0.000 A 
ATOM     25  C   UNL     1      -4.267  -3.462 129.308  0.00  0.00    +0.000 A 
ATOM     26  C   UNL     1      -4.935  -4.227 130.253  0.00  0.00    +0.000 A 
ATOM     27  C   UNL     1      -6.295  -4.054 130.435  0.00  0.00    +0.000 A 
ATOM     28  C   UNL     1      -6.985  -3.145 129.637  0.00  0.00    +0.000 A 
ENDBRANCH  16  23
ENDBRANCH   4  16
TORSDOF 6
ENDMDL
MODEL 8
REMARK VINA RESULT:      -7.8      5.678     10.787
REMARK  Name = Cinnarizine
REMARK  6 active torsions:
REMARK  status: ('A' for Active; 'I' for Inactive)
REMARK    1  A    between atoms: C_1  and  C_2
REMARK    2  A    between atoms: C_1  and  N_10
REMARK    3  A    between atoms: C_3  and  C_4
REMARK    4  A    between atoms: N_13  and  C_16
REMARK    5  A    between atoms: C_16  and  C_17
REMARK    6  A    between atoms: C_16  and  C_23
REMARK                            x       y       z     vdW  Elec       q    Type
REMARK                         _______ _______ _______ _____ _____    ______ ____
ROOT
ATOM      1  N   UNL     1      -6.957   1.513 131.554  0.00  0.00    +0.000 NA
ATOM      2  C   UNL     1      -7.910   2.421 130.870  0.00  0.00    +0.000 C 
ATOM      3  C   UNL     1      -9.064   2.907 131.788  0.00  0.00    +0.000 C 
ATOM      4  N   UNL     1      -8.584   3.544 133.053  0.00  0.00    +0.000 NA
ATOM      5  C   UNL     1      -7.718   2.550 133.711  0.00  0.00    +0.000 C 
ATOM      6  C   UNL     1      -6.517   2.155 132.816  0.00  0.00    +0.000 C 
ENDROOT
BRANCH   1   7
ATOM      7  C   UNL     1      -7.630   0.234 131.827  0.00  0.00    +0.000 C 
BRANCH   7   8
ATOM      8  C   UNL     1      -8.033  -0.441 130.566  0.00  0.00    +0.000 C 
ATOM      9  C   UNL     1      -7.698  -1.711 130.276  0.00  0.00    +0.000 C 
BRANCH   9  10
ATOM     10  C   UNL     1      -8.015  -2.257 128.964  0.00  0.00    +0.000 A 
ATOM     11  C   UNL     1      -8.661  -3.490 128.851  0.00  0.00    +0.000 A 
ATOM     12  C   UNL     1      -8.913  -4.025 127.589  0.00  0.00    +0.000 A 
ATOM     13  C   UNL     1      -8.570  -3.310 126.440  0.00  0.00    +0.000 A 
ATOM     14  C   UNL     1      -7.933  -2.077 126.547  0.00  0.00    +0.000 A 
ATOM     15  C   UNL     1      -7.640  -1.562 127.805  0.00  0.00    +0.000 A 
ENDBRANCH   9  10
ENDBRANCH   7   8
ENDBRANCH   1   7
BRANCH   4  16
ATOM     16  C   UNL     1      -7.872   4.826 132.739  0.00  0.00    +0.000 C 
BRANCH  16  17
ATOM     17  C   UNL     1      -8.873   5.804 132.109  0.00  0.00    +0.000 A 
ATOM     18  C   UNL     1     -10.207   5.862 132.537  0.00  0.00    +0.000 A 
ATOM     19  C   UNL     1     -11.145   6.522 131.748  0.00  0.00    +0.000 A 
ATOM     20  C   UNL     1     -10.744   7.173 130.577  0.00  0.00    +0.000 A 
ATOM     21  C   UNL     1      -9.403   7.196 130.202  0.00  0.00    +0.000 A 
ATOM     22  C   UNL     1      -8.464   6.542 130.983  0.00  0.00    +0.000 A 
ENDBRANCH  16  17
BRANCH  16  23
ATOM     23  C   UNL     1      -7.106   5.491 133.917  0.00  0.00    +0.000 A 
ATOM     24  C   UNL     1      -5.742   5.814 133.811  0.00  0.00    +0.000 A 
ATOM     25  C   UNL     1      -5.008   6.282 134.896  0.00  0.00    +0.000 A 
ATOM     26  C   UNL     1      -5.639   6.536 136.104  0.00  0.00    +0.000 A 
ATOM     27  C   UNL     1      -6.983   6.249 136.247  0.00  0.00    +0.000 A 
ATOM     28  C   UNL     1      -7.678   5.667 135.190  0.00  0.00    +0.000 A 
ENDBRANCH  16  23
ENDBRANCH   4  16
TORSDOF 6
ENDMDL
MODEL 9
REMARK VINA RESULT:      -7.8      6.782     10.418
REMARK  Name = Cinnarizine
REMARK  6 active torsions:
REMARK  status: ('A' for Active; 'I' for Inactive)
REMARK    1  A    between atoms: C_1  and  C_2
REMARK    2  A    between atoms: C_1  and  N_10
REMARK    3  A    between atoms: C_3  and  C_4
REMARK    4  A    between atoms: N_13  and  C_16
REMARK    5  A    between atoms: C_16  and  C_17
REMARK    6  A    between atoms: C_16  and  C_23
REMARK                            x       y       z     vdW  Elec       q    Type
REMARK                         _______ _______ _______ _____ _____    ______ ____
ROOT
ATOM      1  N   UNL     1      -7.866   1.506 130.724  0.00  0.00    +0.000 NA
ATOM      2  C   UNL     1      -8.751   2.539 130.131  0.00  0.00    +0.000 C 
ATOM      3  C   UNL     1      -9.847   3.044 131.109  0.00  0.00    +0.000 C 
ATOM      4  N   UNL     1      -9.297   3.540 132.408  0.00  0.00    +0.000 NA
ATOM      5  C   UNL     1      -8.506   2.432 132.969  0.00  0.00    +0.000 C 
ATOM      6  C   UNL     1      -7.355   2.011 132.021  0.00  0.00    +0.000 C 
ENDROOT
BRANCH   1   7
ATOM      7  C   UNL     1      -8.638   0.268 130.914  0.00  0.00    +0.000 C 
BRANCH   7   8
ATOM      8  C   UNL     1      -7.756  -0.859 131.312  0.00  0.00    +0.000 C 
ATOM      9  C   UNL     1      -7.647  -1.992 130.597  0.00  0.00    +0.000 C 
BRANCH   9  10
ATOM     10  C   UNL     1      -6.865  -3.103 131.123  0.00  0.00    +0.000 A 
ATOM     11  C   UNL     1      -6.688  -3.249 132.500  0.00  0.00    +0.000 A 
ATOM     12  C   UNL     1      -5.896  -4.287 132.989  0.00  0.00    +0.000 A 
ATOM     13  C   UNL     1      -5.324  -5.209 132.111  0.00  0.00    +0.000 A 
ATOM     14  C   UNL     1      -5.505  -5.073 130.737  0.00  0.00    +0.000 A 
ATOM     15  C   UNL     1      -6.258  -4.012 130.246  0.00  0.00    +0.000 A 
ENDBRANCH   9  10
ENDBRANCH   7   8
ENDBRANCH   1   7
BRANCH   4  16
ATOM     16  C   UNL     1      -8.487   4.780 132.177  0.00  0.00    +0.000 C 
BRANCH  16  17
ATOM     17  C   UNL     1      -9.413   5.883 131.646  0.00  0.00    +0.000 A 
ATOM     18  C   UNL     1     -10.695   6.081 132.181  0.00  0.00    +0.000 A 
ATOM     19  C   UNL     1     -11.608   6.864 131.481  0.00  0.00    +0.000 A 
ATOM     20  C   UNL     1     -11.227   7.497 130.295  0.00  0.00    +0.000 A 
ATOM     21  C   UNL     1      -9.925   7.378 129.813  0.00  0.00    +0.000 A 
ATOM     22  C   UNL     1      -9.010   6.600 130.505  0.00  0.00    +0.000 A 
ENDBRANCH  16  17
BRANCH  16  23
ATOM     23  C   UNL     1      -7.649   5.287 133.384  0.00  0.00    +0.000 A 
ATOM     24  C   UNL     1      -6.282   5.588 133.250  0.00  0.00    +0.000 A 
ATOM     25  C   UNL     1      -5.486   5.909 134.345  0.00  0.00    +0.000 A 
ATOM     26  C   UNL     1      -6.054   6.038 135.603  0.00  0.00    +0.000 A 
ATOM     27  C   UNL     1      -7.399   5.768 135.777  0.00  0.00    +0.000 A 
ATOM     28  C   UNL     1      -8.157   5.329 134.695  0.00  0.00    +0.000 A 
ENDBRANCH  16  23
ENDBRANCH   4  16
TORSDOF 6
ENDMDL
