MODEL 1
REMARK VINA RESULT:      -5.7      0.000      0.000
REMARK  Name = Cinnamyl alcohol
REMARK  3 active torsions:
REMARK  status: ('A' for Active; 'I' for Inactive)
REMARK    1  A    between atoms: O_1  and  C_2
REMARK    2  A    between atoms: C_2  and  C_3
REMARK    3  A    between atoms: C_4  and  C_5
REMARK                            x       y       z     vdW  Elec       q    Type
REMARK                         _______ _______ _______ _____ _____    ______ ____
ROOT
ATOM      1  C   UNL     1     -12.773   8.673 129.689  0.00  0.00    +0.000 A 
ATOM      2  C   UNL     1     -12.419   7.756 128.694  0.00  0.00    +0.000 A 
ATOM      3  C   UNL     1     -12.049   6.451 129.040  0.00  0.00    +0.000 A 
ATOM      4  C   UNL     1     -11.991   6.072 130.382  0.00  0.00    +0.000 A 
ATOM      5  C   UNL     1     -12.350   6.976 131.377  0.00  0.00    +0.000 A 
ATOM      6  C   UNL     1     -12.759   8.261 131.029  0.00  0.00    +0.000 A 
ENDROOT
BRANCH   1   8
ATOM      7  C   UNL     1     -13.370  10.971 130.305  0.00  0.00    +0.000 C 
ATOM      8  C   UNL     1     -13.204  10.034 129.354  0.00  0.00    +0.000 C 
BRANCH   7   9
ATOM      9  C   UNL     1     -13.887  12.339 130.040  0.00  0.00    +0.000 C 
BRANCH   9  10
ATOM     10  O   UNL     1     -13.420  13.190 131.077  0.00  0.00    +0.000 OA
ATOM     11  H   UNL     1     -13.532  14.101 130.760  0.00  0.00    +0.000 HD
ENDBRANCH   9  10
ENDBRANCH   7   9
ENDBRANCH   1   8
TORSDOF 3
ENDMDL
MODEL 2
REMARK VINA RESULT:      -5.5      1.990      2.304
REMARK  Name = Cinnamyl alcohol
REMARK  3 active torsions:
REMARK  status: ('A' for Active; 'I' for Inactive)
REMARK    1  A    between atoms: O_1  and  C_2
REMARK    2  A    between atoms: C_2  and  C_3
REMARK    3  A    between atoms: C_4  and  C_5
REMARK                            x       y       z     vdW  Elec       q    Type
REMARK                         _______ _______ _______ _____ _____    ______ ____
ROOT
ATOM      1  C   UNL     1     -12.579   8.998 128.637  0.00  0.00    +0.000 A 
ATOM      2  C   UNL     1     -13.626   8.211 128.145  0.00  0.00    +0.000 A 
ATOM      3  C   UNL     1     -13.357   7.150 127.273  0.00  0.00    +0.000 A 
ATOM      4  C   UNL     1     -12.049   6.898 126.859  0.00  0.00    +0.000 A 
ATOM      5  C   UNL     1     -11.002   7.670 127.351  0.00  0.00    +0.000 A 
ATOM      6  C   UNL     1     -11.265   8.700 128.251  0.00  0.00    +0.000 A 
ENDROOT
BRANCH   1   8
ATOM      7  C   UNL     1     -13.656  11.106 129.280  0.00  0.00    +0.000 C 
ATOM      8  C   UNL     1     -12.826  10.092 129.583  0.00  0.00    +0.000 C 
BRANCH   7   9
ATOM      9  C   UNL     1     -13.879  12.285 130.158  0.00  0.00    +0.000 C 
BRANCH   9  10
ATOM     10  O   UNL     1     -13.176  12.062 131.371  0.00  0.00    +0.000 OA
ATOM     11  H   UNL     1     -13.189  12.903 131.858  0.00  0.00    +0.000 HD
ENDBRANCH   9  10
ENDBRANCH   7   9
ENDBRANCH   1   8
TORSDOF 3
ENDMDL
MODEL 3
REMARK VINA RESULT:      -5.4     10.429     12.322
REMARK  Name = Cinnamyl alcohol
REMARK  3 active torsions:
REMARK  status: ('A' for Active; 'I' for Inactive)
REMARK    1  A    between atoms: O_1  and  C_2
REMARK    2  A    between atoms: C_2  and  C_3
REMARK    3  A    between atoms: C_4  and  C_5
REMARK                            x       y       z     vdW  Elec       q    Type
REMARK                         _______ _______ _______ _____ _____    ______ ____
ROOT
ATOM      1  C   UNL     1      -6.600   3.867 121.015  0.00  0.00    +0.000 A 
ATOM      2  C   UNL     1      -5.404   4.569 120.836  0.00  0.00    +0.000 A 
ATOM      3  C   UNL     1      -5.199   5.320 119.672  0.00  0.00    +0.000 A 
ATOM      4  C   UNL     1      -6.169   5.338 118.669  0.00  0.00    +0.000 A 
ATOM      5  C   UNL     1      -7.365   4.649 118.845  0.00  0.00    +0.000 A 
ATOM      6  C   UNL     1      -7.585   3.937 120.021  0.00  0.00    +0.000 A 
ENDROOT
BRANCH   1   8
ATOM      7  C   UNL     1      -8.050   3.165 122.866  0.00  0.00    +0.000 C 
ATOM      8  C   UNL     1      -6.860   3.104 122.241  0.00  0.00    +0.000 C 
BRANCH   7   9
ATOM      9  C   UNL     1      -8.344   2.487 124.155  0.00  0.00    +0.000 C 
BRANCH   9  10
ATOM     10  O   UNL     1      -9.230   3.318 124.891  0.00  0.00    +0.000 OA
ATOM     11  H   UNL     1     -10.118   3.170 124.526  0.00  0.00    +0.000 HD
ENDBRANCH   9  10
ENDBRANCH   7   9
ENDBRANCH   1   8
TORSDOF 3
ENDMDL
MODEL 4
REMARK VINA RESULT:      -5.3     10.374     11.846
REMARK  Name = Cinnamyl alcohol
REMARK  3 active torsions:
REMARK  status: ('A' for Active; 'I' for Inactive)
REMARK    1  A    between atoms: O_1  and  C_2
REMARK    2  A    between atoms: C_2  and  C_3
REMARK    3  A    between atoms: C_4  and  C_5
REMARK                            x       y       z     vdW  Elec       q    Type
REMARK                         _______ _______ _______ _____ _____    ______ ____
ROOT
ATOM      1  C   UNL     1      -7.973   3.342 121.866  0.00  0.00    +0.000 A 
ATOM      2  C   UNL     1      -8.749   3.714 120.763  0.00  0.00    +0.000 A 
ATOM      3  C   UNL     1      -8.133   4.188 119.599  0.00  0.00    +0.000 A 
ATOM      4  C   UNL     1      -6.746   4.329 119.548  0.00  0.00    +0.000 A 
ATOM      5  C   UNL     1      -5.967   3.952 120.637  0.00  0.00    +0.000 A 
ATOM      6  C   UNL     1      -6.578   3.442 121.780  0.00  0.00    +0.000 A 
ENDROOT
BRANCH   1   8
ATOM      7  C   UNL     1      -9.517   1.834 123.032  0.00  0.00    +0.000 C 
ATOM      8  C   UNL     1      -8.588   2.806 123.085  0.00  0.00    +0.000 C 
BRANCH   7   9
ATOM      9  C   UNL     1     -10.239   1.312 124.222  0.00  0.00    +0.000 C 
BRANCH   9  10
ATOM     10  O   UNL     1     -11.627   1.314 123.924  0.00  0.00    +0.000 OA
ATOM     11  H   UNL     1     -12.002   2.102 124.351  0.00  0.00    +0.000 HD
ENDBRANCH   9  10
ENDBRANCH   7   9
ENDBRANCH   1   8
TORSDOF 3
ENDMDL
MODEL 5
REMARK VINA RESULT:      -5.3      2.922      4.620
REMARK  Name = Cinnamyl alcohol
REMARK  3 active torsions:
REMARK  status: ('A' for Active; 'I' for Inactive)
REMARK    1  A    between atoms: O_1  and  C_2
REMARK    2  A    between atoms: C_2  and  C_3
REMARK    3  A    between atoms: C_4  and  C_5
REMARK                            x       y       z     vdW  Elec       q    Type
REMARK                         _______ _______ _______ _____ _____    ______ ____
ROOT
ATOM      1  C   UNL     1     -12.514   7.332 130.106  0.00  0.00    +0.000 A 
ATOM      2  C   UNL     1     -13.003   6.537 129.064  0.00  0.00    +0.000 A 
ATOM      3  C   UNL     1     -13.564   7.135 127.929  0.00  0.00    +0.000 A 
ATOM      4  C   UNL     1     -13.676   8.523 127.852  0.00  0.00    +0.000 A 
ATOM      5  C   UNL     1     -13.183   9.320 128.880  0.00  0.00    +0.000 A 
ATOM      6  C   UNL     1     -12.587   8.726 129.989  0.00  0.00    +0.000 A 
ENDROOT
BRANCH   1   8
ATOM      7  C   UNL     1     -10.619   6.278 131.255  0.00  0.00    +0.000 C 
ATOM      8  C   UNL     1     -11.884   6.735 131.289  0.00  0.00    +0.000 C 
BRANCH   7   9
ATOM      9  C   UNL     1      -9.956   5.586 132.391  0.00  0.00    +0.000 C 
BRANCH   9  10
ATOM     10  O   UNL     1      -9.846   6.513 133.460  0.00  0.00    +0.000 OA
ATOM     11  H   UNL     1     -10.406   6.176 134.179  0.00  0.00    +0.000 HD
ENDBRANCH   9  10
ENDBRANCH   7   9
ENDBRANCH   1   8
TORSDOF 3
ENDMDL
MODEL 6
REMARK VINA RESULT:      -5.1     13.317     15.404
REMARK  Name = Cinnamyl alcohol
REMARK  3 active torsions:
REMARK  status: ('A' for Active; 'I' for Inactive)
REMARK    1  A    between atoms: O_1  and  C_2
REMARK    2  A    between atoms: C_2  and  C_3
REMARK    3  A    between atoms: C_4  and  C_5
REMARK                            x       y       z     vdW  Elec       q    Type
REMARK                         _______ _______ _______ _____ _____    ______ ____
ROOT
ATOM      1  C   UNL     1      -6.725  -1.893 123.132  0.00  0.00    +0.000 A 
ATOM      2  C   UNL     1      -7.984  -2.468 122.927  0.00  0.00    +0.000 A 
ATOM      3  C   UNL     1      -9.139  -1.686 123.042  0.00  0.00    +0.000 A 
ATOM      4  C   UNL     1      -9.043  -0.342 123.402  0.00  0.00    +0.000 A 
ATOM      5  C   UNL     1      -7.794   0.239 123.598  0.00  0.00    +0.000 A 
ATOM      6  C   UNL     1      -6.643  -0.529 123.443  0.00  0.00    +0.000 A 
ENDROOT
BRANCH   1   8
ATOM      7  C   UNL     1      -5.235  -3.735 123.769  0.00  0.00    +0.000 C 
ATOM      8  C   UNL     1      -5.495  -2.677 122.979  0.00  0.00    +0.000 C 
BRANCH   7   9
ATOM      9  C   UNL     1      -3.970  -4.513 123.721  0.00  0.00    +0.000 C 
BRANCH   9  10
ATOM     10  O   UNL     1      -4.216  -5.699 122.981  0.00  0.00    +0.000 OA
ATOM     11  H   UNL     1      -4.350  -5.428 122.058  0.00  0.00    +0.000 HD
ENDBRANCH   9  10
ENDBRANCH   7   9
ENDBRANCH   1   8
TORSDOF 3
ENDMDL
MODEL 7
REMARK VINA RESULT:      -5.0      3.692      5.242
REMARK  Name = Cinnamyl alcohol
REMARK  3 active torsions:
REMARK  status: ('A' for Active; 'I' for Inactive)
REMARK    1  A    between atoms: O_1  and  C_2
REMARK    2  A    between atoms: C_2  and  C_3
REMARK    3  A    between atoms: C_4  and  C_5
REMARK                            x       y       z     vdW  Elec       q    Type
REMARK                         _______ _______ _______ _____ _____    ______ ____
ROOT
ATOM      1  C   UNL     1     -11.282   7.151 130.349  0.00  0.00    +0.000 A 
ATOM      2  C   UNL     1     -12.645   7.247 130.047  0.00  0.00    +0.000 A 
ATOM      3  C   UNL     1     -13.062   7.902 128.883  0.00  0.00    +0.000 A 
ATOM      4  C   UNL     1     -12.123   8.498 128.040  0.00  0.00    +0.000 A 
ATOM      5  C   UNL     1     -10.766   8.399 128.328  0.00  0.00    +0.000 A 
ATOM      6  C   UNL     1     -10.349   7.711 129.465  0.00  0.00    +0.000 A 
ENDROOT
BRANCH   1   8
ATOM      7  C   UNL     1      -9.501   6.292 131.800  0.00  0.00    +0.000 C 
ATOM      8  C   UNL     1     -10.813   6.436 131.540  0.00  0.00    +0.000 C 
BRANCH   7   9
ATOM      9  C   UNL     1      -8.963   5.505 132.941  0.00  0.00    +0.000 C 
BRANCH   9  10
ATOM     10  O   UNL     1     -10.026   4.727 133.472  0.00  0.00    +0.000 OA
ATOM     11  H   UNL     1      -9.873   3.813 133.182  0.00  0.00    +0.000 HD
ENDBRANCH   9  10
ENDBRANCH   7   9
ENDBRANCH   1   8
TORSDOF 3
ENDMDL
MODEL 8
REMARK VINA RESULT:      -5.0     10.902     12.313
REMARK  Name = Cinnamyl alcohol
REMARK  3 active torsions:
REMARK  status: ('A' for Active; 'I' for Inactive)
REMARK    1  A    between atoms: O_1  and  C_2
REMARK    2  A    between atoms: C_2  and  C_3
REMARK    3  A    between atoms: C_4  and  C_5
REMARK                            x       y       z     vdW  Elec       q    Type
REMARK                         _______ _______ _______ _____ _____    ______ ____
ROOT
ATOM      1  C   UNL     1      -6.962   3.322 121.865  0.00  0.00    +0.000 A 
ATOM      2  C   UNL     1      -5.699   3.788 122.244  0.00  0.00    +0.000 A 
ATOM      3  C   UNL     1      -4.954   4.589 121.369  0.00  0.00    +0.000 A 
ATOM      4  C   UNL     1      -5.451   4.891 120.101  0.00  0.00    +0.000 A 
ATOM      5  C   UNL     1      -6.711   4.439 119.721  0.00  0.00    +0.000 A 
ATOM      6  C   UNL     1      -7.469   3.678 120.607  0.00  0.00    +0.000 A 
ENDROOT
BRANCH   1   8
ATOM      7  C   UNL     1      -9.079   2.268 122.517  0.00  0.00    +0.000 C 
ATOM      8  C   UNL     1      -7.782   2.516 122.775  0.00  0.00    +0.000 C 
BRANCH   7   9
ATOM      9  C   UNL     1      -9.982   1.533 123.441  0.00  0.00    +0.000 C 
BRANCH   9  10
ATOM     10  O   UNL     1     -10.731   0.605 122.671  0.00  0.00    +0.000 OA
ATOM     11  H   UNL     1     -10.088   0.055 122.195  0.00  0.00    +0.000 HD
ENDBRANCH   9  10
ENDBRANCH   7   9
ENDBRANCH   1   8
TORSDOF 3
ENDMDL
MODEL 9
REMARK VINA RESULT:      -5.0     12.944     15.219
REMARK  Name = Cinnamyl alcohol
REMARK  3 active torsions:
REMARK  status: ('A' for Active; 'I' for Inactive)
REMARK    1  A    between atoms: O_1  and  C_2
REMARK    2  A    between atoms: C_2  and  C_3
REMARK    3  A    between atoms: C_4  and  C_5
REMARK                            x       y       z     vdW  Elec       q    Type
REMARK                         _______ _______ _______ _____ _____    ______ ____
ROOT
ATOM      1  C   UNL     1      -6.860  -2.335 124.765  0.00  0.00    +0.000 A 
ATOM      2  C   UNL     1      -7.092  -1.018 125.174  0.00  0.00    +0.000 A 
ATOM      3  C   UNL     1      -8.330  -0.660 125.720  0.00  0.00    +0.000 A 
ATOM      4  C   UNL     1      -9.351  -1.606 125.821  0.00  0.00    +0.000 A 
ATOM      5  C   UNL     1      -9.124  -2.920 125.426  0.00  0.00    +0.000 A 
ATOM      6  C   UNL     1      -7.879  -3.285 124.921  0.00  0.00    +0.000 A 
ENDROOT
BRANCH   1   8
ATOM      7  C   UNL     1      -5.274  -4.044 123.999  0.00  0.00    +0.000 C 
ATOM      8  C   UNL     1      -5.560  -2.749 124.225  0.00  0.00    +0.000 C 
BRANCH   7   9
ATOM      9  C   UNL     1      -3.949  -4.532 123.538  0.00  0.00    +0.000 C 
BRANCH   9  10
ATOM     10  O   UNL     1      -4.140  -5.800 122.928  0.00  0.00    +0.000 OA
ATOM     11  H   UNL     1      -4.857  -5.692 122.282  0.00  0.00    +0.000 HD
ENDBRANCH   9  10
ENDBRANCH   7   9
ENDBRANCH   1   8
TORSDOF 3
ENDMDL
