MODEL 1
REMARK VINA RESULT:      -6.5      0.000      0.000
REMARK  Name = Cinoxacin
REMARK  4 active torsions:
REMARK  status: ('A' for Active; 'I' for Inactive)
REMARK    1  A    between atoms: C_1  and  C_2
REMARK    2  A    between atoms: C_2  and  N_3
REMARK    3  A    between atoms: C_5  and  C_6
REMARK    4  A    between atoms: C_6  and  O_7
REMARK                            x       y       z     vdW  Elec       q    Type
REMARK                         _______ _______ _______ _____ _____    ______ ____
ROOT
ATOM      1  N   UNL     1      -8.838  -1.951 125.501  0.00  0.00    +0.000 N 
ATOM      2  N   UNL     1      -9.429  -0.924 124.808  0.00  0.00    +0.000 NA
ATOM      3  C   UNL     1      -9.408   0.291 125.294  0.00  0.00    +0.000 A 
ATOM      4  C   UNL     1      -8.733   0.583 126.613  0.00  0.00    +0.000 A 
ATOM      5  O   UNL     1      -8.705   1.746 127.002  0.00  0.00    +0.000 OA
ATOM      6  C   UNL     1      -8.190  -0.543 127.391  0.00  0.00    +0.000 A 
ATOM      7  C   UNL     1      -7.613  -0.387 128.675  0.00  0.00    +0.000 A 
ATOM      8  C   UNL     1      -7.270  -1.538 129.376  0.00  0.00    +0.000 A 
ATOM      9  C   UNL     1      -7.416  -2.765 128.797  0.00  0.00    +0.000 A 
ATOM     10  O   UNL     1      -7.045  -3.814 129.567  0.00  0.00    +0.000 OA
ATOM     11  C   UNL     1      -6.702  -3.127 130.774  0.00  0.00    +0.000 C 
ATOM     12  O   UNL     1      -6.810  -1.678 130.653  0.00  0.00    +0.000 OA
ATOM     13  C   UNL     1      -7.922  -2.917 127.543  0.00  0.00    +0.000 A 
ATOM     14  C   UNL     1      -8.328  -1.804 126.797  0.00  0.00    +0.000 A 
ENDROOT
BRANCH   1  16
ATOM     15  C   UNL     1      -9.467  -3.287 123.496  0.00  0.00    +0.000 C 
ATOM     16  C   UNL     1      -8.796  -3.292 124.879  0.00  0.00    +0.000 C 
ENDBRANCH   1  16
BRANCH   3  17
ATOM     17  C   UNL     1     -10.093   1.422 124.471  0.00  0.00    +0.000 C 
ATOM     18  O   UNL     1     -11.060   1.222 123.770  0.00  0.00    +0.000 OA
BRANCH  17  19
ATOM     19  O   UNL     1      -9.532   2.643 124.589  0.00  0.00    +0.000 OA
ATOM     20  H   UNL     1      -8.596   2.712 124.289  0.00  0.00    +0.000 HD
ENDBRANCH  17  19
ENDBRANCH   3  17
TORSDOF 3
ENDMDL
MODEL 2
REMARK VINA RESULT:      -6.3      8.329      9.392
REMARK  Name = Cinoxacin
REMARK  4 active torsions:
REMARK  status: ('A' for Active; 'I' for Inactive)
REMARK    1  A    between atoms: C_1  and  C_2
REMARK    2  A    between atoms: C_2  and  N_3
REMARK    3  A    between atoms: C_5  and  C_6
REMARK    4  A    between atoms: C_6  and  O_7
REMARK                            x       y       z     vdW  Elec       q    Type
REMARK                         _______ _______ _______ _____ _____    ______ ____
ROOT
ATOM      1  N   UNL     1      -8.963   5.158 132.823  0.00  0.00    +0.000 N 
ATOM      2  N   UNL     1     -10.195   5.544 132.357  0.00  0.00    +0.000 NA
ATOM      3  C   UNL     1     -10.284   6.400 131.370  0.00  0.00    +0.000 A 
ATOM      4  C   UNL     1      -9.041   6.966 130.727  0.00  0.00    +0.000 A 
ATOM      5  O   UNL     1      -9.180   7.732 129.778  0.00  0.00    +0.000 OA
ATOM      6  C   UNL     1      -7.730   6.619 131.300  0.00  0.00    +0.000 A 
ATOM      7  C   UNL     1      -6.511   7.161 130.824  0.00  0.00    +0.000 A 
ATOM      8  C   UNL     1      -5.352   6.875 131.536  0.00  0.00    +0.000 A 
ATOM      9  C   UNL     1      -5.394   6.032 132.609  0.00  0.00    +0.000 A 
ATOM     10  O   UNL     1      -4.207   5.819 133.223  0.00  0.00    +0.000 OA
ATOM     11  C   UNL     1      -3.373   6.699 132.463  0.00  0.00    +0.000 C 
ATOM     12  O   UNL     1      -4.084   7.349 131.368  0.00  0.00    +0.000 OA
ATOM     13  C   UNL     1      -6.555   5.467 133.038  0.00  0.00    +0.000 A 
ATOM     14  C   UNL     1      -7.766   5.745 132.394  0.00  0.00    +0.000 A 
ENDROOT
BRANCH   1  16
ATOM     15  C   UNL     1      -9.050   2.711 133.275  0.00  0.00    +0.000 C 
ATOM     16  C   UNL     1      -8.897   4.119 133.873  0.00  0.00    +0.000 C 
ENDBRANCH   1  16
BRANCH   3  17
ATOM     17  C   UNL     1     -11.704   6.808 130.879  0.00  0.00    +0.000 C 
ATOM     18  O   UNL     1     -12.644   6.926 131.634  0.00  0.00    +0.000 OA
BRANCH  17  19
ATOM     19  O   UNL     1     -11.817   7.020 129.552  0.00  0.00    +0.000 OA
ATOM     20  H   UNL     1     -12.144   7.913 129.290  0.00  0.00    +0.000 HD
ENDBRANCH  17  19
ENDBRANCH   3  17
TORSDOF 3
ENDMDL
MODEL 3
REMARK VINA RESULT:      -6.3      4.733      8.071
REMARK  Name = Cinoxacin
REMARK  4 active torsions:
REMARK  status: ('A' for Active; 'I' for Inactive)
REMARK    1  A    between atoms: C_1  and  C_2
REMARK    2  A    between atoms: C_2  and  N_3
REMARK    3  A    between atoms: C_5  and  C_6
REMARK    4  A    between atoms: C_6  and  O_7
REMARK                            x       y       z     vdW  Elec       q    Type
REMARK                         _______ _______ _______ _____ _____    ______ ____
ROOT
ATOM      1  N   UNL     1      -6.054   3.063 124.775  0.00  0.00    +0.000 N 
ATOM      2  N   UNL     1      -6.995   2.391 125.516  0.00  0.00    +0.000 NA
ATOM      3  C   UNL     1      -8.066   1.912 124.936  0.00  0.00    +0.000 A 
ATOM      4  C   UNL     1      -8.280   2.083 123.452  0.00  0.00    +0.000 A 
ATOM      5  O   UNL     1      -9.281   1.577 122.951  0.00  0.00    +0.000 OA
ATOM      6  C   UNL     1      -7.314   2.888 122.687  0.00  0.00    +0.000 A 
ATOM      7  C   UNL     1      -7.468   3.177 121.310  0.00  0.00    +0.000 A 
ATOM      8  C   UNL     1      -6.572   4.068 120.730  0.00  0.00    +0.000 A 
ATOM      9  C   UNL     1      -5.536   4.575 121.459  0.00  0.00    +0.000 A 
ATOM     10  O   UNL     1      -4.723   5.427 120.793  0.00  0.00    +0.000 OA
ATOM     11  C   UNL     1      -5.401   5.485 119.535  0.00  0.00    +0.000 C 
ATOM     12  O   UNL     1      -6.559   4.600 119.473  0.00  0.00    +0.000 OA
ATOM     13  C   UNL     1      -5.354   4.260 122.771  0.00  0.00    +0.000 A 
ATOM     14  C   UNL     1      -6.242   3.402 123.429  0.00  0.00    +0.000 A 
ENDROOT
BRANCH   1  16
ATOM     15  C   UNL     1      -5.098   4.605 126.481  0.00  0.00    +0.000 C 
ATOM     16  C   UNL     1      -4.812   3.507 125.443  0.00  0.00    +0.000 C 
ENDBRANCH   1  16
BRANCH   3  17
ATOM     17  C   UNL     1      -9.104   1.160 125.820  0.00  0.00    +0.000 C 
ATOM     18  O   UNL     1      -9.318   1.464 126.973  0.00  0.00    +0.000 OA
BRANCH  17  19
ATOM     19  O   UNL     1      -9.749   0.142 125.215  0.00  0.00    +0.000 OA
ATOM     20  H   UNL     1     -10.320  -0.408 125.801  0.00  0.00    +0.000 HD
ENDBRANCH  17  19
ENDBRANCH   3  17
TORSDOF 3
ENDMDL
MODEL 4
REMARK VINA RESULT:      -6.2      3.297      4.914
REMARK  Name = Cinoxacin
REMARK  4 active torsions:
REMARK  status: ('A' for Active; 'I' for Inactive)
REMARK    1  A    between atoms: C_1  and  C_2
REMARK    2  A    between atoms: C_2  and  N_3
REMARK    3  A    between atoms: C_5  and  C_6
REMARK    4  A    between atoms: C_6  and  O_7
REMARK                            x       y       z     vdW  Elec       q    Type
REMARK                         _______ _______ _______ _____ _____    ______ ____
ROOT
ATOM      1  N   UNL     1      -8.872   2.298 123.330  0.00  0.00    +0.000 N 
ATOM      2  N   UNL     1      -8.660   3.463 124.025  0.00  0.00    +0.000 NA
ATOM      3  C   UNL     1      -8.232   3.419 125.261  0.00  0.00    +0.000 A 
ATOM      4  C   UNL     1      -7.959   2.096 125.936  0.00  0.00    +0.000 A 
ATOM      5  O   UNL     1      -7.519   2.113 127.082  0.00  0.00    +0.000 OA
ATOM      6  C   UNL     1      -8.283   0.856 125.213  0.00  0.00    +0.000 A 
ATOM      7  C   UNL     1      -8.144  -0.431 125.786  0.00  0.00    +0.000 A 
ATOM      8  C   UNL     1      -8.620  -1.519 125.063  0.00  0.00    +0.000 A 
ATOM      9  C   UNL     1      -9.128  -1.342 123.809  0.00  0.00    +0.000 A 
ATOM     10  O   UNL     1      -9.555  -2.469 123.194  0.00  0.00    +0.000 OA
ATOM     11  C   UNL     1      -9.337  -3.420 124.240  0.00  0.00    +0.000 C 
ATOM     12  O   UNL     1      -8.712  -2.833 125.420  0.00  0.00    +0.000 OA
ATOM     13  C   UNL     1      -9.217  -0.112 123.233  0.00  0.00    +0.000 A 
ATOM     14  C   UNL     1      -8.795   1.031 123.921  0.00  0.00    +0.000 A 
ENDROOT
BRANCH   1  16
ATOM     15  C   UNL     1      -8.577   3.573 121.211  0.00  0.00    +0.000 C 
ATOM     16  C   UNL     1      -9.263   2.386 121.907  0.00  0.00    +0.000 C 
ENDBRANCH   1  16
BRANCH   3  17
ATOM     17  C   UNL     1      -8.008   4.767 126.008  0.00  0.00    +0.000 C 
ATOM     18  O   UNL     1      -8.845   5.642 126.035  0.00  0.00    +0.000 OA
BRANCH  17  19
ATOM     19  O   UNL     1      -6.815   4.896 126.623  0.00  0.00    +0.000 OA
ATOM     20  H   UNL     1      -6.834   5.351 127.498  0.00  0.00    +0.000 HD
ENDBRANCH  17  19
ENDBRANCH   3  17
TORSDOF 3
ENDMDL
MODEL 5
REMARK VINA RESULT:      -6.0      6.476      7.844
REMARK  Name = Cinoxacin
REMARK  4 active torsions:
REMARK  status: ('A' for Active; 'I' for Inactive)
REMARK    1  A    between atoms: C_1  and  C_2
REMARK    2  A    between atoms: C_2  and  N_3
REMARK    3  A    between atoms: C_5  and  C_6
REMARK    4  A    between atoms: C_6  and  O_7
REMARK                            x       y       z     vdW  Elec       q    Type
REMARK                         _______ _______ _______ _____ _____    ______ ____
ROOT
ATOM      1  N   UNL     1      -8.059   6.149 131.170  0.00  0.00    +0.000 N 
ATOM      2  N   UNL     1      -8.724   7.111 130.451  0.00  0.00    +0.000 NA
ATOM      3  C   UNL     1      -9.892   6.843 129.923  0.00  0.00    +0.000 A 
ATOM      4  C   UNL     1     -10.525   5.484 130.102  0.00  0.00    +0.000 A 
ATOM      5  O   UNL     1     -11.640   5.299 129.623  0.00  0.00    +0.000 OA
ATOM      6  C   UNL     1      -9.758   4.433 130.791  0.00  0.00    +0.000 A 
ATOM      7  C   UNL     1     -10.226   3.105 130.938  0.00  0.00    +0.000 A 
ATOM      8  C   UNL     1      -9.354   2.165 131.475  0.00  0.00    +0.000 A 
ATOM      9  C   UNL     1      -8.119   2.545 131.916  0.00  0.00    +0.000 A 
ATOM     10  O   UNL     1      -7.357   1.551 132.427  0.00  0.00    +0.000 OA
ATOM     11  C   UNL     1      -8.219   0.433 132.194  0.00  0.00    +0.000 C 
ATOM     12  O   UNL     1      -9.504   0.817 131.621  0.00  0.00    +0.000 OA
ATOM     13  C   UNL     1      -7.684   3.831 131.825  0.00  0.00    +0.000 A 
ATOM     14  C   UNL     1      -8.494   4.821 131.256  0.00  0.00    +0.000 A 
ENDROOT
BRANCH   1  16
ATOM     15  C   UNL     1      -5.752   7.016 130.813  0.00  0.00    +0.000 C 
ATOM     16  C   UNL     1      -6.788   6.514 131.832  0.00  0.00    +0.000 C 
ENDBRANCH   1  16
BRANCH   3  17
ATOM     17  C   UNL     1     -10.606   7.965 129.115  0.00  0.00    +0.000 C 
ATOM     18  O   UNL     1     -10.108   8.481 128.139  0.00  0.00    +0.000 OA
BRANCH  17  19
ATOM     19  O   UNL     1     -11.820   8.328 129.578  0.00  0.00    +0.000 OA
ATOM     20  H   UNL     1     -12.368   8.866 128.959  0.00  0.00    +0.000 HD
ENDBRANCH  17  19
ENDBRANCH   3  17
TORSDOF 3
ENDMDL
MODEL 6
REMARK VINA RESULT:      -5.9      3.077      5.072
REMARK  Name = Cinoxacin
REMARK  4 active torsions:
REMARK  status: ('A' for Active; 'I' for Inactive)
REMARK    1  A    between atoms: C_1  and  C_2
REMARK    2  A    between atoms: C_2  and  N_3
REMARK    3  A    between atoms: C_5  and  C_6
REMARK    4  A    between atoms: C_6  and  O_7
REMARK                            x       y       z     vdW  Elec       q    Type
REMARK                         _______ _______ _______ _____ _____    ______ ____
ROOT
ATOM      1  N   UNL     1      -8.325   1.581 127.033  0.00  0.00    +0.000 N 
ATOM      2  N   UNL     1      -8.077   2.925 126.895  0.00  0.00    +0.000 NA
ATOM      3  C   UNL     1      -8.172   3.491 125.719  0.00  0.00    +0.000 A 
ATOM      4  C   UNL     1      -8.562   2.683 124.504  0.00  0.00    +0.000 A 
ATOM      5  O   UNL     1      -8.678   3.272 123.433  0.00  0.00    +0.000 OA
ATOM      6  C   UNL     1      -8.730   1.228 124.648  0.00  0.00    +0.000 A 
ATOM      7  C   UNL     1      -9.012   0.371 123.557  0.00  0.00    +0.000 A 
ATOM      8  C   UNL     1      -9.003  -1.000 123.789  0.00  0.00    +0.000 A 
ATOM      9  C   UNL     1      -8.806  -1.482 125.050  0.00  0.00    +0.000 A 
ATOM     10  O   UNL     1      -8.824  -2.831 125.162  0.00  0.00    +0.000 OA
ATOM     11  C   UNL     1      -8.980  -3.191 123.787  0.00  0.00    +0.000 C 
ATOM     12  O   UNL     1      -9.129  -2.035 122.910  0.00  0.00    +0.000 OA
ATOM     13  C   UNL     1      -8.585  -0.660 126.112  0.00  0.00    +0.000 A 
ATOM     14  C   UNL     1      -8.540   0.728 125.943  0.00  0.00    +0.000 A 
ENDROOT
BRANCH   1  16
ATOM     15  C   UNL     1      -7.953   2.050 129.450  0.00  0.00    +0.000 C 
ATOM     16  C   UNL     1      -8.302   0.994 128.389  0.00  0.00    +0.000 C 
ENDBRANCH   1  16
BRANCH   3  17
ATOM     17  C   UNL     1      -7.879   5.016 125.614  0.00  0.00    +0.000 C 
ATOM     18  O   UNL     1      -6.765   5.453 125.421  0.00  0.00    +0.000 OA
BRANCH  17  19
ATOM     19  O   UNL     1      -8.951   5.822 125.754  0.00  0.00    +0.000 OA
ATOM     20  H   UNL     1      -8.892   6.693 125.295  0.00  0.00    +0.000 HD
ENDBRANCH  17  19
ENDBRANCH   3  17
TORSDOF 3
ENDMDL
MODEL 7
REMARK VINA RESULT:      -5.7      3.949      6.746
REMARK  Name = Cinoxacin
REMARK  4 active torsions:
REMARK  status: ('A' for Active; 'I' for Inactive)
REMARK    1  A    between atoms: C_1  and  C_2
REMARK    2  A    between atoms: C_2  and  N_3
REMARK    3  A    between atoms: C_5  and  C_6
REMARK    4  A    between atoms: C_6  and  O_7
REMARK                            x       y       z     vdW  Elec       q    Type
REMARK                         _______ _______ _______ _____ _____    ______ ____
ROOT
ATOM      1  N   UNL     1      -8.463   1.851 125.138  0.00  0.00    +0.000 N 
ATOM      2  N   UNL     1      -8.635   1.891 126.500  0.00  0.00    +0.000 NA
ATOM      3  C   UNL     1      -8.021   2.803 127.210  0.00  0.00    +0.000 A 
ATOM      4  C   UNL     1      -7.126   3.823 126.548  0.00  0.00    +0.000 A 
ATOM      5  O   UNL     1      -6.608   4.682 127.256  0.00  0.00    +0.000 OA
ATOM      6  C   UNL     1      -6.874   3.708 125.103  0.00  0.00    +0.000 A 
ATOM      7  C   UNL     1      -5.987   4.562 124.403  0.00  0.00    +0.000 A 
ATOM      8  C   UNL     1      -5.716   4.265 123.072  0.00  0.00    +0.000 A 
ATOM      9  C   UNL     1      -6.356   3.230 122.454  0.00  0.00    +0.000 A 
ATOM     10  O   UNL     1      -6.021   3.036 121.157  0.00  0.00    +0.000 OA
ATOM     11  C   UNL     1      -5.008   4.035 121.010  0.00  0.00    +0.000 C 
ATOM     12  O   UNL     1      -4.830   4.844 122.211  0.00  0.00    +0.000 OA
ATOM     13  C   UNL     1      -7.248   2.438 123.108  0.00  0.00    +0.000 A 
ATOM     14  C   UNL     1      -7.536   2.654 124.461  0.00  0.00    +0.000 A 
ENDROOT
BRANCH   1  16
ATOM     15  C   UNL     1      -8.985  -0.566 124.840  0.00  0.00    +0.000 C 
ATOM     16  C   UNL     1      -9.244   0.870 124.355  0.00  0.00    +0.000 C 
ENDBRANCH   1  16
BRANCH   3  17
ATOM     17  C   UNL     1      -8.246   2.806 128.751  0.00  0.00    +0.000 C 
ATOM     18  O   UNL     1      -9.351   2.828 129.246  0.00  0.00    +0.000 OA
BRANCH  17  19
ATOM     19  O   UNL     1      -7.124   2.786 129.499  0.00  0.00    +0.000 OA
ATOM     20  H   UNL     1      -6.459   2.102 129.249  0.00  0.00    +0.000 HD
ENDBRANCH  17  19
ENDBRANCH   3  17
TORSDOF 3
ENDMDL
MODEL 8
REMARK VINA RESULT:      -5.7      2.412      5.724
REMARK  Name = Cinoxacin
REMARK  4 active torsions:
REMARK  status: ('A' for Active; 'I' for Inactive)
REMARK    1  A    between atoms: C_1  and  C_2
REMARK    2  A    between atoms: C_2  and  N_3
REMARK    3  A    between atoms: C_5  and  C_6
REMARK    4  A    between atoms: C_6  and  O_7
REMARK                            x       y       z     vdW  Elec       q    Type
REMARK                         _______ _______ _______ _____ _____    ______ ____
ROOT
ATOM      1  N   UNL     1      -6.324  -2.555 125.018  0.00  0.00    +0.000 N 
ATOM      2  N   UNL     1      -5.533  -2.672 126.135  0.00  0.00    +0.000 NA
ATOM      3  C   UNL     1      -5.819  -1.987 127.213  0.00  0.00    +0.000 A 
ATOM      4  C   UNL     1      -7.018  -1.070 127.249  0.00  0.00    +0.000 A 
ATOM      5  O   UNL     1      -7.264  -0.484 128.299  0.00  0.00    +0.000 OA
ATOM      6  C   UNL     1      -7.798  -0.881 126.016  0.00  0.00    +0.000 A 
ATOM      7  C   UNL     1      -8.888   0.019 125.922  0.00  0.00    +0.000 A 
ATOM      8  C   UNL     1      -9.455   0.222 124.669  0.00  0.00    +0.000 A 
ATOM      9  C   UNL     1      -9.016  -0.490 123.591  0.00  0.00    +0.000 A 
ATOM     10  O   UNL     1      -9.642  -0.217 122.423  0.00  0.00    +0.000 OA
ATOM     11  C   UNL     1     -10.511   0.837 122.849  0.00  0.00    +0.000 C 
ATOM     12  O   UNL     1     -10.424   1.101 124.281  0.00  0.00    +0.000 OA
ATOM     13  C   UNL     1      -8.003  -1.394 123.687  0.00  0.00    +0.000 A 
ATOM     14  C   UNL     1      -7.359  -1.618 124.909  0.00  0.00    +0.000 A 
ENDROOT
BRANCH   1  16
ATOM     15  C   UNL     1      -4.516  -3.610 123.669  0.00  0.00    +0.000 C 
ATOM     16  C   UNL     1      -6.030  -3.414 123.851  0.00  0.00    +0.000 C 
ENDBRANCH   1  16
BRANCH   3  17
ATOM     17  C   UNL     1      -4.891  -2.151 128.453  0.00  0.00    +0.000 C 
ATOM     18  O   UNL     1      -4.590  -3.236 128.901  0.00  0.00    +0.000 OA
BRANCH  17  19
ATOM     19  O   UNL     1      -4.444  -1.001 128.997  0.00  0.00    +0.000 OA
ATOM     20  H   UNL     1      -4.960  -0.668 129.769  0.00  0.00    +0.000 HD
ENDBRANCH  17  19
ENDBRANCH   3  17
TORSDOF 3
ENDMDL
MODEL 9
REMARK VINA RESULT:      -5.6      2.110      2.759
REMARK  Name = Cinoxacin
REMARK  4 active torsions:
REMARK  status: ('A' for Active; 'I' for Inactive)
REMARK    1  A    between atoms: C_1  and  C_2
REMARK    2  A    between atoms: C_2  and  N_3
REMARK    3  A    between atoms: C_5  and  C_6
REMARK    4  A    between atoms: C_6  and  O_7
REMARK                            x       y       z     vdW  Elec       q    Type
REMARK                         _______ _______ _______ _____ _____    ______ ____
ROOT
ATOM      1  N   UNL     1      -8.748   0.478 124.383  0.00  0.00    +0.000 N 
ATOM      2  N   UNL     1      -8.648   1.845 124.304  0.00  0.00    +0.000 NA
ATOM      3  C   UNL     1      -8.176   2.526 125.317  0.00  0.00    +0.000 A 
ATOM      4  C   UNL     1      -7.728   1.824 126.577  0.00  0.00    +0.000 A 
ATOM      5  O   UNL     1      -7.253   2.507 127.479  0.00  0.00    +0.000 OA
ATOM      6  C   UNL     1      -7.932   0.370 126.684  0.00  0.00    +0.000 A 
ATOM      7  C   UNL     1      -7.624  -0.368 127.852  0.00  0.00    +0.000 A 
ATOM      8  C   UNL     1      -7.996  -1.708 127.889  0.00  0.00    +0.000 A 
ATOM      9  C   UNL     1      -8.564  -2.295 126.796  0.00  0.00    +0.000 A 
ATOM     10  O   UNL     1      -8.879  -3.603 126.941  0.00  0.00    +0.000 OA
ATOM     11  C   UNL     1      -8.516  -3.794 128.312  0.00  0.00    +0.000 C 
ATOM     12  O   UNL     1      -7.923  -2.606 128.914  0.00  0.00    +0.000 OA
ATOM     13  C   UNL     1      -8.815  -1.601 125.653  0.00  0.00    +0.000 A 
ATOM     14  C   UNL     1      -8.505  -0.240 125.560  0.00  0.00    +0.000 A 
ENDROOT
BRANCH   1  16
ATOM     15  C   UNL     1     -10.259   0.519 122.403  0.00  0.00    +0.000 C 
ATOM     16  C   UNL     1      -9.196  -0.268 123.187  0.00  0.00    +0.000 C 
ENDBRANCH   1  16
BRANCH   3  17
ATOM     17  C   UNL     1      -8.084   4.074 125.180  0.00  0.00    +0.000 C 
ATOM     18  O   UNL     1      -8.869   4.823 125.719  0.00  0.00    +0.000 OA
BRANCH  17  19
ATOM     19  O   UNL     1      -7.069   4.528 124.415  0.00  0.00    +0.000 OA
ATOM     20  H   UNL     1      -6.939   5.505 124.418  0.00  0.00    +0.000 HD
ENDBRANCH  17  19
ENDBRANCH   3  17
TORSDOF 3
ENDMDL
