MODEL 1
REMARK VINA RESULT:      -5.9      0.000      0.000
REMARK  Name = Cinoxate
REMARK  10 active torsions:
REMARK  status: ('A' for Active; 'I' for Inactive)
REMARK    1  A    between atoms: C_1  and  C_2
REMARK    2  A    between atoms: C_2  and  O_3
REMARK    3  A    between atoms: O_3  and  C_4
REMARK    4  A    between atoms: C_4  and  C_5
REMARK    5  A    between atoms: C_5  and  O_6
REMARK    6  A    between atoms: O_6  and  C_7
REMARK    7  A    between atoms: C_7  and  C_9
REMARK    8  A    between atoms: C_10  and  C_11
REMARK    9  A    between atoms: C_14  and  O_15
REMARK   10  A    between atoms: O_15  and  C_16
REMARK                            x       y       z     vdW  Elec       q    Type
REMARK                         _______ _______ _______ _____ _____    ______ ____
ROOT
ATOM      1  C   UNL     1      -8.504   0.875 123.694  0.00  0.00    +0.000 C 
ATOM      2  C   UNL     1      -8.424   2.217 123.605  0.00  0.00    +0.000 C 
ENDROOT
BRANCH   2   3
ATOM      3  C   UNL     1      -7.975   2.952 122.406  0.00  0.00    +0.000 A 
ATOM      4  C   UNL     1      -8.879   3.342 121.406  0.00  0.00    +0.000 A 
ATOM      5  C   UNL     1      -8.419   3.929 120.213  0.00  0.00    +0.000 A 
ATOM      6  C   UNL     1      -7.062   4.199 120.028  0.00  0.00    +0.000 A 
ATOM      7  C   UNL     1      -6.161   3.801 121.013  0.00  0.00    +0.000 A 
ATOM      8  C   UNL     1      -6.613   3.178 122.182  0.00  0.00    +0.000 A 
BRANCH   6   9
ATOM      9  O   UNL     1      -6.726   4.854 118.872  0.00  0.00    +0.000 OA
ATOM     10  C   UNL     1      -5.608   5.739 118.951  0.00  0.00    +0.000 C 
ENDBRANCH   6   9
ENDBRANCH   2   3
BRANCH   1  11
ATOM     11  C   UNL     1      -9.032   0.226 124.923  0.00  0.00    +0.000 C 
ATOM     12  O   UNL     1     -10.151   0.431 125.376  0.00  0.00    +0.000 OA
BRANCH  11  13
ATOM     13  O   UNL     1      -8.105  -0.620 125.456  0.00  0.00    +0.000 OA
BRANCH  13  14
ATOM     14  C   UNL     1      -8.077  -1.932 124.843  0.00  0.00    +0.000 C 
BRANCH  14  15
ATOM     15  C   UNL     1      -6.722  -2.612 125.076  0.00  0.00    +0.000 C 
BRANCH  15  16
ATOM     16  O   UNL     1      -6.367  -3.446 123.963  0.00  0.00    +0.000 OA
BRANCH  16  18
ATOM     17  C   UNL     1      -4.301  -4.658 123.640  0.00  0.00    +0.000 C 
ATOM     18  C   UNL     1      -4.983  -3.301 123.629  0.00  0.00    +0.000 C 
ENDBRANCH  16  18
ENDBRANCH  15  16
ENDBRANCH  14  15
ENDBRANCH  13  14
ENDBRANCH  11  13
ENDBRANCH   1  11
TORSDOF 8
ENDMDL
MODEL 2
REMARK VINA RESULT:      -5.8      2.158      2.665
REMARK  Name = Cinoxate
REMARK  10 active torsions:
REMARK  status: ('A' for Active; 'I' for Inactive)
REMARK    1  A    between atoms: C_1  and  C_2
REMARK    2  A    between atoms: C_2  and  O_3
REMARK    3  A    between atoms: O_3  and  C_4
REMARK    4  A    between atoms: C_4  and  C_5
REMARK    5  A    between atoms: C_5  and  O_6
REMARK    6  A    between atoms: O_6  and  C_7
REMARK    7  A    between atoms: C_7  and  C_9
REMARK    8  A    between atoms: C_10  and  C_11
REMARK    9  A    between atoms: C_14  and  O_15
REMARK   10  A    between atoms: O_15  and  C_16
REMARK                            x       y       z     vdW  Elec       q    Type
REMARK                         _______ _______ _______ _____ _____    ______ ____
ROOT
ATOM      1  C   UNL     1      -9.201   1.540 124.204  0.00  0.00    +0.000 C 
ATOM      2  C   UNL     1      -8.029   2.120 123.876  0.00  0.00    +0.000 C 
ENDROOT
BRANCH   2   3
ATOM      3  C   UNL     1      -7.736   2.736 122.566  0.00  0.00    +0.000 A 
ATOM      4  C   UNL     1      -6.421   3.014 122.167  0.00  0.00    +0.000 A 
ATOM      5  C   UNL     1      -6.166   3.714 120.973  0.00  0.00    +0.000 A 
ATOM      6  C   UNL     1      -7.213   4.085 120.127  0.00  0.00    +0.000 A 
ATOM      7  C   UNL     1      -8.520   3.821 120.527  0.00  0.00    +0.000 A 
ATOM      8  C   UNL     1      -8.778   3.162 121.735  0.00  0.00    +0.000 A 
BRANCH   6   9
ATOM      9  O   UNL     1      -6.856   4.681 118.945  0.00  0.00    +0.000 OA
ATOM     10  C   UNL     1      -5.736   5.565 118.999  0.00  0.00    +0.000 C 
ENDBRANCH   6   9
ENDBRANCH   2   3
BRANCH   1  11
ATOM     11  C   UNL     1      -9.426   1.005 125.572  0.00  0.00    +0.000 C 
ATOM     12  O   UNL     1      -9.205   1.637 126.597  0.00  0.00    +0.000 OA
BRANCH  11  13
ATOM     13  O   UNL     1      -9.913  -0.267 125.517  0.00  0.00    +0.000 OA
BRANCH  13  14
ATOM     14  C   UNL     1      -8.941  -1.257 125.101  0.00  0.00    +0.000 C 
BRANCH  14  15
ATOM     15  C   UNL     1      -8.753  -2.324 126.186  0.00  0.00    +0.000 C 
BRANCH  15  16
ATOM     16  O   UNL     1      -8.005  -1.804 127.295  0.00  0.00    +0.000 OA
BRANCH  16  18
ATOM     17  C   UNL     1      -8.830  -3.879 128.221  0.00  0.00    +0.000 C 
ATOM     18  C   UNL     1      -7.738  -2.824 128.263  0.00  0.00    +0.000 C 
ENDBRANCH  16  18
ENDBRANCH  15  16
ENDBRANCH  14  15
ENDBRANCH  13  14
ENDBRANCH  11  13
ENDBRANCH   1  11
TORSDOF 8
ENDMDL
MODEL 3
REMARK VINA RESULT:      -5.7     10.474     12.553
REMARK  Name = Cinoxate
REMARK  10 active torsions:
REMARK  status: ('A' for Active; 'I' for Inactive)
REMARK    1  A    between atoms: C_1  and  C_2
REMARK    2  A    between atoms: C_2  and  O_3
REMARK    3  A    between atoms: O_3  and  C_4
REMARK    4  A    between atoms: C_4  and  C_5
REMARK    5  A    between atoms: C_5  and  O_6
REMARK    6  A    between atoms: O_6  and  C_7
REMARK    7  A    between atoms: C_7  and  C_9
REMARK    8  A    between atoms: C_10  and  C_11
REMARK    9  A    between atoms: C_14  and  O_15
REMARK   10  A    between atoms: O_15  and  C_16
REMARK                            x       y       z     vdW  Elec       q    Type
REMARK                         _______ _______ _______ _____ _____    ______ ____
ROOT
ATOM      1  C   UNL     1     -10.493   6.387 131.781  0.00  0.00    +0.000 C 
ATOM      2  C   UNL     1      -9.347   6.557 131.093  0.00  0.00    +0.000 C 
ENDROOT
BRANCH   2   3
ATOM      3  C   UNL     1      -7.995   6.334 131.645  0.00  0.00    +0.000 A 
ATOM      4  C   UNL     1      -7.805   5.673 132.867  0.00  0.00    +0.000 A 
ATOM      5  C   UNL     1      -6.524   5.580 133.441  0.00  0.00    +0.000 A 
ATOM      6  C   UNL     1      -5.405   6.084 132.773  0.00  0.00    +0.000 A 
ATOM      7  C   UNL     1      -5.593   6.752 131.566  0.00  0.00    +0.000 A 
ATOM      8  C   UNL     1      -6.874   6.883 131.015  0.00  0.00    +0.000 A 
BRANCH   6   9
ATOM      9  O   UNL     1      -4.192   5.864 133.371  0.00  0.00    +0.000 OA
ATOM     10  C   UNL     1      -3.217   5.178 132.586  0.00  0.00    +0.000 C 
ENDBRANCH   6   9
ENDBRANCH   2   3
BRANCH   1  11
ATOM     11  C   UNL     1     -11.811   6.571 131.120  0.00  0.00    +0.000 C 
ATOM     12  O   UNL     1     -12.823   6.935 131.705  0.00  0.00    +0.000 OA
BRANCH  11  13
ATOM     13  O   UNL     1     -11.725   6.287 129.789  0.00  0.00    +0.000 OA
BRANCH  13  14
ATOM     14  C   UNL     1     -12.582   7.100 128.952  0.00  0.00    +0.000 C 
BRANCH  14  15
ATOM     15  C   UNL     1     -12.010   8.514 128.798  0.00  0.00    +0.000 C 
BRANCH  15  16
ATOM     16  O   UNL     1     -13.056   9.496 128.800  0.00  0.00    +0.000 OA
BRANCH  16  18
ATOM     17  C   UNL     1     -13.723  11.512 129.955  0.00  0.00    +0.000 C 
ATOM     18  C   UNL     1     -13.204  10.092 130.093  0.00  0.00    +0.000 C 
ENDBRANCH  16  18
ENDBRANCH  15  16
ENDBRANCH  14  15
ENDBRANCH  13  14
ENDBRANCH  11  13
ENDBRANCH   1  11
TORSDOF 8
ENDMDL
MODEL 4
REMARK VINA RESULT:      -5.6      4.188      8.265
REMARK  Name = Cinoxate
REMARK  10 active torsions:
REMARK  status: ('A' for Active; 'I' for Inactive)
REMARK    1  A    between atoms: C_1  and  C_2
REMARK    2  A    between atoms: C_2  and  O_3
REMARK    3  A    between atoms: O_3  and  C_4
REMARK    4  A    between atoms: C_4  and  C_5
REMARK    5  A    between atoms: C_5  and  O_6
REMARK    6  A    between atoms: O_6  and  C_7
REMARK    7  A    between atoms: C_7  and  C_9
REMARK    8  A    between atoms: C_10  and  C_11
REMARK    9  A    between atoms: C_14  and  O_15
REMARK   10  A    between atoms: O_15  and  C_16
REMARK                            x       y       z     vdW  Elec       q    Type
REMARK                         _______ _______ _______ _____ _____    ______ ____
ROOT
ATOM      1  C   UNL     1      -8.769  -3.167 125.795  0.00  0.00    +0.000 C 
ATOM      2  C   UNL     1      -8.020  -2.280 126.479  0.00  0.00    +0.000 C 
ENDROOT
BRANCH   2   3
ATOM      3  C   UNL     1      -7.381  -2.550 127.783  0.00  0.00    +0.000 A 
ATOM      4  C   UNL     1      -5.996  -2.415 127.960  0.00  0.00    +0.000 A 
ATOM      5  C   UNL     1      -5.387  -2.797 129.169  0.00  0.00    +0.000 A 
ATOM      6  C   UNL     1      -6.156  -3.252 130.243  0.00  0.00    +0.000 A 
ATOM      7  C   UNL     1      -7.530  -3.399 130.065  0.00  0.00    +0.000 A 
ATOM      8  C   UNL     1      -8.132  -3.060 128.847  0.00  0.00    +0.000 A 
BRANCH   6   9
ATOM      9  O   UNL     1      -5.481  -3.513 131.406  0.00  0.00    +0.000 OA
ATOM     10  C   UNL     1      -4.057  -3.432 131.340  0.00  0.00    +0.000 C 
ENDBRANCH   6   9
ENDBRANCH   2   3
BRANCH   1  11
ATOM     11  C   UNL     1      -9.317  -2.826 124.457  0.00  0.00    +0.000 C 
ATOM     12  O   UNL     1      -9.710  -3.658 123.648  0.00  0.00    +0.000 OA
BRANCH  11  13
ATOM     13  O   UNL     1      -9.323  -1.476 124.269  0.00  0.00    +0.000 OA
BRANCH  13  14
ATOM     14  C   UNL     1      -8.704  -1.046 123.033  0.00  0.00    +0.000 C 
BRANCH  14  15
ATOM     15  C   UNL     1      -7.206  -0.787 123.236  0.00  0.00    +0.000 C 
BRANCH  15  16
ATOM     16  O   UNL     1      -6.434  -1.954 122.915  0.00  0.00    +0.000 OA
BRANCH  16  18
ATOM     17  C   UNL     1      -5.124  -3.719 123.920  0.00  0.00    +0.000 C 
ATOM     18  C   UNL     1      -5.481  -2.244 123.943  0.00  0.00    +0.000 C 
ENDBRANCH  16  18
ENDBRANCH  15  16
ENDBRANCH  14  15
ENDBRANCH  13  14
ENDBRANCH  11  13
ENDBRANCH   1  11
TORSDOF 8
ENDMDL
MODEL 5
REMARK VINA RESULT:      -5.4      5.261      9.213
REMARK  Name = Cinoxate
REMARK  10 active torsions:
REMARK  status: ('A' for Active; 'I' for Inactive)
REMARK    1  A    between atoms: C_1  and  C_2
REMARK    2  A    between atoms: C_2  and  O_3
REMARK    3  A    between atoms: O_3  and  C_4
REMARK    4  A    between atoms: C_4  and  C_5
REMARK    5  A    between atoms: C_5  and  O_6
REMARK    6  A    between atoms: O_6  and  C_7
REMARK    7  A    between atoms: C_7  and  C_9
REMARK    8  A    between atoms: C_10  and  C_11
REMARK    9  A    between atoms: C_14  and  O_15
REMARK   10  A    between atoms: O_15  and  C_16
REMARK                            x       y       z     vdW  Elec       q    Type
REMARK                         _______ _______ _______ _____ _____    ______ ____
ROOT
ATOM      1  C   UNL     1      -7.945  -2.834 127.181  0.00  0.00    +0.000 C 
ATOM      2  C   UNL     1      -8.290  -3.414 128.347  0.00  0.00    +0.000 C 
ENDROOT
BRANCH   2   3
ATOM      3  C   UNL     1      -7.589  -3.201 129.629  0.00  0.00    +0.000 A 
ATOM      4  C   UNL     1      -7.890  -2.108 130.454  0.00  0.00    +0.000 A 
ATOM      5  C   UNL     1      -7.128  -1.849 131.608  0.00  0.00    +0.000 A 
ATOM      6  C   UNL     1      -6.100  -2.713 131.994  0.00  0.00    +0.000 A 
ATOM      7  C   UNL     1      -5.792  -3.792 131.169  0.00  0.00    +0.000 A 
ATOM      8  C   UNL     1      -6.521  -4.027 129.998  0.00  0.00    +0.000 A 
BRANCH   6   9
ATOM      9  O   UNL     1      -5.478  -2.425 133.180  0.00  0.00    +0.000 OA
ATOM     10  C   UNL     1      -5.802  -3.270 134.284  0.00  0.00    +0.000 C 
ENDBRANCH   6   9
ENDBRANCH   2   3
BRANCH   1  11
ATOM     11  C   UNL     1      -8.753  -3.058 125.953  0.00  0.00    +0.000 C 
ATOM     12  O   UNL     1      -9.912  -2.685 125.822  0.00  0.00    +0.000 OA
BRANCH  11  13
ATOM     13  O   UNL     1      -8.024  -3.721 125.011  0.00  0.00    +0.000 OA
BRANCH  13  14
ATOM     14  C   UNL     1      -8.032  -3.095 123.706  0.00  0.00    +0.000 C 
BRANCH  14  15
ATOM     15  C   UNL     1      -6.754  -2.276 123.487  0.00  0.00    +0.000 C 
BRANCH  15  16
ATOM     16  O   UNL     1      -5.668  -2.800 124.265  0.00  0.00    +0.000 OA
BRANCH  16  18
ATOM     17  C   UNL     1      -4.445  -4.784 123.624  0.00  0.00    +0.000 C 
ATOM     18  C   UNL     1      -4.618  -3.289 123.424  0.00  0.00    +0.000 C 
ENDBRANCH  16  18
ENDBRANCH  15  16
ENDBRANCH  14  15
ENDBRANCH  13  14
ENDBRANCH  11  13
ENDBRANCH   1  11
TORSDOF 8
ENDMDL
MODEL 6
REMARK VINA RESULT:      -5.4      8.907     10.847
REMARK  Name = Cinoxate
REMARK  10 active torsions:
REMARK  status: ('A' for Active; 'I' for Inactive)
REMARK    1  A    between atoms: C_1  and  C_2
REMARK    2  A    between atoms: C_2  and  O_3
REMARK    3  A    between atoms: O_3  and  C_4
REMARK    4  A    between atoms: C_4  and  C_5
REMARK    5  A    between atoms: C_5  and  O_6
REMARK    6  A    between atoms: O_6  and  C_7
REMARK    7  A    between atoms: C_7  and  C_9
REMARK    8  A    between atoms: C_10  and  C_11
REMARK    9  A    between atoms: C_14  and  O_15
REMARK   10  A    between atoms: O_15  and  C_16
REMARK                            x       y       z     vdW  Elec       q    Type
REMARK                         _______ _______ _______ _____ _____    ______ ____
ROOT
ATOM      1  C   UNL     1      -6.758   6.638 131.332  0.00  0.00    +0.000 C 
ATOM      2  C   UNL     1      -7.897   6.345 131.990  0.00  0.00    +0.000 C 
ENDROOT
BRANCH   2   3
ATOM      3  C   UNL     1      -9.255   6.526 131.437  0.00  0.00    +0.000 A 
ATOM      4  C   UNL     1      -9.461   7.122 130.185  0.00  0.00    +0.000 A 
ATOM      5  C   UNL     1     -10.762   7.402 129.729  0.00  0.00    +0.000 A 
ATOM      6  C   UNL     1     -11.878   7.029 130.482  0.00  0.00    +0.000 A 
ATOM      7  C   UNL     1     -11.675   6.449 131.732  0.00  0.00    +0.000 A 
ATOM      8  C   UNL     1     -10.380   6.209 132.206  0.00  0.00    +0.000 A 
BRANCH   6   9
ATOM      9  O   UNL     1     -13.101   7.263 129.911  0.00  0.00    +0.000 OA
ATOM     10  C   UNL     1     -13.205   6.999 128.512  0.00  0.00    +0.000 C 
ENDBRANCH   6   9
ENDBRANCH   2   3
BRANCH   1  11
ATOM     11  C   UNL     1      -5.434   6.359 131.946  0.00  0.00    +0.000 C 
ATOM     12  O   UNL     1      -5.277   6.054 133.121  0.00  0.00    +0.000 OA
BRANCH  11  13
ATOM     13  O   UNL     1      -4.439   6.486 131.022  0.00  0.00    +0.000 OA
BRANCH  13  14
ATOM     14  C   UNL     1      -4.518   7.694 130.227  0.00  0.00    +0.000 C 
BRANCH  14  15
ATOM     15  C   UNL     1      -3.556   7.625 129.035  0.00  0.00    +0.000 C 
BRANCH  15  16
ATOM     16  O   UNL     1      -4.155   6.934 127.929  0.00  0.00    +0.000 OA
BRANCH  16  18
ATOM     17  C   UNL     1      -4.662   4.579 127.722  0.00  0.00    +0.000 C 
ATOM     18  C   UNL     1      -3.574   5.637 127.753  0.00  0.00    +0.000 C 
ENDBRANCH  16  18
ENDBRANCH  15  16
ENDBRANCH  14  15
ENDBRANCH  13  14
ENDBRANCH  11  13
ENDBRANCH   1  11
TORSDOF 8
ENDMDL
MODEL 7
REMARK VINA RESULT:      -5.4     10.274     12.194
REMARK  Name = Cinoxate
REMARK  10 active torsions:
REMARK  status: ('A' for Active; 'I' for Inactive)
REMARK    1  A    between atoms: C_1  and  C_2
REMARK    2  A    between atoms: C_2  and  O_3
REMARK    3  A    between atoms: O_3  and  C_4
REMARK    4  A    between atoms: C_4  and  C_5
REMARK    5  A    between atoms: C_5  and  O_6
REMARK    6  A    between atoms: O_6  and  C_7
REMARK    7  A    between atoms: C_7  and  C_9
REMARK    8  A    between atoms: C_10  and  C_11
REMARK    9  A    between atoms: C_14  and  O_15
REMARK   10  A    between atoms: O_15  and  C_16
REMARK                            x       y       z     vdW  Elec       q    Type
REMARK                         _______ _______ _______ _____ _____    ______ ____
ROOT
ATOM      1  C   UNL     1      -7.954   6.345 131.885  0.00  0.00    +0.000 C 
ATOM      2  C   UNL     1      -7.061   6.959 131.084  0.00  0.00    +0.000 C 
ENDROOT
BRANCH   2   3
ATOM      3  C   UNL     1      -5.595   6.879 131.247  0.00  0.00    +0.000 A 
ATOM      4  C   UNL     1      -5.016   6.185 132.319  0.00  0.00    +0.000 A 
ATOM      5  C   UNL     1      -3.625   6.225 132.532  0.00  0.00    +0.000 A 
ATOM      6  C   UNL     1      -2.786   6.898 131.640  0.00  0.00    +0.000 A 
ATOM      7  C   UNL     1      -3.361   7.598 130.582  0.00  0.00    +0.000 A 
ATOM      8  C   UNL     1      -4.748   7.595 130.395  0.00  0.00    +0.000 A 
BRANCH   6   9
ATOM      9  O   UNL     1      -1.441   6.802 131.883  0.00  0.00    +0.000 OA
ATOM     10  C   UNL     1      -0.894   7.759 132.790  0.00  0.00    +0.000 C 
ENDBRANCH   6   9
ENDBRANCH   2   3
BRANCH   1  11
ATOM     11  C   UNL     1      -9.411   6.429 131.602  0.00  0.00    +0.000 C 
ATOM     12  O   UNL     1     -10.277   6.389 132.466  0.00  0.00    +0.000 OA
BRANCH  11  13
ATOM     13  O   UNL     1      -9.634   6.560 130.263  0.00  0.00    +0.000 OA
BRANCH  13  14
ATOM     14  C   UNL     1     -10.839   7.291 129.932  0.00  0.00    +0.000 C 
BRANCH  14  15
ATOM     15  C   UNL     1     -10.636   8.127 128.662  0.00  0.00    +0.000 C 
BRANCH  15  16
ATOM     16  O   UNL     1     -11.819   8.876 128.345  0.00  0.00    +0.000 OA
BRANCH  16  18
ATOM     17  C   UNL     1     -13.291  10.354 129.567  0.00  0.00    +0.000 C 
ATOM     18  C   UNL     1     -12.696   8.960 129.472  0.00  0.00    +0.000 C 
ENDBRANCH  16  18
ENDBRANCH  15  16
ENDBRANCH  14  15
ENDBRANCH  13  14
ENDBRANCH  11  13
ENDBRANCH   1  11
TORSDOF 8
ENDMDL
MODEL 8
REMARK VINA RESULT:      -5.4      9.802     10.796
REMARK  Name = Cinoxate
REMARK  10 active torsions:
REMARK  status: ('A' for Active; 'I' for Inactive)
REMARK    1  A    between atoms: C_1  and  C_2
REMARK    2  A    between atoms: C_2  and  O_3
REMARK    3  A    between atoms: O_3  and  C_4
REMARK    4  A    between atoms: C_4  and  C_5
REMARK    5  A    between atoms: C_5  and  O_6
REMARK    6  A    between atoms: O_6  and  C_7
REMARK    7  A    between atoms: C_7  and  C_9
REMARK    8  A    between atoms: C_10  and  C_11
REMARK    9  A    between atoms: C_14  and  O_15
REMARK   10  A    between atoms: O_15  and  C_16
REMARK                            x       y       z     vdW  Elec       q    Type
REMARK                         _______ _______ _______ _____ _____    ______ ____
ROOT
ATOM      1  C   UNL     1      -7.029   6.819 131.104  0.00  0.00    +0.000 C 
ATOM      2  C   UNL     1      -8.173   6.465 131.722  0.00  0.00    +0.000 C 
ENDROOT
BRANCH   2   3
ATOM      3  C   UNL     1      -9.527   6.714 131.186  0.00  0.00    +0.000 A 
ATOM      4  C   UNL     1     -10.674   6.287 131.871  0.00  0.00    +0.000 A 
ATOM      5  C   UNL     1     -11.948   6.419 131.289  0.00  0.00    +0.000 A 
ATOM      6  C   UNL     1     -12.104   7.040 130.048  0.00  0.00    +0.000 A 
ATOM      7  C   UNL     1     -10.965   7.453 129.360  0.00  0.00    +0.000 A 
ATOM      8  C   UNL     1      -9.693   7.283 129.920  0.00  0.00    +0.000 A 
BRANCH   6   9
ATOM      9  O   UNL     1     -13.392   7.201 129.607  0.00  0.00    +0.000 OA
ATOM     10  C   UNL     1     -13.603   7.040 128.205  0.00  0.00    +0.000 C 
ENDBRANCH   6   9
ENDBRANCH   2   3
BRANCH   1  11
ATOM     11  C   UNL     1      -5.709   6.467 131.691  0.00  0.00    +0.000 C 
ATOM     12  O   UNL     1      -4.683   7.104 131.492  0.00  0.00    +0.000 OA
BRANCH  11  13
ATOM     13  O   UNL     1      -5.812   5.354 132.472  0.00  0.00    +0.000 OA
BRANCH  13  14
ATOM     14  C   UNL     1      -5.231   4.163 131.887  0.00  0.00    +0.000 C 
BRANCH  14  15
ATOM     15  C   UNL     1      -6.277   3.048 131.769  0.00  0.00    +0.000 C 
BRANCH  15  16
ATOM     16  O   UNL     1      -7.031   2.920 132.984  0.00  0.00    +0.000 OA
BRANCH  16  18
ATOM     17  C   UNL     1      -9.167   3.629 133.866  0.00  0.00    +0.000 C 
ATOM     18  C   UNL     1      -8.439   2.943 132.725  0.00  0.00    +0.000 C 
ENDBRANCH  16  18
ENDBRANCH  15  16
ENDBRANCH  14  15
ENDBRANCH  13  14
ENDBRANCH  11  13
ENDBRANCH   1  11
TORSDOF 8
ENDMDL
MODEL 9
REMARK VINA RESULT:      -5.4      9.126     10.092
REMARK  Name = Cinoxate
REMARK  10 active torsions:
REMARK  status: ('A' for Active; 'I' for Inactive)
REMARK    1  A    between atoms: C_1  and  C_2
REMARK    2  A    between atoms: C_2  and  O_3
REMARK    3  A    between atoms: O_3  and  C_4
REMARK    4  A    between atoms: C_4  and  C_5
REMARK    5  A    between atoms: C_5  and  O_6
REMARK    6  A    between atoms: O_6  and  C_7
REMARK    7  A    between atoms: C_7  and  C_9
REMARK    8  A    between atoms: C_10  and  C_11
REMARK    9  A    between atoms: C_14  and  O_15
REMARK   10  A    between atoms: O_15  and  C_16
REMARK                            x       y       z     vdW  Elec       q    Type
REMARK                         _______ _______ _______ _____ _____    ______ ____
ROOT
ATOM      1  C   UNL     1      -9.340   4.446 132.564  0.00  0.00    +0.000 C 
ATOM      2  C   UNL     1      -9.688   5.746 132.647  0.00  0.00    +0.000 C 
ENDROOT
BRANCH   2   3
ATOM      3  C   UNL     1     -10.316   6.517 131.556  0.00  0.00    +0.000 A 
ATOM      4  C   UNL     1     -11.707   6.676 131.480  0.00  0.00    +0.000 A 
ATOM      5  C   UNL     1     -12.298   7.304 130.369  0.00  0.00    +0.000 A 
ATOM      6  C   UNL     1     -11.509   7.844 129.351  0.00  0.00    +0.000 A 
ATOM      7  C   UNL     1     -10.128   7.676 129.418  0.00  0.00    +0.000 A 
ATOM      8  C   UNL     1      -9.541   7.013 130.502  0.00  0.00    +0.000 A 
BRANCH   6   9
ATOM      9  O   UNL     1     -12.174   8.515 128.358  0.00  0.00    +0.000 OA
ATOM     10  C   UNL     1     -13.513   8.094 128.101  0.00  0.00    +0.000 C 
ENDBRANCH   6   9
ENDBRANCH   2   3
BRANCH   1  11
ATOM     11  C   UNL     1      -8.772   3.736 133.740  0.00  0.00    +0.000 C 
ATOM     12  O   UNL     1      -8.476   4.286 134.793  0.00  0.00    +0.000 OA
BRANCH  11  13
ATOM     13  O   UNL     1      -8.639   2.404 133.479  0.00  0.00    +0.000 OA
BRANCH  13  14
ATOM     14  C   UNL     1      -9.492   1.920 132.413  0.00  0.00    +0.000 C 
BRANCH  14  15
ATOM     15  C   UNL     1      -8.900   0.659 131.772  0.00  0.00    +0.000 C 
BRANCH  15  16
ATOM     16  O   UNL     1      -8.074  -0.053 132.705  0.00  0.00    +0.000 OA
BRANCH  16  18
ATOM     17  C   UNL     1      -7.637  -2.310 133.449  0.00  0.00    +0.000 C 
ATOM     18  C   UNL     1      -7.822  -1.389 132.257  0.00  0.00    +0.000 C 
ENDBRANCH  16  18
ENDBRANCH  15  16
ENDBRANCH  14  15
ENDBRANCH  13  14
ENDBRANCH  11  13
ENDBRANCH   1  11
TORSDOF 8
ENDMDL
