MODEL 1
REMARK VINA RESULT:      -6.7      0.000      0.000
REMARK  Name = Ciprofibrate
REMARK  7 active torsions:
REMARK  status: ('A' for Active; 'I' for Inactive)
REMARK    1  A    between atoms: C_1  and  C_2
REMARK    2  A    between atoms: C_2  and  C_3
REMARK    3  A    between atoms: C_2  and  O_4
REMARK    4  A    between atoms: C_2  and  C_16
REMARK    5  A    between atoms: O_4  and  C_5
REMARK    6  A    between atoms: C_8  and  C_11
REMARK    7  A    between atoms: C_16  and  O_17
REMARK                            x       y       z     vdW  Elec       q    Type
REMARK                         _______ _______ _______ _____ _____    ______ ____
ROOT
ATOM      1  C   UNL     1      -8.858  -2.493 126.612  0.00  0.00    +0.000 A 
ATOM      2  C   UNL     1      -9.060  -3.671 127.328  0.00  0.00    +0.000 A 
ATOM      3  C   UNL     1      -8.389  -3.868 128.551  0.00  0.00    +0.000 A 
ATOM      4  C   UNL     1      -7.409  -2.965 129.004  0.00  0.00    +0.000 A 
ATOM      5  C   UNL     1      -7.266  -1.789 128.276  0.00  0.00    +0.000 A 
ATOM      6  C   UNL     1      -8.059  -1.522 127.183  0.00  0.00    +0.000 A 
ENDROOT
BRANCH   4   7
ATOM      7  C   UNL     1      -6.569  -3.229 130.227  0.00  0.00    +0.000 C 
ATOM      8  C   UNL     1      -5.882  -4.565 130.433  0.00  0.00    +0.000 C 
ATOM      9  C   UNL     1      -5.061  -3.335 130.150  0.00  0.00    +0.000 C 
ATOM     10 CL   UNL     1      -4.212  -3.239 128.609  0.00  0.00    +0.000 Cl
ATOM     11 CL   UNL     1      -4.150  -2.617 131.472  0.00  0.00    +0.000 Cl
ENDBRANCH   4   7
BRANCH   1  12
ATOM     12  O   UNL     1      -9.504  -2.266 125.427  0.00  0.00    +0.000 OA
BRANCH  12  14
ATOM     13  C   UNL     1      -7.413  -3.241 124.357  0.00  0.00    +0.000 C 
ATOM     14  C   UNL     1      -8.790  -2.572 124.190  0.00  0.00    +0.000 C 
ATOM     15  C   UNL     1      -9.664  -3.475 123.305  0.00  0.00    +0.000 C 
BRANCH  14  16
ATOM     16  C   UNL     1      -8.620  -1.214 123.453  0.00  0.00    +0.000 C 
ATOM     17  O   UNL     1      -7.543  -0.626 123.355  0.00  0.00    +0.000 OA
BRANCH  16  18
ATOM     18  O   UNL     1      -9.729  -0.646 122.917  0.00  0.00    +0.000 OA
ATOM     19  H   UNL     1      -9.675   0.257 122.554  0.00  0.00    +0.000 HD
ENDBRANCH  16  18
ENDBRANCH  14  16
ENDBRANCH  12  14
ENDBRANCH   1  12
TORSDOF 5
ENDMDL
MODEL 2
REMARK VINA RESULT:      -6.5      0.950      1.303
REMARK  Name = Ciprofibrate
REMARK  7 active torsions:
REMARK  status: ('A' for Active; 'I' for Inactive)
REMARK    1  A    between atoms: C_1  and  C_2
REMARK    2  A    between atoms: C_2  and  C_3
REMARK    3  A    between atoms: C_2  and  O_4
REMARK    4  A    between atoms: C_2  and  C_16
REMARK    5  A    between atoms: O_4  and  C_5
REMARK    6  A    between atoms: C_8  and  C_11
REMARK    7  A    between atoms: C_16  and  O_17
REMARK                            x       y       z     vdW  Elec       q    Type
REMARK                         _______ _______ _______ _____ _____    ______ ____
ROOT
ATOM      1  C   UNL     1      -8.412  -2.450 127.004  0.00  0.00    +0.000 A 
ATOM      2  C   UNL     1      -8.784  -3.589 127.717  0.00  0.00    +0.000 A 
ATOM      3  C   UNL     1      -8.128  -3.901 128.924  0.00  0.00    +0.000 A 
ATOM      4  C   UNL     1      -7.008  -3.169 129.361  0.00  0.00    +0.000 A 
ATOM      5  C   UNL     1      -6.695  -2.024 128.638  0.00  0.00    +0.000 A 
ATOM      6  C   UNL     1      -7.458  -1.623 127.564  0.00  0.00    +0.000 A 
ENDROOT
BRANCH   4   7
ATOM      7  C   UNL     1      -6.196  -3.575 130.564  0.00  0.00    +0.000 C 
ATOM      8  C   UNL     1      -5.605  -4.967 130.678  0.00  0.00    +0.000 C 
ATOM      9  C   UNL     1      -4.699  -3.782 130.481  0.00  0.00    +0.000 C 
ATOM     10 CL   UNL     1      -3.836  -3.641 128.951  0.00  0.00    +0.000 Cl
ATOM     11 CL   UNL     1      -3.747  -3.222 131.850  0.00  0.00    +0.000 Cl
ENDBRANCH   4   7
BRANCH   1  12
ATOM     12  O   UNL     1      -9.039  -2.112 125.835  0.00  0.00    +0.000 OA
BRANCH  12  14
ATOM     13  C   UNL     1      -7.230  -1.422 124.186  0.00  0.00    +0.000 C 
ATOM     14  C   UNL     1      -8.348  -2.404 124.581  0.00  0.00    +0.000 C 
ATOM     15  C   UNL     1      -7.751  -3.819 124.645  0.00  0.00    +0.000 C 
BRANCH  14  16
ATOM     16  C   UNL     1      -9.448  -2.407 123.483  0.00  0.00    +0.000 C 
ATOM     17  O   UNL     1      -9.693  -1.435 122.767  0.00  0.00    +0.000 OA
BRANCH  16  18
ATOM     18  O   UNL     1     -10.187  -3.534 123.335  0.00  0.00    +0.000 OA
ATOM     19  H   UNL     1     -10.168  -4.213 124.033  0.00  0.00    +0.000 HD
ENDBRANCH  16  18
ENDBRANCH  14  16
ENDBRANCH  12  14
ENDBRANCH   1  12
TORSDOF 5
ENDMDL
MODEL 3
REMARK VINA RESULT:      -6.4      9.527     10.391
REMARK  Name = Ciprofibrate
REMARK  7 active torsions:
REMARK  status: ('A' for Active; 'I' for Inactive)
REMARK    1  A    between atoms: C_1  and  C_2
REMARK    2  A    between atoms: C_2  and  C_3
REMARK    3  A    between atoms: C_2  and  O_4
REMARK    4  A    between atoms: C_2  and  C_16
REMARK    5  A    between atoms: O_4  and  C_5
REMARK    6  A    between atoms: C_8  and  C_11
REMARK    7  A    between atoms: C_16  and  O_17
REMARK                            x       y       z     vdW  Elec       q    Type
REMARK                         _______ _______ _______ _____ _____    ______ ____
ROOT
ATOM      1  C   UNL     1     -11.921   6.328 130.597  0.00  0.00    +0.000 A 
ATOM      2  C   UNL     1     -11.480   5.147 130.004  0.00  0.00    +0.000 A 
ATOM      3  C   UNL     1     -10.488   4.375 130.641  0.00  0.00    +0.000 A 
ATOM      4  C   UNL     1      -9.827   4.837 131.795  0.00  0.00    +0.000 A 
ATOM      5  C   UNL     1     -10.323   6.002 132.369  0.00  0.00    +0.000 A 
ATOM      6  C   UNL     1     -11.416   6.652 131.841  0.00  0.00    +0.000 A 
ENDROOT
BRANCH   4   7
ATOM      7  C   UNL     1      -8.659   4.106 132.405  0.00  0.00    +0.000 C 
ATOM      8  C   UNL     1      -8.766   3.457 133.771  0.00  0.00    +0.000 C 
ATOM      9  C   UNL     1      -8.644   2.599 132.540  0.00  0.00    +0.000 C 
ATOM     10 CL   UNL     1     -10.032   1.622 132.068  0.00  0.00    +0.000 Cl
ATOM     11 CL   UNL     1      -7.112   1.792 132.234  0.00  0.00    +0.000 Cl
ENDBRANCH   4   7
BRANCH   1  12
ATOM     12  O   UNL     1     -12.893   7.093 130.010  0.00  0.00    +0.000 OA
BRANCH  12  14
ATOM     13  C   UNL     1     -10.966   8.161 128.739  0.00  0.00    +0.000 C 
ATOM     14  C   UNL     1     -12.481   8.053 128.988  0.00  0.00    +0.000 C 
ATOM     15  C   UNL     1     -13.169   7.709 127.658  0.00  0.00    +0.000 C 
BRANCH  14  16
ATOM     16  C   UNL     1     -13.028   9.430 129.458  0.00  0.00    +0.000 C 
ATOM     17  O   UNL     1     -13.080   9.771 130.640  0.00  0.00    +0.000 OA
BRANCH  16  18
ATOM     18  O   UNL     1     -13.494  10.280 128.509  0.00  0.00    +0.000 OA
ATOM     19  H   UNL     1     -13.396  11.240 128.638  0.00  0.00    +0.000 HD
ENDBRANCH  16  18
ENDBRANCH  14  16
ENDBRANCH  12  14
ENDBRANCH   1  12
TORSDOF 5
ENDMDL
MODEL 4
REMARK VINA RESULT:      -6.3      9.000      9.943
REMARK  Name = Ciprofibrate
REMARK  7 active torsions:
REMARK  status: ('A' for Active; 'I' for Inactive)
REMARK    1  A    between atoms: C_1  and  C_2
REMARK    2  A    between atoms: C_2  and  C_3
REMARK    3  A    between atoms: C_2  and  O_4
REMARK    4  A    between atoms: C_2  and  C_16
REMARK    5  A    between atoms: O_4  and  C_5
REMARK    6  A    between atoms: C_8  and  C_11
REMARK    7  A    between atoms: C_16  and  O_17
REMARK                            x       y       z     vdW  Elec       q    Type
REMARK                         _______ _______ _______ _____ _____    ______ ____
ROOT
ATOM      1  C   UNL     1     -10.657   6.101 129.675  0.00  0.00    +0.000 A 
ATOM      2  C   UNL     1      -9.430   5.486 129.433  0.00  0.00    +0.000 A 
ATOM      3  C   UNL     1      -8.535   5.274 130.500  0.00  0.00    +0.000 A 
ATOM      4  C   UNL     1      -8.785   5.793 131.783  0.00  0.00    +0.000 A 
ATOM      5  C   UNL     1     -10.035   6.369 131.986  0.00  0.00    +0.000 A 
ATOM      6  C   UNL     1     -10.978   6.405 130.983  0.00  0.00    +0.000 A 
ENDROOT
BRANCH   4   7
ATOM      7  C   UNL     1      -7.776   5.715 132.900  0.00  0.00    +0.000 C 
ATOM      8  C   UNL     1      -8.207   5.766 134.352  0.00  0.00    +0.000 C 
ATOM      9  C   UNL     1      -7.652   4.489 133.778  0.00  0.00    +0.000 C 
ATOM     10 CL   UNL     1      -8.742   3.118 133.597  0.00  0.00    +0.000 Cl
ATOM     11 CL   UNL     1      -6.024   4.006 134.236  0.00  0.00    +0.000 Cl
ENDBRANCH   4   7
BRANCH   1  12
ATOM     12  O   UNL     1     -11.555   6.309 128.663  0.00  0.00    +0.000 OA
BRANCH  12  14
ATOM     13  C   UNL     1     -12.840   8.490 128.420  0.00  0.00    +0.000 C 
ATOM     14  C   UNL     1     -11.608   7.640 128.061  0.00  0.00    +0.000 C 
ATOM     15  C   UNL     1     -10.345   8.425 128.447  0.00  0.00    +0.000 C 
BRANCH  14  16
ATOM     16  C   UNL     1     -11.567   7.410 126.524  0.00  0.00    +0.000 C 
ATOM     17  O   UNL     1     -10.796   8.006 125.771  0.00  0.00    +0.000 OA
BRANCH  16  18
ATOM     18  O   UNL     1     -12.448   6.525 125.996  0.00  0.00    +0.000 OA
ATOM     19  H   UNL     1     -13.131   6.131 126.568  0.00  0.00    +0.000 HD
ENDBRANCH  16  18
ENDBRANCH  14  16
ENDBRANCH  12  14
ENDBRANCH   1  12
TORSDOF 5
ENDMDL
MODEL 5
REMARK VINA RESULT:      -6.1      1.719      2.254
REMARK  Name = Ciprofibrate
REMARK  7 active torsions:
REMARK  status: ('A' for Active; 'I' for Inactive)
REMARK    1  A    between atoms: C_1  and  C_2
REMARK    2  A    between atoms: C_2  and  C_3
REMARK    3  A    between atoms: C_2  and  O_4
REMARK    4  A    between atoms: C_2  and  C_16
REMARK    5  A    between atoms: O_4  and  C_5
REMARK    6  A    between atoms: C_8  and  C_11
REMARK    7  A    between atoms: C_16  and  O_17
REMARK                            x       y       z     vdW  Elec       q    Type
REMARK                         _______ _______ _______ _____ _____    ______ ____
ROOT
ATOM      1  C   UNL     1      -8.808  -2.481 126.510  0.00  0.00    +0.000 A 
ATOM      2  C   UNL     1      -7.767  -1.699 127.006  0.00  0.00    +0.000 A 
ATOM      3  C   UNL     1      -7.166  -2.037 128.234  0.00  0.00    +0.000 A 
ATOM      4  C   UNL     1      -7.681  -3.066 129.045  0.00  0.00    +0.000 A 
ATOM      5  C   UNL     1      -8.696  -3.840 128.495  0.00  0.00    +0.000 A 
ATOM      6  C   UNL     1      -9.153  -3.617 127.215  0.00  0.00    +0.000 A 
ENDROOT
BRANCH   4   7
ATOM      7  C   UNL     1      -7.154  -3.345 130.429  0.00  0.00    +0.000 C 
ATOM      8  C   UNL     1      -6.011  -2.538 131.012  0.00  0.00    +0.000 C 
ATOM      9  C   UNL     1      -7.397  -2.395 131.582  0.00  0.00    +0.000 C 
ATOM     10 CL   UNL     1      -8.237  -0.865 131.347  0.00  0.00    +0.000 Cl
ATOM     11 CL   UNL     1      -7.735  -3.122 133.147  0.00  0.00    +0.000 Cl
ENDBRANCH   4   7
BRANCH   1  12
ATOM     12  O   UNL     1      -9.405  -2.186 125.313  0.00  0.00    +0.000 OA
BRANCH  12  14
ATOM     13  C   UNL     1      -7.523  -3.558 124.292  0.00  0.00    +0.000 C 
ATOM     14  C   UNL     1      -8.753  -2.654 124.092  0.00  0.00    +0.000 C 
ATOM     15  C   UNL     1      -9.774  -3.406 123.224  0.00  0.00    +0.000 C 
BRANCH  14  16
ATOM     16  C   UNL     1      -8.334  -1.371 123.320  0.00  0.00    +0.000 C 
ATOM     17  O   UNL     1      -9.102  -0.435 123.095  0.00  0.00    +0.000 OA
BRANCH  16  18
ATOM     18  O   UNL     1      -7.063  -1.304 122.852  0.00  0.00    +0.000 OA
ATOM     19  H   UNL     1      -6.718  -0.454 122.527  0.00  0.00    +0.000 HD
ENDBRANCH  16  18
ENDBRANCH  14  16
ENDBRANCH  12  14
ENDBRANCH   1  12
TORSDOF 5
ENDMDL
MODEL 6
REMARK VINA RESULT:      -6.1      4.104      5.760
REMARK  Name = Ciprofibrate
REMARK  7 active torsions:
REMARK  status: ('A' for Active; 'I' for Inactive)
REMARK    1  A    between atoms: C_1  and  C_2
REMARK    2  A    between atoms: C_2  and  C_3
REMARK    3  A    between atoms: C_2  and  O_4
REMARK    4  A    between atoms: C_2  and  C_16
REMARK    5  A    between atoms: O_4  and  C_5
REMARK    6  A    between atoms: C_8  and  C_11
REMARK    7  A    between atoms: C_16  and  O_17
REMARK                            x       y       z     vdW  Elec       q    Type
REMARK                         _______ _______ _______ _____ _____    ______ ____
ROOT
ATOM      1  C   UNL     1      -8.220   1.757 124.348  0.00  0.00    +0.000 A 
ATOM      2  C   UNL     1      -7.849   0.675 123.553  0.00  0.00    +0.000 A 
ATOM      3  C   UNL     1      -8.241  -0.627 123.920  0.00  0.00    +0.000 A 
ATOM      4  C   UNL     1      -8.882  -0.882 125.147  0.00  0.00    +0.000 A 
ATOM      5  C   UNL     1      -9.263   0.229 125.890  0.00  0.00    +0.000 A 
ATOM      6  C   UNL     1      -9.039   1.508 125.432  0.00  0.00    +0.000 A 
ENDROOT
BRANCH   4   7
ATOM      7  C   UNL     1      -9.173  -2.279 125.633  0.00  0.00    +0.000 C 
ATOM      8  C   UNL     1      -8.350  -3.461 125.162  0.00  0.00    +0.000 C 
ATOM      9  C   UNL     1      -8.247  -2.998 126.590  0.00  0.00    +0.000 C 
ATOM     10 CL   UNL     1      -6.733  -2.272 127.122  0.00  0.00    +0.000 Cl
ATOM     11 CL   UNL     1      -9.007  -3.974 127.841  0.00  0.00    +0.000 Cl
ENDBRANCH   4   7
BRANCH   1  12
ATOM     12  O   UNL     1      -7.866   3.036 124.011  0.00  0.00    +0.000 OA
BRANCH  12  14
ATOM     13  C   UNL     1      -5.761   2.562 125.357  0.00  0.00    +0.000 C 
ATOM     14  C   UNL     1      -6.584   3.539 124.498  0.00  0.00    +0.000 C 
ATOM     15  C   UNL     1      -5.723   3.981 123.304  0.00  0.00    +0.000 C 
BRANCH  14  16
ATOM     16  C   UNL     1      -6.917   4.808 125.332  0.00  0.00    +0.000 C 
ATOM     17  O   UNL     1      -7.648   4.794 126.324  0.00  0.00    +0.000 OA
BRANCH  16  18
ATOM     18  O   UNL     1      -6.393   5.988 124.920  0.00  0.00    +0.000 OA
ATOM     19  H   UNL     1      -6.301   6.164 123.966  0.00  0.00    +0.000 HD
ENDBRANCH  16  18
ENDBRANCH  14  16
ENDBRANCH  12  14
ENDBRANCH   1  12
TORSDOF 5
ENDMDL
MODEL 7
REMARK VINA RESULT:      -6.0     10.219     12.018
REMARK  Name = Ciprofibrate
REMARK  7 active torsions:
REMARK  status: ('A' for Active; 'I' for Inactive)
REMARK    1  A    between atoms: C_1  and  C_2
REMARK    2  A    between atoms: C_2  and  C_3
REMARK    3  A    between atoms: C_2  and  O_4
REMARK    4  A    between atoms: C_2  and  C_16
REMARK    5  A    between atoms: O_4  and  C_5
REMARK    6  A    between atoms: C_8  and  C_11
REMARK    7  A    between atoms: C_16  and  O_17
REMARK                            x       y       z     vdW  Elec       q    Type
REMARK                         _______ _______ _______ _____ _____    ______ ____
ROOT
ATOM      1  C   UNL     1      -9.289   6.014 132.126  0.00  0.00    +0.000 A 
ATOM      2  C   UNL     1     -10.613   6.288 132.465  0.00  0.00    +0.000 A 
ATOM      3  C   UNL     1     -11.597   6.330 131.458  0.00  0.00    +0.000 A 
ATOM      4  C   UNL     1     -11.257   6.239 130.096  0.00  0.00    +0.000 A 
ATOM      5  C   UNL     1      -9.932   5.931 129.806  0.00  0.00    +0.000 A 
ATOM      6  C   UNL     1      -9.013   5.709 130.807  0.00  0.00    +0.000 A 
ENDROOT
BRANCH   4   7
ATOM      7  C   UNL     1     -12.267   6.434 128.995  0.00  0.00    +0.000 C 
ATOM      8  C   UNL     1     -13.146   7.669 128.946  0.00  0.00    +0.000 C 
ATOM      9  C   UNL     1     -12.073   7.471 127.909  0.00  0.00    +0.000 C 
ATOM     10 CL   UNL     1     -10.693   8.565 127.923  0.00  0.00    +0.000 Cl
ATOM     11 CL   UNL     1     -12.559   7.012 126.282  0.00  0.00    +0.000 Cl
ENDBRANCH   4   7
BRANCH   1  12
ATOM     12  O   UNL     1      -8.312   5.954 133.082  0.00  0.00    +0.000 OA
BRANCH  12  14
ATOM     13  C   UNL     1      -9.246   3.691 133.772  0.00  0.00    +0.000 C 
ATOM     14  C   UNL     1      -8.053   4.661 133.712  0.00  0.00    +0.000 C 
ATOM     15  C   UNL     1      -6.894   3.962 132.984  0.00  0.00    +0.000 C 
BRANCH  14  16
ATOM     16  C   UNL     1      -7.574   4.983 135.155  0.00  0.00    +0.000 C 
ATOM     17  O   UNL     1      -6.533   4.538 135.639  0.00  0.00    +0.000 OA
BRANCH  16  18
ATOM     18  O   UNL     1      -8.366   5.776 135.919  0.00  0.00    +0.000 OA
ATOM     19  H   UNL     1      -8.094   6.695 136.095  0.00  0.00    +0.000 HD
ENDBRANCH  16  18
ENDBRANCH  14  16
ENDBRANCH  12  14
ENDBRANCH   1  12
TORSDOF 5
ENDMDL
MODEL 8
REMARK VINA RESULT:      -5.8      1.521      2.204
REMARK  Name = Ciprofibrate
REMARK  7 active torsions:
REMARK  status: ('A' for Active; 'I' for Inactive)
REMARK    1  A    between atoms: C_1  and  C_2
REMARK    2  A    between atoms: C_2  and  C_3
REMARK    3  A    between atoms: C_2  and  O_4
REMARK    4  A    between atoms: C_2  and  C_16
REMARK    5  A    between atoms: O_4  and  C_5
REMARK    6  A    between atoms: C_8  and  C_11
REMARK    7  A    between atoms: C_16  and  O_17
REMARK                            x       y       z     vdW  Elec       q    Type
REMARK                         _______ _______ _______ _____ _____    ______ ____
ROOT
ATOM      1  C   UNL     1      -7.592  -2.734 126.347  0.00  0.00    +0.000 A 
ATOM      2  C   UNL     1      -6.309  -2.330 126.714  0.00  0.00    +0.000 A 
ATOM      3  C   UNL     1      -5.951  -2.298 128.075  0.00  0.00    +0.000 A 
ATOM      4  C   UNL     1      -6.899  -2.529 129.090  0.00  0.00    +0.000 A 
ATOM      5  C   UNL     1      -8.154  -2.961 128.678  0.00  0.00    +0.000 A 
ATOM      6  C   UNL     1      -8.440  -3.169 127.347  0.00  0.00    +0.000 A 
ENDROOT
BRANCH   4   7
ATOM      7  C   UNL     1      -6.580  -2.349 130.551  0.00  0.00    +0.000 C 
ATOM      8  C   UNL     1      -7.371  -3.073 131.623  0.00  0.00    +0.000 C 
ATOM      9  C   UNL     1      -5.936  -3.449 131.368  0.00  0.00    +0.000 C 
ATOM     10 CL   UNL     1      -5.603  -5.032 130.672  0.00  0.00    +0.000 Cl
ATOM     11 CL   UNL     1      -4.723  -2.954 132.542  0.00  0.00    +0.000 Cl
ENDBRANCH   4   7
BRANCH   1  12
ATOM     12  O   UNL     1      -7.967  -2.789 125.032  0.00  0.00    +0.000 OA
BRANCH  12  14
ATOM     13  C   UNL     1      -8.742  -0.381 125.295  0.00  0.00    +0.000 C 
ATOM     14  C   UNL     1      -8.316  -1.534 124.369  0.00  0.00    +0.000 C 
ATOM     15  C   UNL     1      -7.128  -1.060 123.517  0.00  0.00    +0.000 C 
BRANCH  14  16
ATOM     16  C   UNL     1      -9.481  -1.879 123.400  0.00  0.00    +0.000 C 
ATOM     17  O   UNL     1      -9.983  -1.062 122.627  0.00  0.00    +0.000 OA
BRANCH  16  18
ATOM     18  O   UNL     1      -9.979  -3.139 123.436  0.00  0.00    +0.000 OA
ATOM     19  H   UNL     1     -10.304  -3.500 124.280  0.00  0.00    +0.000 HD
ENDBRANCH  16  18
ENDBRANCH  14  16
ENDBRANCH  12  14
ENDBRANCH   1  12
TORSDOF 5
ENDMDL
MODEL 9
REMARK VINA RESULT:      -5.8      4.063      6.719
REMARK  Name = Ciprofibrate
REMARK  7 active torsions:
REMARK  status: ('A' for Active; 'I' for Inactive)
REMARK    1  A    between atoms: C_1  and  C_2
REMARK    2  A    between atoms: C_2  and  C_3
REMARK    3  A    between atoms: C_2  and  O_4
REMARK    4  A    between atoms: C_2  and  C_16
REMARK    5  A    between atoms: O_4  and  C_5
REMARK    6  A    between atoms: C_8  and  C_11
REMARK    7  A    between atoms: C_16  and  O_17
REMARK                            x       y       z     vdW  Elec       q    Type
REMARK                         _______ _______ _______ _____ _____    ______ ____
ROOT
ATOM      1  C   UNL     1      -7.050  -2.692 129.485  0.00  0.00    +0.000 A 
ATOM      2  C   UNL     1      -7.942  -3.691 129.100  0.00  0.00    +0.000 A 
ATOM      3  C   UNL     1      -8.574  -3.614 127.843  0.00  0.00    +0.000 A 
ATOM      4  C   UNL     1      -8.438  -2.480 127.021  0.00  0.00    +0.000 A 
ATOM      5  C   UNL     1      -7.513  -1.526 127.430  0.00  0.00    +0.000 A 
ATOM      6  C   UNL     1      -6.761  -1.699 128.570  0.00  0.00    +0.000 A 
ENDROOT
BRANCH   4   7
ATOM      7  C   UNL     1      -9.224  -2.305 125.748  0.00  0.00    +0.000 C 
ATOM      8  C   UNL     1      -8.783  -1.320 124.683  0.00  0.00    +0.000 C 
ATOM      9  C   UNL     1      -8.704  -2.799 124.415  0.00  0.00    +0.000 C 
ATOM     10 CL   UNL     1      -7.108  -3.532 124.269  0.00  0.00    +0.000 Cl
ATOM     11 CL   UNL     1      -9.882  -3.515 123.323  0.00  0.00    +0.000 Cl
ENDBRANCH   4   7
BRANCH   1  12
ATOM     12  O   UNL     1      -6.409  -2.745 130.693  0.00  0.00    +0.000 OA
BRANCH  12  14
ATOM     13  C   UNL     1      -5.516  -5.084 131.140  0.00  0.00    +0.000 C 
ATOM     14  C   UNL     1      -5.235  -3.608 130.806  0.00  0.00    +0.000 C 
ATOM     15  C   UNL     1      -4.432  -3.551 129.497  0.00  0.00    +0.000 C 
BRANCH  14  16
ATOM     16  C   UNL     1      -4.356  -2.982 131.924  0.00  0.00    +0.000 C 
ATOM     17  O   UNL     1      -3.135  -2.848 131.831  0.00  0.00    +0.000 OA
BRANCH  16  18
ATOM     18  O   UNL     1      -4.974  -2.592 133.067  0.00  0.00    +0.000 OA
ATOM     19  H   UNL     1      -4.884  -1.669 133.367  0.00  0.00    +0.000 HD
ENDBRANCH  16  18
ENDBRANCH  14  16
ENDBRANCH  12  14
ENDBRANCH   1  12
TORSDOF 5
ENDMDL
