MODEL 1
REMARK VINA RESULT:      -7.0      0.000      0.000
REMARK  Name = Ciprofloxacin
REMARK  4 active torsions:
REMARK  status: ('A' for Active; 'I' for Inactive)
REMARK    1  A    between atoms: O_1  and  C_2
REMARK    2  A    between atoms: C_2  and  C_4
REMARK    3  A    between atoms: N_6  and  C_7
REMARK    4  A    between atoms: C_12  and  N_13
REMARK                            x       y       z     vdW  Elec       q    Type
REMARK                         _______ _______ _______ _____ _____    ______ ____
ROOT
ATOM      1  C   UNL     1      -9.391   0.501 125.457  0.00  0.00    +0.000 A 
ATOM      2  C   UNL     1      -9.238  -0.791 125.120  0.00  0.00    +0.000 A 
ATOM      3  N   UNL     1      -8.576  -1.770 125.862  0.00  0.00    +0.000 N 
ATOM      4  C   UNL     1      -7.894  -1.381 127.058  0.00  0.00    +0.000 A 
ATOM      5  C   UNL     1      -7.112  -2.258 127.840  0.00  0.00    +0.000 A 
ATOM      6  C   UNL     1      -6.355  -1.818 128.947  0.00  0.00    +0.000 A 
ATOM      7  C   UNL     1      -6.514  -0.485 129.344  0.00  0.00    +0.000 A 
ATOM      8  F   UNL     1      -5.805   0.003 130.373  0.00  0.00    +0.000 F 
ATOM      9  C   UNL     1      -7.352   0.383 128.660  0.00  0.00    +0.000 A 
ATOM     10  C   UNL     1      -7.984  -0.049 127.494  0.00  0.00    +0.000 A 
ATOM     11  C   UNL     1      -8.738   0.947 126.704  0.00  0.00    +0.000 A 
ATOM     12  O   UNL     1      -8.814   2.106 127.097  0.00  0.00    +0.000 OA
ENDROOT
BRANCH   6  13
ATOM     13  N   UNL     1      -5.516  -2.694 129.598  0.00  0.00    +0.000 N 
ATOM     14  C   UNL     1      -4.287  -3.207 128.994  0.00  0.00    +0.000 C 
ATOM     15  C   UNL     1      -3.137  -2.979 130.012  0.00  0.00    +0.000 C 
ATOM     16  N   UNL     1      -3.396  -3.610 131.328  0.00  0.00    +0.000 NA
ATOM     17  C   UNL     1      -4.690  -3.127 131.862  0.00  0.00    +0.000 C 
ATOM     18  C   UNL     1      -5.863  -3.331 130.874  0.00  0.00    +0.000 C 
ATOM     19  H   UNL     1      -2.649  -3.360 131.975  0.00  0.00    +0.000 HD
ENDBRANCH   6  13
BRANCH   3  20
ATOM     20  C   UNL     1      -8.507  -3.171 125.370  0.00  0.00    +0.000 C 
ATOM     21  C   UNL     1      -8.931  -3.616 123.996  0.00  0.00    +0.000 C 
ATOM     22  C   UNL     1      -7.474  -3.617 124.368  0.00  0.00    +0.000 C 
ENDBRANCH   3  20
BRANCH   1  23
ATOM     23  C   UNL     1     -10.077   1.479 124.594  0.00  0.00    +0.000 C 
ATOM     24  O   UNL     1     -11.096   1.225 123.962  0.00  0.00    +0.000 OA
BRANCH  23  25
ATOM     25  O   UNL     1      -9.497   2.698 124.548  0.00  0.00    +0.000 OA
ATOM     26  H   UNL     1     -10.090   3.454 124.388  0.00  0.00    +0.000 HD
ENDBRANCH  23  25
ENDBRANCH   1  23
TORSDOF 4
ENDMDL
MODEL 2
REMARK VINA RESULT:      -6.7      1.771      2.024
REMARK  Name = Ciprofloxacin
REMARK  4 active torsions:
REMARK  status: ('A' for Active; 'I' for Inactive)
REMARK    1  A    between atoms: O_1  and  C_2
REMARK    2  A    between atoms: C_2  and  C_4
REMARK    3  A    between atoms: N_6  and  C_7
REMARK    4  A    between atoms: C_12  and  N_13
REMARK                            x       y       z     vdW  Elec       q    Type
REMARK                         _______ _______ _______ _____ _____    ______ ____
ROOT
ATOM      1  C   UNL     1      -8.332   1.529 123.937  0.00  0.00    +0.000 A 
ATOM      2  C   UNL     1      -7.845   0.349 123.517  0.00  0.00    +0.000 A 
ATOM      3  N   UNL     1      -7.508  -0.743 124.317  0.00  0.00    +0.000 N 
ATOM      4  C   UNL     1      -7.579  -0.600 125.739  0.00  0.00    +0.000 A 
ATOM      5  C   UNL     1      -7.175  -1.596 126.653  0.00  0.00    +0.000 A 
ATOM      6  C   UNL     1      -7.146  -1.382 128.048  0.00  0.00    +0.000 A 
ATOM      7  C   UNL     1      -7.674  -0.175 128.521  0.00  0.00    +0.000 A 
ATOM      8  F   UNL     1      -7.654   0.102 129.834  0.00  0.00    +0.000 F 
ATOM      9  C   UNL     1      -8.174   0.790 127.660  0.00  0.00    +0.000 A 
ATOM     10  C   UNL     1      -8.068   0.600 126.282  0.00  0.00    +0.000 A 
ATOM     11  C   UNL     1      -8.462   1.715 125.397  0.00  0.00    +0.000 A 
ATOM     12  O   UNL     1      -8.892   2.756 125.881  0.00  0.00    +0.000 OA
ENDROOT
BRANCH   6  13
ATOM     13  N   UNL     1      -6.628  -2.347 128.881  0.00  0.00    +0.000 N 
ATOM     14  C   UNL     1      -5.207  -2.694 128.900  0.00  0.00    +0.000 C 
ATOM     15  C   UNL     1      -4.735  -2.642 130.379  0.00  0.00    +0.000 C 
ATOM     16  N   UNL     1      -5.519  -3.532 131.268  0.00  0.00    +0.000 NA
ATOM     17  C   UNL     1      -6.958  -3.203 131.151  0.00  0.00    +0.000 C 
ATOM     18  C   UNL     1      -7.468  -3.236 129.690  0.00  0.00    +0.000 C 
ATOM     19  H   UNL     1      -5.219  -3.396 132.232  0.00  0.00    +0.000 HD
ENDBRANCH   6  13
BRANCH   3  20
ATOM     20  C   UNL     1      -6.999  -1.999 123.705  0.00  0.00    +0.000 C 
ATOM     21  C   UNL     1      -6.291  -2.076 122.379  0.00  0.00    +0.000 C 
ATOM     22  C   UNL     1      -5.529  -2.324 123.652  0.00  0.00    +0.000 C 
ENDBRANCH   3  20
BRANCH   1  23
ATOM     23  C   UNL     1      -8.629   2.646 123.023  0.00  0.00    +0.000 C 
ATOM     24  O   UNL     1      -9.214   2.507 121.955  0.00  0.00    +0.000 OA
BRANCH  23  25
ATOM     25  O   UNL     1      -8.205   3.855 123.449  0.00  0.00    +0.000 OA
ATOM     26  H   UNL     1      -8.176   3.988 124.414  0.00  0.00    +0.000 HD
ENDBRANCH  23  25
ENDBRANCH   1  23
TORSDOF 4
ENDMDL
MODEL 3
REMARK VINA RESULT:      -6.4      2.207      3.326
REMARK  Name = Ciprofloxacin
REMARK  4 active torsions:
REMARK  status: ('A' for Active; 'I' for Inactive)
REMARK    1  A    between atoms: O_1  and  C_2
REMARK    2  A    between atoms: C_2  and  C_4
REMARK    3  A    between atoms: N_6  and  C_7
REMARK    4  A    between atoms: C_12  and  N_13
REMARK                            x       y       z     vdW  Elec       q    Type
REMARK                         _______ _______ _______ _____ _____    ______ ____
ROOT
ATOM      1  C   UNL     1      -8.321   1.125 124.759  0.00  0.00    +0.000 A 
ATOM      2  C   UNL     1      -7.131   1.630 125.126  0.00  0.00    +0.000 A 
ATOM      3  N   UNL     1      -6.197   1.028 125.969  0.00  0.00    +0.000 N 
ATOM      4  C   UNL     1      -6.542  -0.206 126.606  0.00  0.00    +0.000 A 
ATOM      5  C   UNL     1      -5.725  -0.861 127.551  0.00  0.00    +0.000 A 
ATOM      6  C   UNL     1      -6.144  -2.013 128.250  0.00  0.00    +0.000 A 
ATOM      7  C   UNL     1      -7.365  -2.584 127.871  0.00  0.00    +0.000 A 
ATOM      8  F   UNL     1      -7.833  -3.665 128.512  0.00  0.00    +0.000 F 
ATOM      9  C   UNL     1      -8.152  -2.025 126.876  0.00  0.00    +0.000 A 
ATOM     10  C   UNL     1      -7.770  -0.815 126.297  0.00  0.00    +0.000 A 
ATOM     11  C   UNL     1      -8.711  -0.168 125.359  0.00  0.00    +0.000 A 
ATOM     12  O   UNL     1      -9.776  -0.711 125.092  0.00  0.00    +0.000 OA
ENDROOT
BRANCH   6  13
ATOM     13  N   UNL     1      -5.354  -2.539 129.247  0.00  0.00    +0.000 N 
ATOM     14  C   UNL     1      -4.155  -3.330 128.971  0.00  0.00    +0.000 C 
ATOM     15  C   UNL     1      -2.993  -2.722 129.802  0.00  0.00    +0.000 C 
ATOM     16  N   UNL     1      -3.285  -2.673 131.254  0.00  0.00    +0.000 NA
ATOM     17  C   UNL     1      -4.550  -1.938 131.480  0.00  0.00    +0.000 C 
ATOM     18  C   UNL     1      -5.734  -2.510 130.664  0.00  0.00    +0.000 C 
ATOM     19  H   UNL     1      -2.525  -2.195 131.735  0.00  0.00    +0.000 HD
ENDBRANCH   6  13
BRANCH   3  20
ATOM     20  C   UNL     1      -4.906   1.702 126.268  0.00  0.00    +0.000 C 
ATOM     21  C   UNL     1      -4.602   3.141 125.953  0.00  0.00    +0.000 C 
ATOM     22  C   UNL     1      -4.768   2.705 127.383  0.00  0.00    +0.000 C 
ENDBRANCH   3  20
BRANCH   1  23
ATOM     23  C   UNL     1      -9.266   1.847 123.888  0.00  0.00    +0.000 C 
ATOM     24  O   UNL     1      -8.954   2.327 122.805  0.00  0.00    +0.000 OA
BRANCH  23  25
ATOM     25  O   UNL     1     -10.522   1.945 124.375  0.00  0.00    +0.000 OA
ATOM     26  H   UNL     1     -10.623   2.418 125.220  0.00  0.00    +0.000 HD
ENDBRANCH  23  25
ENDBRANCH   1  23
TORSDOF 4
ENDMDL
MODEL 4
REMARK VINA RESULT:      -6.3      3.841      6.817
REMARK  Name = Ciprofloxacin
REMARK  4 active torsions:
REMARK  status: ('A' for Active; 'I' for Inactive)
REMARK    1  A    between atoms: O_1  and  C_2
REMARK    2  A    between atoms: C_2  and  C_4
REMARK    3  A    between atoms: N_6  and  C_7
REMARK    4  A    between atoms: C_12  and  N_13
REMARK                            x       y       z     vdW  Elec       q    Type
REMARK                         _______ _______ _______ _____ _____    ______ ____
ROOT
ATOM      1  C   UNL     1      -6.052  -2.139 127.991  0.00  0.00    +0.000 A 
ATOM      2  C   UNL     1      -6.748  -2.506 126.902  0.00  0.00    +0.000 A 
ATOM      3  N   UNL     1      -7.004  -1.721 125.777  0.00  0.00    +0.000 N 
ATOM      4  C   UNL     1      -6.588  -0.352 125.785  0.00  0.00    +0.000 A 
ATOM      5  C   UNL     1      -6.872   0.565 124.752  0.00  0.00    +0.000 A 
ATOM      6  C   UNL     1      -6.552   1.936 124.842  0.00  0.00    +0.000 A 
ATOM      7  C   UNL     1      -5.800   2.347 125.950  0.00  0.00    +0.000 A 
ATOM      8  F   UNL     1      -5.483   3.640 126.110  0.00  0.00    +0.000 F 
ATOM      9  C   UNL     1      -5.414   1.455 126.939  0.00  0.00    +0.000 A 
ATOM     10  C   UNL     1      -5.859   0.133 126.884  0.00  0.00    +0.000 A 
ATOM     11  C   UNL     1      -5.564  -0.746 128.034  0.00  0.00    +0.000 A 
ATOM     12  O   UNL     1      -4.923  -0.313 128.985  0.00  0.00    +0.000 OA
ENDROOT
BRANCH   6  13
ATOM     13  N   UNL     1      -6.962   2.805 123.858  0.00  0.00    +0.000 N 
ATOM     14  C   UNL     1      -6.025   3.593 123.057  0.00  0.00    +0.000 C 
ATOM     15  C   UNL     1      -6.386   3.371 121.564  0.00  0.00    +0.000 C 
ATOM     16  N   UNL     1      -7.791   3.724 121.250  0.00  0.00    +0.000 NA
ATOM     17  C   UNL     1      -8.701   2.969 122.142  0.00  0.00    +0.000 C 
ATOM     18  C   UNL     1      -8.370   3.157 123.641  0.00  0.00    +0.000 C 
ATOM     19  H   UNL     1      -7.992   3.484 120.281  0.00  0.00    +0.000 HD
ENDBRANCH   6  13
BRANCH   3  20
ATOM     20  C   UNL     1      -7.774  -2.273 124.632  0.00  0.00    +0.000 C 
ATOM     21  C   UNL     1      -8.017  -3.739 124.394  0.00  0.00    +0.000 C 
ATOM     22  C   UNL     1      -9.157  -2.847 124.801  0.00  0.00    +0.000 C 
ENDBRANCH   3  20
BRANCH   1  23
ATOM     23  C   UNL     1      -5.857  -3.023 129.154  0.00  0.00    +0.000 C 
ATOM     24  O   UNL     1      -6.781  -3.533 129.778  0.00  0.00    +0.000 OA
BRANCH  23  25
ATOM     25  O   UNL     1      -4.567  -3.238 129.493  0.00  0.00    +0.000 OA
ATOM     26  H   UNL     1      -4.184  -4.090 129.217  0.00  0.00    +0.000 HD
ENDBRANCH  23  25
ENDBRANCH   1  23
TORSDOF 4
ENDMDL
MODEL 5
REMARK VINA RESULT:      -6.3      6.945     10.246
REMARK  Name = Ciprofloxacin
REMARK  4 active torsions:
REMARK  status: ('A' for Active; 'I' for Inactive)
REMARK    1  A    between atoms: O_1  and  C_2
REMARK    2  A    between atoms: C_2  and  C_4
REMARK    3  A    between atoms: N_6  and  C_7
REMARK    4  A    between atoms: C_12  and  N_13
REMARK                            x       y       z     vdW  Elec       q    Type
REMARK                         _______ _______ _______ _____ _____    ______ ____
ROOT
ATOM      1  C   UNL     1      -6.736   2.705 132.167  0.00  0.00    +0.000 A 
ATOM      2  C   UNL     1      -6.189   3.933 132.185  0.00  0.00    +0.000 A 
ATOM      3  N   UNL     1      -6.832   5.132 131.881  0.00  0.00    +0.000 N 
ATOM      4  C   UNL     1      -8.179   5.088 131.401  0.00  0.00    +0.000 A 
ATOM      5  C   UNL     1      -8.901   6.221 130.971  0.00  0.00    +0.000 A 
ATOM      6  C   UNL     1     -10.185   6.129 130.392  0.00  0.00    +0.000 A 
ATOM      7  C   UNL     1     -10.797   4.870 130.385  0.00  0.00    +0.000 A 
ATOM      8  F   UNL     1     -12.006   4.709 129.828  0.00  0.00    +0.000 F 
ATOM      9  C   UNL     1     -10.159   3.747 130.891  0.00  0.00    +0.000 A 
ATOM     10  C   UNL     1      -8.840   3.850 131.336  0.00  0.00    +0.000 A 
ATOM     11  C   UNL     1      -8.139   2.606 131.716  0.00  0.00    +0.000 A 
ATOM     12  O   UNL     1      -8.727   1.532 131.661  0.00  0.00    +0.000 OA
ENDROOT
BRANCH   6  13
ATOM     13  N   UNL     1     -10.790   7.254 129.880  0.00  0.00    +0.000 N 
ATOM     14  C   UNL     1     -10.134   8.133 128.912  0.00  0.00    +0.000 C 
ATOM     15  C   UNL     1     -11.115   8.333 127.725  0.00  0.00    +0.000 C 
ATOM     16  N   UNL     1     -12.428   8.878 128.145  0.00  0.00    +0.000 NA
ATOM     17  C   UNL     1     -13.015   8.005 129.186  0.00  0.00    +0.000 C 
ATOM     18  C   UNL     1     -12.066   7.774 130.386  0.00  0.00    +0.000 C 
ATOM     19  H   UNL     1     -13.052   8.912 127.340  0.00  0.00    +0.000 HD
ENDBRANCH   6  13
BRANCH   3  20
ATOM     20  C   UNL     1      -6.100   6.423 131.967  0.00  0.00    +0.000 C 
ATOM     21  C   UNL     1      -4.604   6.551 132.069  0.00  0.00    +0.000 C 
ATOM     22  C   UNL     1      -5.308   6.972 130.809  0.00  0.00    +0.000 C 
ENDBRANCH   3  20
BRANCH   1  23
ATOM     23  C   UNL     1      -5.972   1.481 132.471  0.00  0.00    +0.000 C 
ATOM     24  O   UNL     1      -4.909   1.197 131.931  0.00  0.00    +0.000 OA
BRANCH  23  25
ATOM     25  O   UNL     1      -6.534   0.680 133.402  0.00  0.00    +0.000 OA
ATOM     26  H   UNL     1      -7.499   0.563 133.347  0.00  0.00    +0.000 HD
ENDBRANCH  23  25
ENDBRANCH   1  23
TORSDOF 4
ENDMDL
MODEL 6
REMARK VINA RESULT:      -6.3      2.129      3.785
REMARK  Name = Ciprofloxacin
REMARK  4 active torsions:
REMARK  status: ('A' for Active; 'I' for Inactive)
REMARK    1  A    between atoms: O_1  and  C_2
REMARK    2  A    between atoms: C_2  and  C_4
REMARK    3  A    between atoms: N_6  and  C_7
REMARK    4  A    between atoms: C_12  and  N_13
REMARK                            x       y       z     vdW  Elec       q    Type
REMARK                         _______ _______ _______ _____ _____    ______ ____
ROOT
ATOM      1  C   UNL     1      -9.140   1.010 125.101  0.00  0.00    +0.000 A 
ATOM      2  C   UNL     1      -8.507   1.826 125.960  0.00  0.00    +0.000 A 
ATOM      3  N   UNL     1      -7.773   1.443 127.082  0.00  0.00    +0.000 N 
ATOM      4  C   UNL     1      -7.748   0.059 127.447  0.00  0.00    +0.000 A 
ATOM      5  C   UNL     1      -7.122  -0.439 128.609  0.00  0.00    +0.000 A 
ATOM      6  C   UNL     1      -7.216  -1.792 129.002  0.00  0.00    +0.000 A 
ATOM      7  C   UNL     1      -7.843  -2.675 128.115  0.00  0.00    +0.000 A 
ATOM      8  F   UNL     1      -7.987  -3.969 128.439  0.00  0.00    +0.000 F 
ATOM      9  C   UNL     1      -8.382  -2.241 126.914  0.00  0.00    +0.000 A 
ATOM     10  C   UNL     1      -8.387  -0.877 126.617  0.00  0.00    +0.000 A 
ATOM     11  C   UNL     1      -9.112  -0.434 125.408  0.00  0.00    +0.000 A 
ATOM     12  O   UNL     1      -9.662  -1.260 124.689  0.00  0.00    +0.000 OA
ENDROOT
BRANCH   6  13
ATOM     13  N   UNL     1      -6.689  -2.195 130.208  0.00  0.00    +0.000 N 
ATOM     14  C   UNL     1      -7.199  -1.718 131.493  0.00  0.00    +0.000 C 
ATOM     15  C   UNL     1      -7.471  -2.965 132.378  0.00  0.00    +0.000 C 
ATOM     16  N   UNL     1      -6.273  -3.819 132.557  0.00  0.00    +0.000 NA
ATOM     17  C   UNL     1      -5.740  -4.207 131.231  0.00  0.00    +0.000 C 
ATOM     18  C   UNL     1      -5.462  -2.992 130.314  0.00  0.00    +0.000 C 
ATOM     19  H   UNL     1      -6.531  -4.657 133.077  0.00  0.00    +0.000 HD
ENDBRANCH   6  13
BRANCH   3  20
ATOM     20  C   UNL     1      -7.105   2.463 127.933  0.00  0.00    +0.000 C 
ATOM     21  C   UNL     1      -7.329   3.947 127.819  0.00  0.00    +0.000 C 
ATOM     22  C   UNL     1      -7.841   3.201 129.021  0.00  0.00    +0.000 C 
ENDBRANCH   3  20
BRANCH   1  23
ATOM     23  C   UNL     1      -9.925   1.504 123.955  0.00  0.00    +0.000 C 
ATOM     24  O   UNL     1      -9.425   2.042 122.974  0.00  0.00    +0.000 OA
BRANCH  23  25
ATOM     25  O   UNL     1     -11.259   1.320 124.062  0.00  0.00    +0.000 OA
ATOM     26  H   UNL     1     -11.824   2.010 123.671  0.00  0.00    +0.000 HD
ENDBRANCH  23  25
ENDBRANCH   1  23
TORSDOF 4
ENDMDL
MODEL 7
REMARK VINA RESULT:      -6.2      3.146      4.443
REMARK  Name = Ciprofloxacin
REMARK  4 active torsions:
REMARK  status: ('A' for Active; 'I' for Inactive)
REMARK    1  A    between atoms: O_1  and  C_2
REMARK    2  A    between atoms: C_2  and  C_4
REMARK    3  A    between atoms: N_6  and  C_7
REMARK    4  A    between atoms: C_12  and  N_13
REMARK                            x       y       z     vdW  Elec       q    Type
REMARK                         _______ _______ _______ _____ _____    ______ ____
ROOT
ATOM      1  C   UNL     1      -8.499  -1.868 124.575  0.00  0.00    +0.000 A 
ATOM      2  C   UNL     1      -8.248  -0.548 124.562  0.00  0.00    +0.000 A 
ATOM      3  N   UNL     1      -7.853   0.233 125.649  0.00  0.00    +0.000 N 
ATOM      4  C   UNL     1      -7.795  -0.373 126.944  0.00  0.00    +0.000 A 
ATOM      5  C   UNL     1      -7.505   0.332 128.131  0.00  0.00    +0.000 A 
ATOM      6  C   UNL     1      -7.572  -0.268 129.407  0.00  0.00    +0.000 A 
ATOM      7  C   UNL     1      -7.802  -1.648 129.455  0.00  0.00    +0.000 A 
ATOM      8  F   UNL     1      -7.902  -2.276 130.636  0.00  0.00    +0.000 F 
ATOM      9  C   UNL     1      -7.993  -2.395 128.302  0.00  0.00    +0.000 A 
ATOM     10  C   UNL     1      -8.050  -1.749 127.067  0.00  0.00    +0.000 A 
ATOM     11  C   UNL     1      -8.415  -2.551 125.881  0.00  0.00    +0.000 A 
ATOM     12  O   UNL     1      -8.630  -3.752 126.000  0.00  0.00    +0.000 OA
ENDROOT
BRANCH   6  13
ATOM     13  N   UNL     1      -7.397   0.498 130.537  0.00  0.00    +0.000 N 
ATOM     14  C   UNL     1      -8.253   1.640 130.858  0.00  0.00    +0.000 C 
ATOM     15  C   UNL     1      -8.744   1.458 132.320  0.00  0.00    +0.000 C 
ATOM     16  N   UNL     1      -7.632   1.328 133.291  0.00  0.00    +0.000 NA
ATOM     17  C   UNL     1      -6.744   0.216 132.880  0.00  0.00    +0.000 C 
ATOM     18  C   UNL     1      -6.238   0.356 131.425  0.00  0.00    +0.000 C 
ATOM     19  H   UNL     1      -8.013   1.132 134.216  0.00  0.00    +0.000 HD
ENDBRANCH   6  13
BRANCH   3  20
ATOM     20  C   UNL     1      -7.587   1.685 125.477  0.00  0.00    +0.000 C 
ATOM     21  C   UNL     1      -7.429   2.373 124.148  0.00  0.00    +0.000 C 
ATOM     22  C   UNL     1      -8.646   2.639 124.989  0.00  0.00    +0.000 C 
ENDBRANCH   3  20
BRANCH   1  23
ATOM     23  C   UNL     1      -8.946  -2.612 123.383  0.00  0.00    +0.000 C 
ATOM     24  O   UNL     1      -8.376  -2.556 122.299  0.00  0.00    +0.000 OA
BRANCH  23  25
ATOM     25  O   UNL     1     -10.047  -3.372 123.570  0.00  0.00    +0.000 OA
ATOM     26  H   UNL     1     -10.671  -3.420 122.824  0.00  0.00    +0.000 HD
ENDBRANCH  23  25
ENDBRANCH   1  23
TORSDOF 4
ENDMDL
MODEL 8
REMARK VINA RESULT:      -6.2      2.282      3.525
REMARK  Name = Ciprofloxacin
REMARK  4 active torsions:
REMARK  status: ('A' for Active; 'I' for Inactive)
REMARK    1  A    between atoms: O_1  and  C_2
REMARK    2  A    between atoms: C_2  and  C_4
REMARK    3  A    between atoms: N_6  and  C_7
REMARK    4  A    between atoms: C_12  and  N_13
REMARK                            x       y       z     vdW  Elec       q    Type
REMARK                         _______ _______ _______ _____ _____    ______ ____
ROOT
ATOM      1  C   UNL     1      -8.450  -0.168 124.391  0.00  0.00    +0.000 A 
ATOM      2  C   UNL     1      -7.412   0.524 124.890  0.00  0.00    +0.000 A 
ATOM      3  N   UNL     1      -6.613   0.158 125.973  0.00  0.00    +0.000 N 
ATOM      4  C   UNL     1      -6.960  -1.013 126.718  0.00  0.00    +0.000 A 
ATOM      5  C   UNL     1      -6.290  -1.432 127.886  0.00  0.00    +0.000 A 
ATOM      6  C   UNL     1      -6.730  -2.524 128.665  0.00  0.00    +0.000 A 
ATOM      7  C   UNL     1      -7.791  -3.285 128.159  0.00  0.00    +0.000 A 
ATOM      8  F   UNL     1      -8.273  -4.321 128.862  0.00  0.00    +0.000 F 
ATOM      9  C   UNL     1      -8.412  -2.964 126.962  0.00  0.00    +0.000 A 
ATOM     10  C   UNL     1      -8.038  -1.803 126.284  0.00  0.00    +0.000 A 
ATOM     11  C   UNL     1      -8.828  -1.407 125.100  0.00  0.00    +0.000 A 
ATOM     12  O   UNL     1      -9.762  -2.107 124.728  0.00  0.00    +0.000 OA
ENDROOT
BRANCH   6  13
ATOM     13  N   UNL     1      -6.109  -2.811 129.859  0.00  0.00    +0.000 N 
ATOM     14  C   UNL     1      -6.386  -2.073 131.091  0.00  0.00    +0.000 C 
ATOM     15  C   UNL     1      -6.700  -3.116 132.198  0.00  0.00    +0.000 C 
ATOM     16  N   UNL     1      -5.608  -4.099 132.393  0.00  0.00    +0.000 NA
ATOM     17  C   UNL     1      -5.303  -4.760 131.103  0.00  0.00    +0.000 C 
ATOM     18  C   UNL     1      -4.991  -3.754 129.969  0.00  0.00    +0.000 C 
ATOM     19  H   UNL     1      -5.903  -4.801 133.071  0.00  0.00    +0.000 HD
ENDBRANCH   6  13
BRANCH   3  20
ATOM     20  C   UNL     1      -5.478   1.019 126.398  0.00  0.00    +0.000 C 
ATOM     21  C   UNL     1      -5.191   2.389 125.845  0.00  0.00    +0.000 C 
ATOM     22  C   UNL     1      -5.678   2.238 127.260  0.00  0.00    +0.000 C 
ENDBRANCH   3  20
BRANCH   1  23
ATOM     23  C   UNL     1      -9.266   0.311 123.260  0.00  0.00    +0.000 C 
ATOM     24  O   UNL     1      -9.478   1.497 123.035  0.00  0.00    +0.000 OA
BRANCH  23  25
ATOM     25  O   UNL     1      -9.773  -0.664 122.475  0.00  0.00    +0.000 OA
ATOM     26  H   UNL     1     -10.599  -1.079 122.780  0.00  0.00    +0.000 HD
ENDBRANCH  23  25
ENDBRANCH   1  23
TORSDOF 4
ENDMDL
MODEL 9
REMARK VINA RESULT:      -6.2      3.615      5.726
REMARK  Name = Ciprofloxacin
REMARK  4 active torsions:
REMARK  status: ('A' for Active; 'I' for Inactive)
REMARK    1  A    between atoms: O_1  and  C_2
REMARK    2  A    between atoms: C_2  and  C_4
REMARK    3  A    between atoms: N_6  and  C_7
REMARK    4  A    between atoms: C_12  and  N_13
REMARK                            x       y       z     vdW  Elec       q    Type
REMARK                         _______ _______ _______ _____ _____    ______ ____
ROOT
ATOM      1  C   UNL     1      -8.765  -2.208 125.228  0.00  0.00    +0.000 A 
ATOM      2  C   UNL     1      -8.283  -2.259 126.482  0.00  0.00    +0.000 A 
ATOM      3  N   UNL     1      -8.002  -1.171 127.308  0.00  0.00    +0.000 N 
ATOM      4  C   UNL     1      -8.133   0.150 126.773  0.00  0.00    +0.000 A 
ATOM      5  C   UNL     1      -7.787   1.324 127.475  0.00  0.00    +0.000 A 
ATOM      6  C   UNL     1      -7.815   2.603 126.880  0.00  0.00    +0.000 A 
ATOM      7  C   UNL     1      -8.341   2.695 125.585  0.00  0.00    +0.000 A 
ATOM      8  F   UNL     1      -8.373   3.878 124.952  0.00  0.00    +0.000 F 
ATOM      9  C   UNL     1      -8.784   1.576 124.897  0.00  0.00    +0.000 A 
ATOM     10  C   UNL     1      -8.622   0.312 125.466  0.00  0.00    +0.000 A 
ATOM     11  C   UNL     1      -8.956  -0.867 124.640  0.00  0.00    +0.000 A 
ATOM     12  O   UNL     1      -9.387  -0.713 123.503  0.00  0.00    +0.000 OA
ENDROOT
BRANCH   6  13
ATOM     13  N   UNL     1      -7.352   3.696 127.575  0.00  0.00    +0.000 N 
ATOM     14  C   UNL     1      -8.196   4.470 128.485  0.00  0.00    +0.000 C 
ATOM     15  C   UNL     1      -7.437   4.595 129.833  0.00  0.00    +0.000 C 
ATOM     16  N   UNL     1      -6.097   5.211 129.687  0.00  0.00    +0.000 NA
ATOM     17  C   UNL     1      -5.307   4.446 128.694  0.00  0.00    +0.000 C 
ATOM     18  C   UNL     1      -6.033   4.292 127.336  0.00  0.00    +0.000 C 
ATOM     19  H   UNL     1      -5.617   5.193 130.586  0.00  0.00    +0.000 HD
ENDBRANCH   6  13
BRANCH   3  20
ATOM     20  C   UNL     1      -7.491  -1.383 128.687  0.00  0.00    +0.000 C 
ATOM     21  C   UNL     1      -7.553  -2.691 129.429  0.00  0.00    +0.000 C 
ATOM     22  C   UNL     1      -6.227  -2.157 128.961  0.00  0.00    +0.000 C 
ENDBRANCH   3  20
BRANCH   1  23
ATOM     23  C   UNL     1      -9.002  -3.411 124.410  0.00  0.00    +0.000 C 
ATOM     24  O   UNL     1      -8.277  -4.399 124.437  0.00  0.00    +0.000 OA
BRANCH  23  25
ATOM     25  O   UNL     1     -10.091  -3.349 123.614  0.00  0.00    +0.000 OA
ATOM     26  H   UNL     1     -10.876  -2.911 123.989  0.00  0.00    +0.000 HD
ENDBRANCH  23  25
ENDBRANCH   1  23
TORSDOF 4
ENDMDL
