MODEL 1
REMARK VINA RESULT:      -7.5      0.000      0.000
REMARK  Name = Cisapride
REMARK  12 active torsions:
REMARK  status: ('A' for Active; 'I' for Inactive)
REMARK    1  A    between atoms: C_1  and  O_2
REMARK    2  A    between atoms: O_2  and  C_3
REMARK    3  A    between atoms: N_5  and  C_6
REMARK    4  A    between atoms: C_6  and  C_7
REMARK    5  A    between atoms: C_7  and  C_8
REMARK    6  A    between atoms: C_8  and  O_9
REMARK    7  A    between atoms: O_9  and  C_10
REMARK    8  A    between atoms: C_19  and  N_20
REMARK    9  A    between atoms: C_21  and  C_23
REMARK   10  A    between atoms: C_27  and  N_28
REMARK   11  A    between atoms: C_30  and  O_31
REMARK   12  A    between atoms: O_31  and  C_32
REMARK                            x       y       z     vdW  Elec       q    Type
REMARK                         _______ _______ _______ _____ _____    ______ ____
ROOT
ATOM      1  C   UNL     1      -8.952   1.771 130.803  0.00  0.00    +0.000 C 
ATOM      2  C   UNL     1      -9.807   2.813 131.533  0.00  0.00    +0.000 C 
ATOM      3  N   UNL     1      -9.081   4.092 131.546  0.00  0.00    +0.000 NA
ATOM      4  C   UNL     1      -8.901   4.588 130.182  0.00  0.00    +0.000 C 
ATOM      5  C   UNL     1      -8.123   3.606 129.296  0.00  0.00    +0.000 C 
ATOM      6  C   UNL     1      -8.744   2.204 129.315  0.00  0.00    +0.000 C 
ENDROOT
BRANCH   6   7
ATOM      7  N   UNL     1      -7.935   1.269 128.499  0.00  0.00    +0.000 N 
ATOM      8  C   UNL     1      -8.328   0.865 127.247  0.00  0.00    +0.000 C 
ATOM      9  O   UNL     1      -9.261   1.399 126.637  0.00  0.00    +0.000 OA
ATOM     10  H   UNL     1      -7.023   0.977 128.833  0.00  0.00    +0.000 HD
BRANCH   8  11
ATOM     11  C   UNL     1      -7.655  -0.268 126.569  0.00  0.00    +0.000 A 
ATOM     12  C   UNL     1      -8.572  -1.190 126.032  0.00  0.00    +0.000 A 
ATOM     13  C   UNL     1      -8.145  -2.243 125.248  0.00  0.00    +0.000 A 
ATOM     14 CL   UNL     1      -9.341  -3.257 124.525  0.00  0.00    +0.000 Cl
ATOM     15  C   UNL     1      -6.783  -2.433 125.012  0.00  0.00    +0.000 A 
ATOM     16  C   UNL     1      -5.863  -1.590 125.652  0.00  0.00    +0.000 A 
ATOM     17  C   UNL     1      -6.273  -0.508 126.452  0.00  0.00    +0.000 A 
BRANCH  15  18
ATOM     18  N   UNL     1      -6.327  -3.435 124.170  0.00  0.00    +0.000 N 
ATOM     19  H   UNL     1      -5.413  -3.324 123.742  0.00  0.00    +0.000 HD
ATOM     20  H   UNL     1      -6.843  -4.289 124.023  0.00  0.00    +0.000 HD
ENDBRANCH  15  18
BRANCH  17  21
ATOM     21  O   UNL     1      -5.388   0.294 127.132  0.00  0.00    +0.000 OA
ATOM     22  C   UNL     1      -4.813   1.387 126.406  0.00  0.00    +0.000 C 
ENDBRANCH  17  21
ENDBRANCH   8  11
ENDBRANCH   6   7
BRANCH   1  24
ATOM     23  C   UNL     1      -7.263   0.506 132.032  0.00  0.00    +0.000 C 
ATOM     24  O   UNL     1      -7.743   1.749 131.593  0.00  0.00    +0.000 OA
ENDBRANCH   1  24
BRANCH   3  25
ATOM     25  C   UNL     1      -9.699   5.028 132.473  0.00  0.00    +0.000 C 
BRANCH  25  26
ATOM     26  C   UNL     1     -10.092   6.330 131.784  0.00  0.00    +0.000 C 
BRANCH  26  27
ATOM     27  C   UNL     1     -11.600   6.440 131.668  0.00  0.00    +0.000 C 
BRANCH  27  28
ATOM     28  O   UNL     1     -11.887   7.648 130.960  0.00  0.00    +0.000 OA
BRANCH  28  29
ATOM     29  C   UNL     1     -12.092   7.479 129.620  0.00  0.00    +0.000 A 
ATOM     30  C   UNL     1     -13.291   7.016 129.075  0.00  0.00    +0.000 A 
ATOM     31  C   UNL     1     -13.433   6.917 127.691  0.00  0.00    +0.000 A 
ATOM     32  C   UNL     1     -12.384   7.299 126.863  0.00  0.00    +0.000 A 
ATOM     33  F   UNL     1     -12.528   7.209 125.535  0.00  0.00    +0.000 F 
ATOM     34  C   UNL     1     -11.193   7.781 127.395  0.00  0.00    +0.000 A 
ATOM     35  C   UNL     1     -11.049   7.878 128.779  0.00  0.00    +0.000 A 
ENDBRANCH  28  29
ENDBRANCH  27  28
ENDBRANCH  26  27
ENDBRANCH  25  26
ENDBRANCH   3  25
TORSDOF 10
ENDMDL
MODEL 2
REMARK VINA RESULT:      -7.5      6.695      9.568
REMARK  Name = Cisapride
REMARK  12 active torsions:
REMARK  status: ('A' for Active; 'I' for Inactive)
REMARK    1  A    between atoms: C_1  and  O_2
REMARK    2  A    between atoms: O_2  and  C_3
REMARK    3  A    between atoms: N_5  and  C_6
REMARK    4  A    between atoms: C_6  and  C_7
REMARK    5  A    between atoms: C_7  and  C_8
REMARK    6  A    between atoms: C_8  and  O_9
REMARK    7  A    between atoms: O_9  and  C_10
REMARK    8  A    between atoms: C_19  and  N_20
REMARK    9  A    between atoms: C_21  and  C_23
REMARK   10  A    between atoms: C_27  and  N_28
REMARK   11  A    between atoms: C_30  and  O_31
REMARK   12  A    between atoms: O_31  and  C_32
REMARK                            x       y       z     vdW  Elec       q    Type
REMARK                         _______ _______ _______ _____ _____    ______ ____
ROOT
ATOM      1  C   UNL     1      -7.744  -1.315 123.696  0.00  0.00    +0.000 C 
ATOM      2  C   UNL     1      -8.745  -2.286 124.332  0.00  0.00    +0.000 C 
ATOM      3  N   UNL     1      -8.693  -2.127 125.793  0.00  0.00    +0.000 NA
ATOM      4  C   UNL     1      -9.124  -0.783 126.174  0.00  0.00    +0.000 C 
ATOM      5  C   UNL     1      -8.257   0.314 125.542  0.00  0.00    +0.000 C 
ATOM      6  C   UNL     1      -8.156   0.158 124.019  0.00  0.00    +0.000 C 
ENDROOT
BRANCH   6   7
ATOM      7  N   UNL     1      -7.265   1.195 123.451  0.00  0.00    +0.000 N 
ATOM      8  C   UNL     1      -7.751   2.363 122.917  0.00  0.00    +0.000 C 
ATOM      9  O   UNL     1      -8.927   2.719 123.053  0.00  0.00    +0.000 OA
ATOM     10  H   UNL     1      -6.259   1.085 123.528  0.00  0.00    +0.000 HD
BRANCH   8  11
ATOM     11  C   UNL     1      -6.878   3.252 122.114  0.00  0.00    +0.000 A 
ATOM     12  C   UNL     1      -7.305   3.356 120.778  0.00  0.00    +0.000 A 
ATOM     13  C   UNL     1      -6.703   4.240 119.905  0.00  0.00    +0.000 A 
ATOM     14 CL   UNL     1      -7.365   4.397 118.319  0.00  0.00    +0.000 Cl
ATOM     15  C   UNL     1      -5.625   5.019 120.331  0.00  0.00    +0.000 A 
ATOM     16  C   UNL     1      -5.119   4.822 121.624  0.00  0.00    +0.000 A 
ATOM     17  C   UNL     1      -5.718   3.930 122.532  0.00  0.00    +0.000 A 
BRANCH  15  18
ATOM     18  N   UNL     1      -5.047   5.968 119.503  0.00  0.00    +0.000 N 
ATOM     19  H   UNL     1      -5.254   5.930 118.510  0.00  0.00    +0.000 HD
ATOM     20  H   UNL     1      -4.485   6.724 119.864  0.00  0.00    +0.000 HD
ENDBRANCH  15  18
BRANCH  17  21
ATOM     21  O   UNL     1      -5.203   3.683 123.782  0.00  0.00    +0.000 OA
ATOM     22  C   UNL     1      -5.642   4.537 124.846  0.00  0.00    +0.000 C 
ENDBRANCH  17  21
ENDBRANCH   8  11
ENDBRANCH   6   7
BRANCH   1  24
ATOM     23  C   UNL     1      -5.752  -2.726 123.632  0.00  0.00    +0.000 C 
ATOM     24  O   UNL     1      -6.491  -1.728 124.284  0.00  0.00    +0.000 OA
ENDBRANCH   1  24
BRANCH   3  25
ATOM     25  C   UNL     1      -9.392  -3.217 126.457  0.00  0.00    +0.000 C 
BRANCH  25  26
ATOM     26  C   UNL     1      -8.484  -3.961 127.431  0.00  0.00    +0.000 C 
BRANCH  26  27
ATOM     27  C   UNL     1      -8.629  -3.400 128.832  0.00  0.00    +0.000 C 
BRANCH  27  28
ATOM     28  O   UNL     1      -7.364  -2.849 129.205  0.00  0.00    +0.000 OA
BRANCH  28  29
ATOM     29  C   UNL     1      -6.855  -3.348 130.370  0.00  0.00    +0.000 A 
ATOM     30  C   UNL     1      -7.243  -2.904 131.635  0.00  0.00    +0.000 A 
ATOM     31  C   UNL     1      -6.707  -3.501 132.777  0.00  0.00    +0.000 A 
ATOM     32  C   UNL     1      -5.804  -4.549 132.644  0.00  0.00    +0.000 A 
ATOM     33  F   UNL     1      -5.298  -5.124 133.742  0.00  0.00    +0.000 F 
ATOM     34  C   UNL     1      -5.427  -5.013 131.389  0.00  0.00    +0.000 A 
ATOM     35  C   UNL     1      -5.960  -4.415 130.247  0.00  0.00    +0.000 A 
ENDBRANCH  28  29
ENDBRANCH  27  28
ENDBRANCH  26  27
ENDBRANCH  25  26
ENDBRANCH   3  25
TORSDOF 10
ENDMDL
MODEL 3
REMARK VINA RESULT:      -7.5      5.749      8.926
REMARK  Name = Cisapride
REMARK  12 active torsions:
REMARK  status: ('A' for Active; 'I' for Inactive)
REMARK    1  A    between atoms: C_1  and  O_2
REMARK    2  A    between atoms: O_2  and  C_3
REMARK    3  A    between atoms: N_5  and  C_6
REMARK    4  A    between atoms: C_6  and  C_7
REMARK    5  A    between atoms: C_7  and  C_8
REMARK    6  A    between atoms: C_8  and  O_9
REMARK    7  A    between atoms: O_9  and  C_10
REMARK    8  A    between atoms: C_19  and  N_20
REMARK    9  A    between atoms: C_21  and  C_23
REMARK   10  A    between atoms: C_27  and  N_28
REMARK   11  A    between atoms: C_30  and  O_31
REMARK   12  A    between atoms: O_31  and  C_32
REMARK                            x       y       z     vdW  Elec       q    Type
REMARK                         _______ _______ _______ _____ _____    ______ ____
ROOT
ATOM      1  C   UNL     1      -6.931  -0.139 129.282  0.00  0.00    +0.000 C 
ATOM      2  C   UNL     1      -7.583  -1.426 129.801  0.00  0.00    +0.000 C 
ATOM      3  N   UNL     1      -7.345  -2.501 128.826  0.00  0.00    +0.000 NA
ATOM      4  C   UNL     1      -5.914  -2.779 128.715  0.00  0.00    +0.000 C 
ATOM      5  C   UNL     1      -5.108  -1.550 128.277  0.00  0.00    +0.000 C 
ATOM      6  C   UNL     1      -5.384  -0.335 129.172  0.00  0.00    +0.000 C 
ENDROOT
BRANCH   6   7
ATOM      7  N   UNL     1      -4.637   0.847 128.685  0.00  0.00    +0.000 N 
ATOM      8  C   UNL     1      -4.233   1.853 129.528  0.00  0.00    +0.000 C 
ATOM      9  O   UNL     1      -4.281   1.751 130.759  0.00  0.00    +0.000 OA
ATOM     10  H   UNL     1      -4.340   0.884 127.717  0.00  0.00    +0.000 HD
BRANCH   8  11
ATOM     11  C   UNL     1      -3.738   3.142 128.989  0.00  0.00    +0.000 A 
ATOM     12  C   UNL     1      -3.484   4.083 130.002  0.00  0.00    +0.000 A 
ATOM     13  C   UNL     1      -2.893   5.297 129.715  0.00  0.00    +0.000 A 
ATOM     14 CL   UNL     1      -2.502   6.345 131.030  0.00  0.00    +0.000 Cl
ATOM     15  C   UNL     1      -2.574   5.625 128.396  0.00  0.00    +0.000 A 
ATOM     16  C   UNL     1      -2.943   4.740 127.372  0.00  0.00    +0.000 A 
ATOM     17  C   UNL     1      -3.543   3.496 127.641  0.00  0.00    +0.000 A 
BRANCH  15  18
ATOM     18  N   UNL     1      -1.911   6.801 128.082  0.00  0.00    +0.000 N 
ATOM     19  H   UNL     1      -1.966   7.573 128.739  0.00  0.00    +0.000 HD
ATOM     20  H   UNL     1      -1.332   6.889 127.262  0.00  0.00    +0.000 HD
ENDBRANCH  15  18
BRANCH  17  21
ATOM     21  O   UNL     1      -3.963   2.642 126.649  0.00  0.00    +0.000 OA
ATOM     22  C   UNL     1      -5.130   3.027 125.913  0.00  0.00    +0.000 C 
ENDBRANCH  17  21
ENDBRANCH   8  11
ENDBRANCH   6   7
BRANCH   1  24
ATOM     23  C   UNL     1      -8.272   1.275 127.810  0.00  0.00    +0.000 C 
ATOM     24  O   UNL     1      -7.599   0.061 128.017  0.00  0.00    +0.000 OA
ENDBRANCH   1  24
BRANCH   3  25
ATOM     25  C   UNL     1      -8.184  -3.655 129.114  0.00  0.00    +0.000 C 
BRANCH  25  26
ATOM     26  C   UNL     1      -9.055  -4.032 127.919  0.00  0.00    +0.000 C 
BRANCH  26  27
ATOM     27  C   UNL     1      -8.923  -3.002 126.814  0.00  0.00    +0.000 C 
BRANCH  27  28
ATOM     28  O   UNL     1      -9.013  -3.699 125.569  0.00  0.00    +0.000 OA
BRANCH  28  29
ATOM     29  C   UNL     1      -8.222  -3.186 124.580  0.00  0.00    +0.000 A 
ATOM     30  C   UNL     1      -8.725  -2.570 123.432  0.00  0.00    +0.000 A 
ATOM     31  C   UNL     1      -7.846  -2.030 122.492  0.00  0.00    +0.000 A 
ATOM     32  C   UNL     1      -6.477  -2.093 122.716  0.00  0.00    +0.000 A 
ATOM     33  F   UNL     1      -5.638  -1.567 121.814  0.00  0.00    +0.000 F 
ATOM     34  C   UNL     1      -5.966  -2.685 123.865  0.00  0.00    +0.000 A 
ATOM     35  C   UNL     1      -6.844  -3.228 124.805  0.00  0.00    +0.000 A 
ENDBRANCH  28  29
ENDBRANCH  27  28
ENDBRANCH  26  27
ENDBRANCH  25  26
ENDBRANCH   3  25
TORSDOF 10
ENDMDL
MODEL 4
REMARK VINA RESULT:      -7.4      1.452      1.908
REMARK  Name = Cisapride
REMARK  12 active torsions:
REMARK  status: ('A' for Active; 'I' for Inactive)
REMARK    1  A    between atoms: C_1  and  O_2
REMARK    2  A    between atoms: O_2  and  C_3
REMARK    3  A    between atoms: N_5  and  C_6
REMARK    4  A    between atoms: C_6  and  C_7
REMARK    5  A    between atoms: C_7  and  C_8
REMARK    6  A    between atoms: C_8  and  O_9
REMARK    7  A    between atoms: O_9  and  C_10
REMARK    8  A    between atoms: C_19  and  N_20
REMARK    9  A    between atoms: C_21  and  C_23
REMARK   10  A    between atoms: C_27  and  N_28
REMARK   11  A    between atoms: C_30  and  O_31
REMARK   12  A    between atoms: O_31  and  C_32
REMARK                            x       y       z     vdW  Elec       q    Type
REMARK                         _______ _______ _______ _____ _____    ______ ____
ROOT
ATOM      1  C   UNL     1      -9.194   2.262 130.411  0.00  0.00    +0.000 C 
ATOM      2  C   UNL     1      -9.466   3.644 131.016  0.00  0.00    +0.000 C 
ATOM      3  N   UNL     1      -8.182   4.259 131.383  0.00  0.00    +0.000 NA
ATOM      4  C   UNL     1      -7.367   4.485 130.190  0.00  0.00    +0.000 C 
ATOM      5  C   UNL     1      -7.074   3.188 129.423  0.00  0.00    +0.000 C 
ATOM      6  C   UNL     1      -8.358   2.413 129.098  0.00  0.00    +0.000 C 
ENDROOT
BRANCH   6   7
ATOM      7  N   UNL     1      -8.034   1.141 128.413  0.00  0.00    +0.000 N 
ATOM      8  C   UNL     1      -8.525   0.837 127.167  0.00  0.00    +0.000 C 
ATOM      9  O   UNL     1      -9.093   1.672 126.454  0.00  0.00    +0.000 OA
ATOM     10  H   UNL     1      -7.366   0.504 128.834  0.00  0.00    +0.000 HD
BRANCH   8  11
ATOM     11  C   UNL     1      -8.418  -0.537 126.623  0.00  0.00    +0.000 A 
ATOM     12  C   UNL     1      -8.776  -0.604 125.265  0.00  0.00    +0.000 A 
ATOM     13  C   UNL     1      -8.615  -1.769 124.543  0.00  0.00    +0.000 A 
ATOM     14 CL   UNL     1      -8.960  -1.734 122.851  0.00  0.00    +0.000 Cl
ATOM     15  C   UNL     1      -8.130  -2.919 125.168  0.00  0.00    +0.000 A 
ATOM     16  C   UNL     1      -7.895  -2.886 126.551  0.00  0.00    +0.000 A 
ATOM     17  C   UNL     1      -8.048  -1.710 127.307  0.00  0.00    +0.000 A 
BRANCH  15  18
ATOM     18  N   UNL     1      -7.886  -4.082 124.456  0.00  0.00    +0.000 N 
ATOM     19  H   UNL     1      -8.314  -4.185 123.542  0.00  0.00    +0.000 HD
ATOM     20  H   UNL     1      -7.253  -4.793 124.789  0.00  0.00    +0.000 HD
ENDBRANCH  15  18
BRANCH  17  21
ATOM     21  O   UNL     1      -7.877  -1.673 128.670  0.00  0.00    +0.000 OA
ATOM     22  C   UNL     1      -7.998  -2.917 129.372  0.00  0.00    +0.000 C 
ENDBRANCH  17  21
ENDBRANCH   8  11
ENDBRANCH   6   7
BRANCH   1  24
ATOM     23  C   UNL     1      -8.880   0.261 131.776  0.00  0.00    +0.000 C 
ATOM     24  O   UNL     1      -8.505   1.582 131.483  0.00  0.00    +0.000 OA
ENDBRANCH   1  24
BRANCH   3  25
ATOM     25  C   UNL     1      -8.390   5.427 132.226  0.00  0.00    +0.000 C 
BRANCH  25  26
ATOM     26  C   UNL     1      -9.786   6.013 132.044  0.00  0.00    +0.000 C 
BRANCH  26  27
ATOM     27  C   UNL     1      -9.808   6.994 130.887  0.00  0.00    +0.000 C 
BRANCH  27  28
ATOM     28  O   UNL     1     -11.177   7.303 130.616  0.00  0.00    +0.000 OA
BRANCH  28  29
ATOM     29  C   UNL     1     -11.492   7.339 129.287  0.00  0.00    +0.000 A 
ATOM     30  C   UNL     1     -10.574   7.663 128.285  0.00  0.00    +0.000 A 
ATOM     31  C   UNL     1     -10.967   7.631 126.947  0.00  0.00    +0.000 A 
ATOM     32  C   UNL     1     -12.264   7.258 126.620  0.00  0.00    +0.000 A 
ATOM     33  F   UNL     1     -12.634   7.222 125.333  0.00  0.00    +0.000 F 
ATOM     34  C   UNL     1     -13.180   6.913 127.607  0.00  0.00    +0.000 A 
ATOM     35  C   UNL     1     -12.789   6.948 128.947  0.00  0.00    +0.000 A 
ENDBRANCH  28  29
ENDBRANCH  27  28
ENDBRANCH  26  27
ENDBRANCH  25  26
ENDBRANCH   3  25
TORSDOF 10
ENDMDL
MODEL 5
REMARK VINA RESULT:      -7.4      6.326      8.024
REMARK  Name = Cisapride
REMARK  12 active torsions:
REMARK  status: ('A' for Active; 'I' for Inactive)
REMARK    1  A    between atoms: C_1  and  O_2
REMARK    2  A    between atoms: O_2  and  C_3
REMARK    3  A    between atoms: N_5  and  C_6
REMARK    4  A    between atoms: C_6  and  C_7
REMARK    5  A    between atoms: C_7  and  C_8
REMARK    6  A    between atoms: C_8  and  O_9
REMARK    7  A    between atoms: O_9  and  C_10
REMARK    8  A    between atoms: C_19  and  N_20
REMARK    9  A    between atoms: C_21  and  C_23
REMARK   10  A    between atoms: C_27  and  N_28
REMARK   11  A    between atoms: C_30  and  O_31
REMARK   12  A    between atoms: O_31  and  C_32
REMARK                            x       y       z     vdW  Elec       q    Type
REMARK                         _______ _______ _______ _____ _____    ______ ____
ROOT
ATOM      1  C   UNL     1      -7.675  -1.105 127.253  0.00  0.00    +0.000 C 
ATOM      2  C   UNL     1      -8.414  -0.436 126.089  0.00  0.00    +0.000 C 
ATOM      3  N   UNL     1      -8.323  -1.308 124.909  0.00  0.00    +0.000 NA
ATOM      4  C   UNL     1      -9.008  -2.576 125.159  0.00  0.00    +0.000 C 
ATOM      5  C   UNL     1      -8.426  -3.333 126.359  0.00  0.00    +0.000 C 
ATOM      6  C   UNL     1      -8.372  -2.456 127.617  0.00  0.00    +0.000 C 
ENDROOT
BRANCH   6   7
ATOM      7  N   UNL     1      -7.750  -3.198 128.738  0.00  0.00    +0.000 N 
ATOM      8  C   UNL     1      -7.662  -2.671 130.003  0.00  0.00    +0.000 C 
ATOM      9  O   UNL     1      -8.265  -1.646 130.341  0.00  0.00    +0.000 OA
ATOM     10  H   UNL     1      -7.450  -4.157 128.596  0.00  0.00    +0.000 HD
BRANCH   8  11
ATOM     11  C   UNL     1      -6.802  -3.304 131.031  0.00  0.00    +0.000 A 
ATOM     12  C   UNL     1      -7.306  -3.128 132.332  0.00  0.00    +0.000 A 
ATOM     13  C   UNL     1      -6.721  -3.756 133.413  0.00  0.00    +0.000 A 
ATOM     14 CL   UNL     1      -7.474  -3.589 134.958  0.00  0.00    +0.000 Cl
ATOM     15  C   UNL     1      -5.585  -4.546 133.232  0.00  0.00    +0.000 A 
ATOM     16  C   UNL     1      -5.008  -4.617 131.956  0.00  0.00    +0.000 A 
ATOM     17  C   UNL     1      -5.588  -3.989 130.838  0.00  0.00    +0.000 A 
BRANCH  15  18
ATOM     18  N   UNL     1      -5.018  -5.249 134.283  0.00  0.00    +0.000 N 
ATOM     19  H   UNL     1      -4.592  -4.723 135.040  0.00  0.00    +0.000 HD
ATOM     20  H   UNL     1      -5.072  -6.254 134.348  0.00  0.00    +0.000 HD
ENDBRANCH  15  18
BRANCH  17  21
ATOM     21  O   UNL     1      -5.007  -4.001 129.593  0.00  0.00    +0.000 OA
ATOM     22  C   UNL     1      -3.641  -3.575 129.511  0.00  0.00    +0.000 C 
ENDBRANCH  17  21
ENDBRANCH   8  11
ENDBRANCH   6   7
BRANCH   1  24
ATOM     23  C   UNL     1      -5.263  -0.868 127.556  0.00  0.00    +0.000 C 
ATOM     24  O   UNL     1      -6.335  -1.246 126.732  0.00  0.00    +0.000 OA
ENDBRANCH   1  24
BRANCH   3  25
ATOM     25  C   UNL     1      -8.741  -0.600 123.708  0.00  0.00    +0.000 C 
BRANCH  25  26
ATOM     26  C   UNL     1      -8.904   0.895 123.962  0.00  0.00    +0.000 C 
BRANCH  26  27
ATOM     27  C   UNL     1      -9.438   1.593 122.726  0.00  0.00    +0.000 C 
BRANCH  27  28
ATOM     28  O   UNL     1      -9.060   2.969 122.816  0.00  0.00    +0.000 OA
BRANCH  28  29
ATOM     29  C   UNL     1      -8.236   3.393 121.812  0.00  0.00    +0.000 A 
ATOM     30  C   UNL     1      -8.695   3.815 120.563  0.00  0.00    +0.000 A 
ATOM     31  C   UNL     1      -7.788   4.277 119.609  0.00  0.00    +0.000 A 
ATOM     32  C   UNL     1      -6.435   4.332 119.918  0.00  0.00    +0.000 A 
ATOM     33  F   UNL     1      -5.569   4.784 119.002  0.00  0.00    +0.000 F 
ATOM     34  C   UNL     1      -5.969   3.935 121.166  0.00  0.00    +0.000 A 
ATOM     35  C   UNL     1      -6.875   3.469 122.120  0.00  0.00    +0.000 A 
ENDBRANCH  28  29
ENDBRANCH  27  28
ENDBRANCH  26  27
ENDBRANCH  25  26
ENDBRANCH   3  25
TORSDOF 10
ENDMDL
MODEL 6
REMARK VINA RESULT:      -7.4      6.878      9.889
REMARK  Name = Cisapride
REMARK  12 active torsions:
REMARK  status: ('A' for Active; 'I' for Inactive)
REMARK    1  A    between atoms: C_1  and  O_2
REMARK    2  A    between atoms: O_2  and  C_3
REMARK    3  A    between atoms: N_5  and  C_6
REMARK    4  A    between atoms: C_6  and  C_7
REMARK    5  A    between atoms: C_7  and  C_8
REMARK    6  A    between atoms: C_8  and  O_9
REMARK    7  A    between atoms: O_9  and  C_10
REMARK    8  A    between atoms: C_19  and  N_20
REMARK    9  A    between atoms: C_21  and  C_23
REMARK   10  A    between atoms: C_27  and  N_28
REMARK   11  A    between atoms: C_30  and  O_31
REMARK   12  A    between atoms: O_31  and  C_32
REMARK                            x       y       z     vdW  Elec       q    Type
REMARK                         _______ _______ _______ _____ _____    ______ ____
ROOT
ATOM      1  C   UNL     1      -8.227  -1.247 123.269  0.00  0.00    +0.000 C 
ATOM      2  C   UNL     1      -9.101  -2.156 124.141  0.00  0.00    +0.000 C 
ATOM      3  N   UNL     1      -8.692  -1.995 125.545  0.00  0.00    +0.000 NA
ATOM      4  C   UNL     1      -8.944  -0.626 125.994  0.00  0.00    +0.000 C 
ATOM      5  C   UNL     1      -8.193   0.416 125.156  0.00  0.00    +0.000 C 
ATOM      6  C   UNL     1      -8.467   0.249 123.656  0.00  0.00    +0.000 C 
ENDROOT
BRANCH   6   7
ATOM      7  N   UNL     1      -7.681   1.231 122.874  0.00  0.00    +0.000 N 
ATOM      8  C   UNL     1      -8.110   2.521 122.678  0.00  0.00    +0.000 C 
ATOM      9  O   UNL     1      -9.063   3.006 123.298  0.00  0.00    +0.000 OA
ATOM     10  H   UNL     1      -6.759   0.976 122.538  0.00  0.00    +0.000 HD
BRANCH   8  11
ATOM     11  C   UNL     1      -7.455   3.395 121.677  0.00  0.00    +0.000 A 
ATOM     12  C   UNL     1      -6.170   3.800 122.080  0.00  0.00    +0.000 A 
ATOM     13  C   UNL     1      -5.347   4.508 121.228  0.00  0.00    +0.000 A 
ATOM     14 CL   UNL     1      -3.740   4.860 121.752  0.00  0.00    +0.000 Cl
ATOM     15  C   UNL     1      -5.800   4.870 119.958  0.00  0.00    +0.000 A 
ATOM     16  C   UNL     1      -7.125   4.577 119.605  0.00  0.00    +0.000 A 
ATOM     17  C   UNL     1      -7.982   3.853 120.455  0.00  0.00    +0.000 A 
BRANCH  15  18
ATOM     18  N   UNL     1      -4.973   5.514 119.051  0.00  0.00    +0.000 N 
ATOM     19  H   UNL     1      -5.315   5.656 118.106  0.00  0.00    +0.000 HD
ATOM     20  H   UNL     1      -4.079   5.897 119.318  0.00  0.00    +0.000 HD
ENDBRANCH  15  18
BRANCH  17  21
ATOM     21  O   UNL     1      -9.299   3.606 120.150  0.00  0.00    +0.000 OA
ATOM     22  C   UNL     1      -9.838   4.283 119.008  0.00  0.00    +0.000 C 
ENDBRANCH  17  21
ENDBRANCH   8  11
ENDBRANCH   6   7
BRANCH   1  24
ATOM     23  C   UNL     1      -6.098  -2.134 122.468  0.00  0.00    +0.000 C 
ATOM     24  O   UNL     1      -6.895  -1.729 123.550  0.00  0.00    +0.000 OA
ENDBRANCH   1  24
BRANCH   3  25
ATOM     25  C   UNL     1      -9.272  -3.040 126.375  0.00  0.00    +0.000 C 
BRANCH  25  26
ATOM     26  C   UNL     1      -8.236  -3.667 127.302  0.00  0.00    +0.000 C 
BRANCH  26  27
ATOM     27  C   UNL     1      -8.598  -3.420 128.754  0.00  0.00    +0.000 C 
BRANCH  27  28
ATOM     28  O   UNL     1      -7.532  -2.670 129.339  0.00  0.00    +0.000 OA
BRANCH  28  29
ATOM     29  C   UNL     1      -6.966  -3.257 130.435  0.00  0.00    +0.000 A 
ATOM     30  C   UNL     1      -7.292  -2.914 131.749  0.00  0.00    +0.000 A 
ATOM     31  C   UNL     1      -6.702  -3.596 132.812  0.00  0.00    +0.000 A 
ATOM     32  C   UNL     1      -5.807  -4.628 132.555  0.00  0.00    +0.000 A 
ATOM     33  F   UNL     1      -5.249  -5.285 133.579  0.00  0.00    +0.000 F 
ATOM     34  C   UNL     1      -5.492  -4.992 131.251  0.00  0.00    +0.000 A 
ATOM     35  C   UNL     1      -6.079  -4.308 130.186  0.00  0.00    +0.000 A 
ENDBRANCH  28  29
ENDBRANCH  27  28
ENDBRANCH  26  27
ENDBRANCH  25  26
ENDBRANCH   3  25
TORSDOF 10
ENDMDL
MODEL 7
REMARK VINA RESULT:      -7.3      5.704      9.211
REMARK  Name = Cisapride
REMARK  12 active torsions:
REMARK  status: ('A' for Active; 'I' for Inactive)
REMARK    1  A    between atoms: C_1  and  O_2
REMARK    2  A    between atoms: O_2  and  C_3
REMARK    3  A    between atoms: N_5  and  C_6
REMARK    4  A    between atoms: C_6  and  C_7
REMARK    5  A    between atoms: C_7  and  C_8
REMARK    6  A    between atoms: C_8  and  O_9
REMARK    7  A    between atoms: O_9  and  C_10
REMARK    8  A    between atoms: C_19  and  N_20
REMARK    9  A    between atoms: C_21  and  C_23
REMARK   10  A    between atoms: C_27  and  N_28
REMARK   11  A    between atoms: C_30  and  O_31
REMARK   12  A    between atoms: O_31  and  C_32
REMARK                            x       y       z     vdW  Elec       q    Type
REMARK                         _______ _______ _______ _____ _____    ______ ____
ROOT
ATOM      1  C   UNL     1      -5.708   2.672 125.621  0.00  0.00    +0.000 C 
ATOM      2  C   UNL     1      -6.310   2.878 124.226  0.00  0.00    +0.000 C 
ATOM      3  N   UNL     1      -7.776   2.856 124.337  0.00  0.00    +0.000 NA
ATOM      4  C   UNL     1      -8.241   3.975 125.155  0.00  0.00    +0.000 C 
ATOM      5  C   UNL     1      -7.653   3.952 126.573  0.00  0.00    +0.000 C 
ATOM      6  C   UNL     1      -6.122   3.855 126.556  0.00  0.00    +0.000 C 
ENDROOT
BRANCH   6   7
ATOM      7  N   UNL     1      -5.595   3.773 127.937  0.00  0.00    +0.000 N 
ATOM      8  C   UNL     1      -4.715   4.701 128.439  0.00  0.00    +0.000 C 
ATOM      9  O   UNL     1      -4.463   5.762 127.858  0.00  0.00    +0.000 OA
ATOM     10  H   UNL     1      -5.950   3.061 128.566  0.00  0.00    +0.000 HD
BRANCH   8  11
ATOM     11  C   UNL     1      -3.993   4.454 129.709  0.00  0.00    +0.000 A 
ATOM     12  C   UNL     1      -2.979   5.401 129.942  0.00  0.00    +0.000 A 
ATOM     13  C   UNL     1      -2.284   5.420 131.134  0.00  0.00    +0.000 A 
ATOM     14 CL   UNL     1      -1.142   6.690 131.390  0.00  0.00    +0.000 Cl
ATOM     15  C   UNL     1      -2.551   4.465 132.116  0.00  0.00    +0.000 A 
ATOM     16  C   UNL     1      -3.471   3.445 131.833  0.00  0.00    +0.000 A 
ATOM     17  C   UNL     1      -4.195   3.406 130.627  0.00  0.00    +0.000 A 
BRANCH  15  18
ATOM     18  N   UNL     1      -1.924   4.503 133.351  0.00  0.00    +0.000 N 
ATOM     19  H   UNL     1      -2.063   5.322 133.936  0.00  0.00    +0.000 HD
ATOM     20  H   UNL     1      -1.393   3.724 133.708  0.00  0.00    +0.000 HD
ENDBRANCH  15  18
BRANCH  17  21
ATOM     21  O   UNL     1      -5.057   2.384 130.309  0.00  0.00    +0.000 OA
ATOM     22  C   UNL     1      -4.473   1.107 130.026  0.00  0.00    +0.000 C 
ENDBRANCH  17  21
ENDBRANCH   8  11
ENDBRANCH   6   7
BRANCH   1  24
ATOM     23  C   UNL     1      -5.349   0.327 126.198  0.00  0.00    +0.000 C 
ATOM     24  O   UNL     1      -6.246   1.389 126.007  0.00  0.00    +0.000 OA
ENDBRANCH   1  24
BRANCH   3  25
ATOM     25  C   UNL     1      -8.392   2.746 123.024  0.00  0.00    +0.000 C 
BRANCH  25  26
ATOM     26  C   UNL     1      -9.508   1.707 123.008  0.00  0.00    +0.000 C 
BRANCH  26  27
ATOM     27  C   UNL     1      -9.265   0.644 124.063  0.00  0.00    +0.000 C 
BRANCH  27  28
ATOM     28  O   UNL     1      -9.475  -0.627 123.444  0.00  0.00    +0.000 OA
BRANCH  28  29
ATOM     29  C   UNL     1      -8.483  -1.537 123.680  0.00  0.00    +0.000 A 
ATOM     30  C   UNL     1      -8.709  -2.796 124.241  0.00  0.00    +0.000 A 
ATOM     31  C   UNL     1      -7.645  -3.684 124.404  0.00  0.00    +0.000 A 
ATOM     32  C   UNL     1      -6.372  -3.316 123.988  0.00  0.00    +0.000 A 
ATOM     33  F   UNL     1      -5.356  -4.175 124.140  0.00  0.00    +0.000 F 
ATOM     34  C   UNL     1      -6.141  -2.074 123.408  0.00  0.00    +0.000 A 
ATOM     35  C   UNL     1      -7.203  -1.183 123.247  0.00  0.00    +0.000 A 
ENDBRANCH  28  29
ENDBRANCH  27  28
ENDBRANCH  26  27
ENDBRANCH  25  26
ENDBRANCH   3  25
TORSDOF 10
ENDMDL
MODEL 8
REMARK VINA RESULT:      -7.3      5.754      8.465
REMARK  Name = Cisapride
REMARK  12 active torsions:
REMARK  status: ('A' for Active; 'I' for Inactive)
REMARK    1  A    between atoms: C_1  and  O_2
REMARK    2  A    between atoms: O_2  and  C_3
REMARK    3  A    between atoms: N_5  and  C_6
REMARK    4  A    between atoms: C_6  and  C_7
REMARK    5  A    between atoms: C_7  and  C_8
REMARK    6  A    between atoms: C_8  and  O_9
REMARK    7  A    between atoms: O_9  and  C_10
REMARK    8  A    between atoms: C_19  and  N_20
REMARK    9  A    between atoms: C_21  and  C_23
REMARK   10  A    between atoms: C_27  and  N_28
REMARK   11  A    between atoms: C_30  and  O_31
REMARK   12  A    between atoms: O_31  and  C_32
REMARK                            x       y       z     vdW  Elec       q    Type
REMARK                         _______ _______ _______ _____ _____    ______ ____
ROOT
ATOM      1  C   UNL     1      -7.858  -1.283 123.615  0.00  0.00    +0.000 C 
ATOM      2  C   UNL     1      -8.869  -2.236 124.265  0.00  0.00    +0.000 C 
ATOM      3  N   UNL     1      -8.749  -2.124 125.726  0.00  0.00    +0.000 NA
ATOM      4  C   UNL     1      -9.112  -0.777 126.165  0.00  0.00    +0.000 C 
ATOM      5  C   UNL     1      -8.231   0.306 125.529  0.00  0.00    +0.000 C 
ATOM      6  C   UNL     1      -8.200   0.194 123.999  0.00  0.00    +0.000 C 
ENDROOT
BRANCH   6   7
ATOM      7  N   UNL     1      -7.294   1.215 123.424  0.00  0.00    +0.000 N 
ATOM      8  C   UNL     1      -7.760   2.405 122.923  0.00  0.00    +0.000 C 
ATOM      9  O   UNL     1      -8.921   2.792 123.097  0.00  0.00    +0.000 OA
ATOM     10  H   UNL     1      -6.291   1.074 123.471  0.00  0.00    +0.000 HD
BRANCH   8  11
ATOM     11  C   UNL     1      -6.884   3.282 122.111  0.00  0.00    +0.000 A 
ATOM     12  C   UNL     1      -7.313   3.380 120.776  0.00  0.00    +0.000 A 
ATOM     13  C   UNL     1      -6.708   4.253 119.895  0.00  0.00    +0.000 A 
ATOM     14 CL   UNL     1      -7.374   4.404 118.309  0.00  0.00    +0.000 Cl
ATOM     15  C   UNL     1      -5.623   5.027 120.312  0.00  0.00    +0.000 A 
ATOM     16  C   UNL     1      -5.115   4.836 121.605  0.00  0.00    +0.000 A 
ATOM     17  C   UNL     1      -5.718   3.955 122.521  0.00  0.00    +0.000 A 
BRANCH  15  18
ATOM     18  N   UNL     1      -5.042   5.967 119.476  0.00  0.00    +0.000 N 
ATOM     19  H   UNL     1      -4.977   6.926 119.802  0.00  0.00    +0.000 HD
ATOM     20  H   UNL     1      -4.628   5.716 118.591  0.00  0.00    +0.000 HD
ENDBRANCH  15  18
BRANCH  17  21
ATOM     21  O   UNL     1      -5.201   3.713 123.771  0.00  0.00    +0.000 OA
ATOM     22  C   UNL     1      -5.654   4.558 124.836  0.00  0.00    +0.000 C 
ENDBRANCH  17  21
ENDBRANCH   8  11
ENDBRANCH   6   7
BRANCH   1  24
ATOM     23  C   UNL     1      -5.752  -2.470 123.273  0.00  0.00    +0.000 C 
ATOM     24  O   UNL     1      -6.599  -1.759 124.137  0.00  0.00    +0.000 OA
ENDBRANCH   1  24
BRANCH   3  25
ATOM     25  C   UNL     1      -9.461  -3.208 126.387  0.00  0.00    +0.000 C 
BRANCH  25  26
ATOM     26  C   UNL     1      -8.550  -3.994 127.324  0.00  0.00    +0.000 C 
BRANCH  26  27
ATOM     27  C   UNL     1      -8.662  -3.470 128.743  0.00  0.00    +0.000 C 
BRANCH  27  28
ATOM     28  O   UNL     1      -7.335  -3.214 129.210  0.00  0.00    +0.000 OA
BRANCH  28  29
ATOM     29  C   UNL     1      -6.907  -1.932 129.011  0.00  0.00    +0.000 A 
ATOM     30  C   UNL     1      -5.806  -1.600 128.220  0.00  0.00    +0.000 A 
ATOM     31  C   UNL     1      -5.464  -0.260 128.031  0.00  0.00    +0.000 A 
ATOM     32  C   UNL     1      -6.235   0.735 128.619  0.00  0.00    +0.000 A 
ATOM     33  F   UNL     1      -5.907   2.019 128.429  0.00  0.00    +0.000 F 
ATOM     34  C   UNL     1      -7.346   0.416 129.392  0.00  0.00    +0.000 A 
ATOM     35  C   UNL     1      -7.687  -0.923 129.583  0.00  0.00    +0.000 A 
ENDBRANCH  28  29
ENDBRANCH  27  28
ENDBRANCH  26  27
ENDBRANCH  25  26
ENDBRANCH   3  25
TORSDOF 10
ENDMDL
MODEL 9
REMARK VINA RESULT:      -7.2      2.500      3.279
REMARK  Name = Cisapride
REMARK  12 active torsions:
REMARK  status: ('A' for Active; 'I' for Inactive)
REMARK    1  A    between atoms: C_1  and  O_2
REMARK    2  A    between atoms: O_2  and  C_3
REMARK    3  A    between atoms: N_5  and  C_6
REMARK    4  A    between atoms: C_6  and  C_7
REMARK    5  A    between atoms: C_7  and  C_8
REMARK    6  A    between atoms: C_8  and  O_9
REMARK    7  A    between atoms: O_9  and  C_10
REMARK    8  A    between atoms: C_19  and  N_20
REMARK    9  A    between atoms: C_21  and  C_23
REMARK   10  A    between atoms: C_27  and  N_28
REMARK   11  A    between atoms: C_30  and  O_31
REMARK   12  A    between atoms: O_31  and  C_32
REMARK                            x       y       z     vdW  Elec       q    Type
REMARK                         _______ _______ _______ _____ _____    ______ ____
ROOT
ATOM      1  C   UNL     1      -7.363   2.168 129.560  0.00  0.00    +0.000 C 
ATOM      2  C   UNL     1      -7.272   3.369 130.509  0.00  0.00    +0.000 C 
ATOM      3  N   UNL     1      -5.915   3.931 130.429  0.00  0.00    +0.000 NA
ATOM      4  C   UNL     1      -5.657   4.446 129.085  0.00  0.00    +0.000 C 
ATOM      5  C   UNL     1      -5.791   3.365 128.004  0.00  0.00    +0.000 C 
ATOM      6  C   UNL     1      -7.140   2.639 128.086  0.00  0.00    +0.000 C 
ENDROOT
BRANCH   6   7
ATOM      7  N   UNL     1      -7.211   1.564 127.070  0.00  0.00    +0.000 N 
ATOM      8  C   UNL     1      -8.232   1.492 126.154  0.00  0.00    +0.000 C 
ATOM      9  O   UNL     1      -9.038   2.412 125.981  0.00  0.00    +0.000 OA
ATOM     10  H   UNL     1      -6.445   0.905 126.987  0.00  0.00    +0.000 HD
BRANCH   8  11
ATOM     11  C   UNL     1      -8.432   0.272 125.336  0.00  0.00    +0.000 A 
ATOM     12  C   UNL     1      -8.589  -0.881 126.125  0.00  0.00    +0.000 A 
ATOM     13  C   UNL     1      -8.919  -2.094 125.555  0.00  0.00    +0.000 A 
ATOM     14 CL   UNL     1      -9.216  -3.433 126.603  0.00  0.00    +0.000 Cl
ATOM     15  C   UNL     1      -9.061  -2.201 124.171  0.00  0.00    +0.000 A 
ATOM     16  C   UNL     1      -8.779  -1.081 123.375  0.00  0.00    +0.000 A 
ATOM     17  C   UNL     1      -8.445   0.166 123.933  0.00  0.00    +0.000 A 
BRANCH  15  18
ATOM     18  N   UNL     1      -9.465  -3.385 123.574  0.00  0.00    +0.000 N 
ATOM     19  H   UNL     1     -10.386  -3.419 123.149  0.00  0.00    +0.000 HD
ATOM     20  H   UNL     1      -8.853  -4.183 123.495  0.00  0.00    +0.000 HD
ENDBRANCH  15  18
BRANCH  17  21
ATOM     21  O   UNL     1      -8.111   1.258 123.168  0.00  0.00    +0.000 OA
ATOM     22  C   UNL     1      -9.192   2.023 122.621  0.00  0.00    +0.000 C 
ENDBRANCH  17  21
ENDBRANCH   8  11
ENDBRANCH   6   7
BRANCH   1  24
ATOM     23  C   UNL     1      -6.735   0.126 130.745  0.00  0.00    +0.000 C 
ATOM     24  O   UNL     1      -6.335   1.290 130.069  0.00  0.00    +0.000 OA
ENDBRANCH   1  24
BRANCH   3  25
ATOM     25  C   UNL     1      -5.681   4.872 131.513  0.00  0.00    +0.000 C 
BRANCH  25  26
ATOM     26  C   UNL     1      -5.868   6.316 131.059  0.00  0.00    +0.000 C 
BRANCH  26  27
ATOM     27  C   UNL     1      -7.253   6.816 131.423  0.00  0.00    +0.000 C 
BRANCH  27  28
ATOM     28  O   UNL     1      -8.015   6.880 130.216  0.00  0.00    +0.000 OA
BRANCH  28  29
ATOM     29  C   UNL     1      -9.362   7.011 130.407  0.00  0.00    +0.000 A 
ATOM     30  C   UNL     1     -10.207   7.673 129.514  0.00  0.00    +0.000 A 
ATOM     31  C   UNL     1     -11.579   7.720 129.762  0.00  0.00    +0.000 A 
ATOM     32  C   UNL     1     -12.096   7.091 130.888  0.00  0.00    +0.000 A 
ATOM     33  F   UNL     1     -13.415   7.133 131.117  0.00  0.00    +0.000 F 
ATOM     34  C   UNL     1     -11.266   6.411 131.772  0.00  0.00    +0.000 A 
ATOM     35  C   UNL     1      -9.893   6.366 131.527  0.00  0.00    +0.000 A 
ENDBRANCH  28  29
ENDBRANCH  27  28
ENDBRANCH  26  27
ENDBRANCH  25  26
ENDBRANCH   3  25
TORSDOF 10
ENDMDL
