MODEL 1
REMARK VINA RESULT:      -7.4      0.000      0.000
REMARK  Name = Citalopram
REMARK  8 active torsions:
REMARK  status: ('A' for Active; 'I' for Inactive)
REMARK    1  A    between atoms: C_1  and  N_2
REMARK    2  A    between atoms: N_2  and  C_3
REMARK    3  A    between atoms: N_2  and  C_4
REMARK    4  A    between atoms: C_4  and  C_5
REMARK    5  A    between atoms: C_5  and  C_6
REMARK    6  A    between atoms: C_6  and  C_7
REMARK    7  A    between atoms: C_7  and  C_18
REMARK    8  A    between atoms: C_14  and  C_16
REMARK                            x       y       z     vdW  Elec       q    Type
REMARK                         _______ _______ _______ _____ _____    ______ ____
ROOT
ATOM      1  C   UNL     1      -6.957   2.851 123.384  0.00  0.00    +0.000 C 
ATOM      2  O   UNL     1      -8.217   3.478 123.807  0.00  0.00    +0.000 OA
ATOM      3  C   UNL     1      -9.247   2.504 124.091  0.00  0.00    +0.000 C 
ATOM      4  C   UNL     1      -8.656   1.197 123.756  0.00  0.00    +0.000 A 
ATOM      5  C   UNL     1      -7.336   1.364 123.352  0.00  0.00    +0.000 A 
ATOM      6  C   UNL     1      -6.615   0.212 123.055  0.00  0.00    +0.000 A 
ATOM      7  C   UNL     1      -7.245  -1.057 123.123  0.00  0.00    +0.000 A 
ATOM      8  C   UNL     1      -8.586  -1.191 123.518  0.00  0.00    +0.000 A 
ATOM      9  C   UNL     1      -9.299  -0.043 123.849  0.00  0.00    +0.000 A 
ENDROOT
BRANCH   1  10
ATOM     10  C   UNL     1      -6.476   3.526 122.058  0.00  0.00    +0.000 A 
ATOM     11  C   UNL     1      -7.314   3.619 120.912  0.00  0.00    +0.000 A 
ATOM     12  C   UNL     1      -6.962   4.319 119.755  0.00  0.00    +0.000 A 
ATOM     13  C   UNL     1      -5.748   4.966 119.716  0.00  0.00    +0.000 A 
ATOM     14  F   UNL     1      -5.352   5.558 118.583  0.00  0.00    +0.000 F 
ATOM     15  C   UNL     1      -4.927   4.972 120.834  0.00  0.00    +0.000 A 
ATOM     16  C   UNL     1      -5.267   4.226 121.975  0.00  0.00    +0.000 A 
ENDBRANCH   1  10
BRANCH   8  17
ATOM     17  C   UNL     1      -9.227  -2.472 123.590  0.00  0.00    +0.000 C 
ATOM     18  N   UNL     1      -9.764  -3.509 123.626  0.00  0.00    +0.000 NA
ENDBRANCH   8  17
BRANCH   1  19
ATOM     19  C   UNL     1      -5.839   3.158 124.440  0.00  0.00    +0.000 C 
BRANCH  19  20
ATOM     20  C   UNL     1      -6.084   2.530 125.821  0.00  0.00    +0.000 C 
BRANCH  20  21
ATOM     21  C   UNL     1      -4.986   2.784 126.838  0.00  0.00    +0.000 C 
BRANCH  21  23
ATOM     22  C   UNL     1      -4.337   5.051 127.223  0.00  0.00    +0.000 C 
ATOM     23  N   UNL     1      -4.102   3.877 126.384  0.00  0.00    +0.000 NA
ATOM     24  C   UNL     1      -2.674   3.525 126.450  0.00  0.00    +0.000 C 
ENDBRANCH  21  23
ENDBRANCH  20  21
ENDBRANCH  19  20
ENDBRANCH   1  19
TORSDOF 6
ENDMDL
MODEL 2
REMARK VINA RESULT:      -7.3      1.368      1.910
REMARK  Name = Citalopram
REMARK  8 active torsions:
REMARK  status: ('A' for Active; 'I' for Inactive)
REMARK    1  A    between atoms: C_1  and  N_2
REMARK    2  A    between atoms: N_2  and  C_3
REMARK    3  A    between atoms: N_2  and  C_4
REMARK    4  A    between atoms: C_4  and  C_5
REMARK    5  A    between atoms: C_5  and  C_6
REMARK    6  A    between atoms: C_6  and  C_7
REMARK    7  A    between atoms: C_7  and  C_18
REMARK    8  A    between atoms: C_14  and  C_16
REMARK                            x       y       z     vdW  Elec       q    Type
REMARK                         _______ _______ _______ _____ _____    ______ ____
ROOT
ATOM      1  C   UNL     1      -7.033   2.809 123.429  0.00  0.00    +0.000 C 
ATOM      2  O   UNL     1      -8.318   3.429 123.779  0.00  0.00    +0.000 OA
ATOM      3  C   UNL     1      -9.359   2.450 123.996  0.00  0.00    +0.000 C 
ATOM      4  C   UNL     1      -8.745   1.147 123.691  0.00  0.00    +0.000 A 
ATOM      5  C   UNL     1      -7.404   1.320 123.366  0.00  0.00    +0.000 A 
ATOM      6  C   UNL     1      -6.662   0.172 123.107  0.00  0.00    +0.000 A 
ATOM      7  C   UNL     1      -7.290  -1.099 123.131  0.00  0.00    +0.000 A 
ATOM      8  C   UNL     1      -8.652  -1.239 123.445  0.00  0.00    +0.000 A 
ATOM      9  C   UNL     1      -9.387  -0.096 123.739  0.00  0.00    +0.000 A 
ENDROOT
BRANCH   1  10
ATOM     10  C   UNL     1      -6.477   3.492 122.137  0.00  0.00    +0.000 A 
ATOM     11  C   UNL     1      -7.248   3.595 120.946  0.00  0.00    +0.000 A 
ATOM     12  C   UNL     1      -6.830   4.302 119.816  0.00  0.00    +0.000 A 
ATOM     13  C   UNL     1      -5.615   4.947 119.851  0.00  0.00    +0.000 A 
ATOM     14  F   UNL     1      -5.154   5.546 118.746  0.00  0.00    +0.000 F 
ATOM     15  C   UNL     1      -4.858   4.943 121.013  0.00  0.00    +0.000 A 
ATOM     16  C   UNL     1      -5.263   4.190 122.127  0.00  0.00    +0.000 A 
ENDBRANCH   1  10
BRANCH   8  17
ATOM     17  C   UNL     1      -9.291  -2.523 123.473  0.00  0.00    +0.000 C 
ATOM     18  N   UNL     1      -9.786  -3.581 123.488  0.00  0.00    +0.000 NA
ENDBRANCH   8  17
BRANCH   1  19
ATOM     19  C   UNL     1      -5.980   3.114 124.551  0.00  0.00    +0.000 C 
BRANCH  19  20
ATOM     20  C   UNL     1      -6.297   2.466 125.908  0.00  0.00    +0.000 C 
BRANCH  20  21
ATOM     21  C   UNL     1      -6.838   3.421 126.957  0.00  0.00    +0.000 C 
BRANCH  21  23
ATOM     22  C   UNL     1      -8.148   1.460 127.340  0.00  0.00    +0.000 C 
ATOM     23  N   UNL     1      -8.106   2.911 127.517  0.00  0.00    +0.000 NA
ATOM     24  C   UNL     1      -8.268   3.220 128.946  0.00  0.00    +0.000 C 
ENDBRANCH  21  23
ENDBRANCH  20  21
ENDBRANCH  19  20
ENDBRANCH   1  19
TORSDOF 6
ENDMDL
MODEL 3
REMARK VINA RESULT:      -7.3      7.653      9.000
REMARK  Name = Citalopram
REMARK  8 active torsions:
REMARK  status: ('A' for Active; 'I' for Inactive)
REMARK    1  A    between atoms: C_1  and  N_2
REMARK    2  A    between atoms: N_2  and  C_3
REMARK    3  A    between atoms: N_2  and  C_4
REMARK    4  A    between atoms: C_4  and  C_5
REMARK    5  A    between atoms: C_5  and  C_6
REMARK    6  A    between atoms: C_6  and  C_7
REMARK    7  A    between atoms: C_7  and  C_18
REMARK    8  A    between atoms: C_14  and  C_16
REMARK                            x       y       z     vdW  Elec       q    Type
REMARK                         _______ _______ _______ _____ _____    ______ ____
ROOT
ATOM      1  C   UNL     1      -9.288   6.334 131.193  0.00  0.00    +0.000 C 
ATOM      2  O   UNL     1      -9.476   6.525 132.637  0.00  0.00    +0.000 OA
ATOM      3  C   UNL     1      -9.451   5.275 133.363  0.00  0.00    +0.000 C 
ATOM      4  C   UNL     1      -9.328   4.225 132.338  0.00  0.00    +0.000 A 
ATOM      5  C   UNL     1      -9.227   4.805 131.078  0.00  0.00    +0.000 A 
ATOM      6  C   UNL     1      -9.044   3.945 129.999  0.00  0.00    +0.000 A 
ATOM      7  C   UNL     1      -9.020   2.542 130.206  0.00  0.00    +0.000 A 
ATOM      8  C   UNL     1      -9.144   1.987 131.490  0.00  0.00    +0.000 A 
ATOM      9  C   UNL     1      -9.290   2.847 132.574  0.00  0.00    +0.000 A 
ENDROOT
BRANCH   1  10
ATOM     10  C   UNL     1     -10.424   7.093 130.431  0.00  0.00    +0.000 A 
ATOM     11  C   UNL     1     -10.174   7.818 129.233  0.00  0.00    +0.000 A 
ATOM     12  C   UNL     1     -11.182   8.405 128.463  0.00  0.00    +0.000 A 
ATOM     13  C   UNL     1     -12.489   8.270 128.870  0.00  0.00    +0.000 A 
ATOM     14  F   UNL     1     -13.458   8.907 128.201  0.00  0.00    +0.000 F 
ATOM     15  C   UNL     1     -12.795   7.508 129.988  0.00  0.00    +0.000 A 
ATOM     16  C   UNL     1     -11.773   6.962 130.782  0.00  0.00    +0.000 A 
ENDBRANCH   1  10
BRANCH   8  17
ATOM     17  C   UNL     1      -9.117   0.569 131.705  0.00  0.00    +0.000 C 
ATOM     18  N   UNL     1      -9.069  -0.587 131.864  0.00  0.00    +0.000 NA
ENDBRANCH   8  17
BRANCH   1  19
ATOM     19  C   UNL     1      -7.952   7.020 130.742  0.00  0.00    +0.000 C 
BRANCH  19  20
ATOM     20  C   UNL     1      -6.699   6.494 131.459  0.00  0.00    +0.000 C 
BRANCH  20  21
ATOM     21  C   UNL     1      -5.389   7.080 130.963  0.00  0.00    +0.000 C 
BRANCH  21  23
ATOM     22  C   UNL     1      -3.795   7.140 129.185  0.00  0.00    +0.000 C 
ATOM     23  N   UNL     1      -5.060   6.553 129.623  0.00  0.00    +0.000 NA
ATOM     24  C   UNL     1      -4.937   5.087 129.597  0.00  0.00    +0.000 C 
ENDBRANCH  21  23
ENDBRANCH  20  21
ENDBRANCH  19  20
ENDBRANCH   1  19
TORSDOF 6
ENDMDL
MODEL 4
REMARK VINA RESULT:      -7.2      7.803      9.829
REMARK  Name = Citalopram
REMARK  8 active torsions:
REMARK  status: ('A' for Active; 'I' for Inactive)
REMARK    1  A    between atoms: C_1  and  N_2
REMARK    2  A    between atoms: N_2  and  C_3
REMARK    3  A    between atoms: N_2  and  C_4
REMARK    4  A    between atoms: C_4  and  C_5
REMARK    5  A    between atoms: C_5  and  C_6
REMARK    6  A    between atoms: C_6  and  C_7
REMARK    7  A    between atoms: C_7  and  C_18
REMARK    8  A    between atoms: C_14  and  C_16
REMARK                            x       y       z     vdW  Elec       q    Type
REMARK                         _______ _______ _______ _____ _____    ______ ____
ROOT
ATOM      1  C   UNL     1      -9.529   5.815 130.962  0.00  0.00    +0.000 C 
ATOM      2  O   UNL     1      -9.770   4.546 130.262  0.00  0.00    +0.000 OA
ATOM      3  C   UNL     1      -8.548   3.945 129.779  0.00  0.00    +0.000 C 
ATOM      4  C   UNL     1      -7.480   4.906 130.104  0.00  0.00    +0.000 A 
ATOM      5  C   UNL     1      -8.014   5.991 130.791  0.00  0.00    +0.000 A 
ATOM      6  C   UNL     1      -7.121   6.967 131.224  0.00  0.00    +0.000 A 
ATOM      7  C   UNL     1      -5.742   6.853 130.917  0.00  0.00    +0.000 A 
ATOM      8  C   UNL     1      -5.236   5.753 130.205  0.00  0.00    +0.000 A 
ATOM      9  C   UNL     1      -6.122   4.759 129.801  0.00  0.00    +0.000 A 
ENDROOT
BRANCH   1  10
ATOM     10  C   UNL     1     -10.477   6.908 130.368  0.00  0.00    +0.000 A 
ATOM     11  C   UNL     1     -10.163   7.609 129.170  0.00  0.00    +0.000 A 
ATOM     12  C   UNL     1     -11.039   8.503 128.548  0.00  0.00    +0.000 A 
ATOM     13  C   UNL     1     -12.278   8.714 129.108  0.00  0.00    +0.000 A 
ATOM     14  F   UNL     1     -13.091   9.637 128.583  0.00  0.00    +0.000 F 
ATOM     15  C   UNL     1     -12.664   7.998 130.232  0.00  0.00    +0.000 A 
ATOM     16  C   UNL     1     -11.760   7.139 130.878  0.00  0.00    +0.000 A 
ENDBRANCH   1  10
BRANCH   8  17
ATOM     17  C   UNL     1      -3.841   5.633 129.894  0.00  0.00    +0.000 C 
ATOM     18  N   UNL     1      -2.712   5.518 129.618  0.00  0.00    +0.000 NA
ENDBRANCH   8  17
BRANCH   1  19
ATOM     19  C   UNL     1      -9.947   5.672 132.467  0.00  0.00    +0.000 C 
BRANCH  19  20
ATOM     20  C   UNL     1      -8.950   4.879 133.326  0.00  0.00    +0.000 C 
BRANCH  20  21
ATOM     21  C   UNL     1      -9.304   3.416 133.523  0.00  0.00    +0.000 C 
BRANCH  21  23
ATOM     22  C   UNL     1      -8.150   1.561 132.557  0.00  0.00    +0.000 C 
ATOM     23  N   UNL     1      -8.080   2.592 133.592  0.00  0.00    +0.000 NA
ATOM     24  C   UNL     1      -6.849   3.374 133.399  0.00  0.00    +0.000 C 
ENDBRANCH  21  23
ENDBRANCH  20  21
ENDBRANCH  19  20
ENDBRANCH   1  19
TORSDOF 6
ENDMDL
MODEL 5
REMARK VINA RESULT:      -6.9      7.979     10.095
REMARK  Name = Citalopram
REMARK  8 active torsions:
REMARK  status: ('A' for Active; 'I' for Inactive)
REMARK    1  A    between atoms: C_1  and  N_2
REMARK    2  A    between atoms: N_2  and  C_3
REMARK    3  A    between atoms: N_2  and  C_4
REMARK    4  A    between atoms: C_4  and  C_5
REMARK    5  A    between atoms: C_5  and  C_6
REMARK    6  A    between atoms: C_6  and  C_7
REMARK    7  A    between atoms: C_7  and  C_18
REMARK    8  A    between atoms: C_14  and  C_16
REMARK                            x       y       z     vdW  Elec       q    Type
REMARK                         _______ _______ _______ _____ _____    ______ ____
ROOT
ATOM      1  C   UNL     1      -9.232   5.709 131.270  0.00  0.00    +0.000 C 
ATOM      2  O   UNL     1      -9.456   4.388 130.667  0.00  0.00    +0.000 OA
ATOM      3  C   UNL     1      -8.251   3.837 130.088  0.00  0.00    +0.000 C 
ATOM      4  C   UNL     1      -7.224   4.881 130.247  0.00  0.00    +0.000 A 
ATOM      5  C   UNL     1      -7.758   5.969 130.929  0.00  0.00    +0.000 A 
ATOM      6  C   UNL     1      -6.895   7.023 131.213  0.00  0.00    +0.000 A 
ATOM      7  C   UNL     1      -5.550   6.979 130.766  0.00  0.00    +0.000 A 
ATOM      8  C   UNL     1      -5.046   5.872 130.062  0.00  0.00    +0.000 A 
ATOM      9  C   UNL     1      -5.898   4.803 129.809  0.00  0.00    +0.000 A 
ENDROOT
BRANCH   1  10
ATOM     10  C   UNL     1     -10.309   6.703 130.725  0.00  0.00    +0.000 A 
ATOM     11  C   UNL     1     -10.105   7.458 129.537  0.00  0.00    +0.000 A 
ATOM     12  C   UNL     1     -11.090   8.263 128.957  0.00  0.00    +0.000 A 
ATOM     13  C   UNL     1     -12.329   8.324 129.551  0.00  0.00    +0.000 A 
ATOM     14  F   UNL     1     -13.253   9.163 129.067  0.00  0.00    +0.000 F 
ATOM     15  C   UNL     1     -12.606   7.547 130.667  0.00  0.00    +0.000 A 
ATOM     16  C   UNL     1     -11.596   6.780 131.271  0.00  0.00    +0.000 A 
ENDBRANCH   1  10
BRANCH   8  17
ATOM     17  C   UNL     1      -3.686   5.822 129.611  0.00  0.00    +0.000 C 
ATOM     18  N   UNL     1      -2.572   5.759 129.261  0.00  0.00    +0.000 NA
ENDBRANCH   8  17
BRANCH   1  19
ATOM     19  C   UNL     1      -9.481   5.628 132.816  0.00  0.00    +0.000 C 
BRANCH  19  20
ATOM     20  C   UNL     1      -9.250   4.235 133.422  0.00  0.00    +0.000 C 
BRANCH  20  21
ATOM     21  C   UNL     1      -8.241   4.194 134.555  0.00  0.00    +0.000 C 
BRANCH  21  23
ATOM     22  C   UNL     1      -7.616   5.992 135.999  0.00  0.00    +0.000 C 
ATOM     23  N   UNL     1      -7.502   5.470 134.637  0.00  0.00    +0.000 NA
ATOM     24  C   UNL     1      -6.077   5.332 134.300  0.00  0.00    +0.000 C 
ENDBRANCH  21  23
ENDBRANCH  20  21
ENDBRANCH  19  20
ENDBRANCH   1  19
TORSDOF 6
ENDMDL
MODEL 6
REMARK VINA RESULT:      -6.8      7.384      9.613
REMARK  Name = Citalopram
REMARK  8 active torsions:
REMARK  status: ('A' for Active; 'I' for Inactive)
REMARK    1  A    between atoms: C_1  and  N_2
REMARK    2  A    between atoms: N_2  and  C_3
REMARK    3  A    between atoms: N_2  and  C_4
REMARK    4  A    between atoms: C_4  and  C_5
REMARK    5  A    between atoms: C_5  and  C_6
REMARK    6  A    between atoms: C_6  and  C_7
REMARK    7  A    between atoms: C_7  and  C_18
REMARK    8  A    between atoms: C_14  and  C_16
REMARK                            x       y       z     vdW  Elec       q    Type
REMARK                         _______ _______ _______ _____ _____    ______ ____
ROOT
ATOM      1  C   UNL     1      -7.209  -2.075 130.046  0.00  0.00    +0.000 C 
ATOM      2  O   UNL     1      -6.245  -1.072 129.575  0.00  0.00    +0.000 OA
ATOM      3  C   UNL     1      -6.299  -0.890 128.142  0.00  0.00    +0.000 C 
ATOM      4  C   UNL     1      -7.278  -1.877 127.655  0.00  0.00    +0.000 A 
ATOM      5  C   UNL     1      -7.823  -2.571 128.730  0.00  0.00    +0.000 A 
ATOM      6  C   UNL     1      -8.814  -3.505 128.442  0.00  0.00    +0.000 A 
ATOM      7  C   UNL     1      -9.189  -3.750 127.097  0.00  0.00    +0.000 A 
ATOM      8  C   UNL     1      -8.606  -3.045 126.032  0.00  0.00    +0.000 A 
ATOM      9  C   UNL     1      -7.641  -2.085 126.320  0.00  0.00    +0.000 A 
ENDROOT
BRANCH   1  10
ATOM     10  C   UNL     1      -6.462  -3.107 130.954  0.00  0.00    +0.000 A 
ATOM     11  C   UNL     1      -6.481  -3.013 132.374  0.00  0.00    +0.000 A 
ATOM     12  C   UNL     1      -5.928  -3.981 133.217  0.00  0.00    +0.000 A 
ATOM     13  C   UNL     1      -5.343  -5.093 132.655  0.00  0.00    +0.000 A 
ATOM     14  F   UNL     1      -4.723  -5.981 133.440  0.00  0.00    +0.000 F 
ATOM     15  C   UNL     1      -5.366  -5.271 131.279  0.00  0.00    +0.000 A 
ATOM     16  C   UNL     1      -5.881  -4.271 130.438  0.00  0.00    +0.000 A 
ENDBRANCH   1  10
BRANCH   8  17
ATOM     17  C   UNL     1      -8.984  -3.288 124.670  0.00  0.00    +0.000 C 
ATOM     18  N   UNL     1      -9.295  -3.456 123.556  0.00  0.00    +0.000 NA
ENDBRANCH   8  17
BRANCH   1  19
ATOM     19  C   UNL     1      -8.268  -1.388 130.977  0.00  0.00    +0.000 C 
BRANCH  19  20
ATOM     20  C   UNL     1      -8.103   0.134 131.106  0.00  0.00    +0.000 C 
BRANCH  20  21
ATOM     21  C   UNL     1      -7.515   0.600 132.425  0.00  0.00    +0.000 C 
BRANCH  21  23
ATOM     22  C   UNL     1      -7.583   2.810 133.331  0.00  0.00    +0.000 C 
ATOM     23  N   UNL     1      -8.384   1.621 133.047  0.00  0.00    +0.000 NA
ATOM     24  C   UNL     1      -9.520   2.005 132.194  0.00  0.00    +0.000 C 
ENDBRANCH  21  23
ENDBRANCH  20  21
ENDBRANCH  19  20
ENDBRANCH   1  19
TORSDOF 6
ENDMDL
MODEL 7
REMARK VINA RESULT:      -6.4      7.846     10.572
REMARK  Name = Citalopram
REMARK  8 active torsions:
REMARK  status: ('A' for Active; 'I' for Inactive)
REMARK    1  A    between atoms: C_1  and  N_2
REMARK    2  A    between atoms: N_2  and  C_3
REMARK    3  A    between atoms: N_2  and  C_4
REMARK    4  A    between atoms: C_4  and  C_5
REMARK    5  A    between atoms: C_5  and  C_6
REMARK    6  A    between atoms: C_6  and  C_7
REMARK    7  A    between atoms: C_7  and  C_18
REMARK    8  A    between atoms: C_14  and  C_16
REMARK                            x       y       z     vdW  Elec       q    Type
REMARK                         _______ _______ _______ _____ _____    ______ ____
ROOT
ATOM      1  C   UNL     1      -8.771   5.759 130.778  0.00  0.00    +0.000 C 
ATOM      2  O   UNL     1      -7.577   6.435 130.253  0.00  0.00    +0.000 OA
ATOM      3  C   UNL     1      -6.498   6.469 131.215  0.00  0.00    +0.000 C 
ATOM      4  C   UNL     1      -7.045   5.865 132.442  0.00  0.00    +0.000 A 
ATOM      5  C   UNL     1      -8.351   5.441 132.219  0.00  0.00    +0.000 A 
ATOM      6  C   UNL     1      -8.993   4.792 133.269  0.00  0.00    +0.000 A 
ATOM      7  C   UNL     1      -8.334   4.633 134.515  0.00  0.00    +0.000 A 
ATOM      8  C   UNL     1      -7.020   5.089 134.714  0.00  0.00    +0.000 A 
ATOM      9  C   UNL     1      -6.364   5.706 133.654  0.00  0.00    +0.000 A 
ENDROOT
BRANCH   1  10
ATOM     10  C   UNL     1     -10.014   6.680 130.551  0.00  0.00    +0.000 A 
ATOM     11  C   UNL     1     -10.091   7.587 129.458  0.00  0.00    +0.000 A 
ATOM     12  C   UNL     1     -11.232   8.335 129.156  0.00  0.00    +0.000 A 
ATOM     13  C   UNL     1     -12.350   8.185 129.944  0.00  0.00    +0.000 A 
ATOM     14  F   UNL     1     -13.417   8.963 129.731  0.00  0.00    +0.000 F 
ATOM     15  C   UNL     1     -12.355   7.257 130.975  0.00  0.00    +0.000 A 
ATOM     16  C   UNL     1     -11.189   6.545 131.301  0.00  0.00    +0.000 A 
ENDBRANCH   1  10
BRANCH   8  17
ATOM     17  C   UNL     1      -6.349   4.927 135.971  0.00  0.00    +0.000 C 
ATOM     18  N   UNL     1      -5.824   4.810 137.008  0.00  0.00    +0.000 NA
ENDBRANCH   8  17
BRANCH   1  19
ATOM     19  C   UNL     1      -9.050   4.464 129.939  0.00  0.00    +0.000 C 
BRANCH  19  20
ATOM     20  C   UNL     1      -7.950   3.396 130.041  0.00  0.00    +0.000 C 
BRANCH  20  21
ATOM     21  C   UNL     1      -8.430   1.968 129.850  0.00  0.00    +0.000 C 
BRANCH  21  23
ATOM     22  C   UNL     1      -7.149   1.855 131.863  0.00  0.00    +0.000 C 
ATOM     23  N   UNL     1      -8.153   1.163 131.056  0.00  0.00    +0.000 NA
ATOM     24  C   UNL     1      -9.349   0.933 131.882  0.00  0.00    +0.000 C 
ENDBRANCH  21  23
ENDBRANCH  20  21
ENDBRANCH  19  20
ENDBRANCH   1  19
TORSDOF 6
ENDMDL
MODEL 8
REMARK VINA RESULT:      -6.4      7.163     11.224
REMARK  Name = Citalopram
REMARK  8 active torsions:
REMARK  status: ('A' for Active; 'I' for Inactive)
REMARK    1  A    between atoms: C_1  and  N_2
REMARK    2  A    between atoms: N_2  and  C_3
REMARK    3  A    between atoms: N_2  and  C_4
REMARK    4  A    between atoms: C_4  and  C_5
REMARK    5  A    between atoms: C_5  and  C_6
REMARK    6  A    between atoms: C_6  and  C_7
REMARK    7  A    between atoms: C_7  and  C_18
REMARK    8  A    between atoms: C_14  and  C_16
REMARK                            x       y       z     vdW  Elec       q    Type
REMARK                         _______ _______ _______ _____ _____    ______ ____
ROOT
ATOM      1  C   UNL     1      -5.565   6.119 131.210  0.00  0.00    +0.000 C 
ATOM      2  O   UNL     1      -5.345   6.865 129.964  0.00  0.00    +0.000 OA
ATOM      3  C   UNL     1      -4.223   7.772 130.058  0.00  0.00    +0.000 C 
ATOM      4  C   UNL     1      -3.749   7.671 131.449  0.00  0.00    +0.000 A 
ATOM      5  C   UNL     1      -4.499   6.722 132.136  0.00  0.00    +0.000 A 
ATOM      6  C   UNL     1      -4.138   6.464 133.454  0.00  0.00    +0.000 A 
ATOM      7  C   UNL     1      -3.079   7.191 134.055  0.00  0.00    +0.000 A 
ATOM      8  C   UNL     1      -2.353   8.157 133.340  0.00  0.00    +0.000 A 
ATOM      9  C   UNL     1      -2.690   8.391 132.011  0.00  0.00    +0.000 A 
ENDROOT
BRANCH   1  10
ATOM     10  C   UNL     1      -7.068   6.250 131.620  0.00  0.00    +0.000 A 
ATOM     11  C   UNL     1      -8.047   6.785 130.736  0.00  0.00    +0.000 A 
ATOM     12  C   UNL     1      -9.414   6.806 131.023  0.00  0.00    +0.000 A 
ATOM     13  C   UNL     1      -9.849   6.273 132.215  0.00  0.00    +0.000 A 
ATOM     14  F   UNL     1     -11.141   6.373 132.550  0.00  0.00    +0.000 F 
ATOM     15  C   UNL     1      -8.946   5.670 133.078  0.00  0.00    +0.000 A 
ATOM     16  C   UNL     1      -7.569   5.697 132.804  0.00  0.00    +0.000 A 
ENDBRANCH   1  10
BRANCH   8  17
ATOM     17  C   UNL     1      -1.280   8.893 133.943  0.00  0.00    +0.000 C 
ATOM     18  N   UNL     1      -0.397   9.469 134.448  0.00  0.00    +0.000 NA
ENDBRANCH   8  17
BRANCH   1  19
ATOM     19  C   UNL     1      -5.333   4.589 130.953  0.00  0.00    +0.000 C 
BRANCH  19  20
ATOM     20  C   UNL     1      -4.918   4.246 129.514  0.00  0.00    +0.000 C 
BRANCH  20  21
ATOM     21  C   UNL     1      -3.426   4.056 129.311  0.00  0.00    +0.000 C 
BRANCH  21  23
ATOM     22  C   UNL     1      -2.265   3.591 127.275  0.00  0.00    +0.000 C 
ATOM     23  N   UNL     1      -3.004   4.616 128.011  0.00  0.00    +0.000 NA
ATOM     24  C   UNL     1      -4.135   5.069 127.186  0.00  0.00    +0.000 C 
ENDBRANCH  21  23
ENDBRANCH  20  21
ENDBRANCH  19  20
ENDBRANCH   1  19
TORSDOF 6
ENDMDL
MODEL 9
REMARK VINA RESULT:      -6.3      5.077      7.180
REMARK  Name = Citalopram
REMARK  8 active torsions:
REMARK  status: ('A' for Active; 'I' for Inactive)
REMARK    1  A    between atoms: C_1  and  N_2
REMARK    2  A    between atoms: N_2  and  C_3
REMARK    3  A    between atoms: N_2  and  C_4
REMARK    4  A    between atoms: C_4  and  C_5
REMARK    5  A    between atoms: C_5  and  C_6
REMARK    6  A    between atoms: C_6  and  C_7
REMARK    7  A    between atoms: C_7  and  C_18
REMARK    8  A    between atoms: C_14  and  C_16
REMARK                            x       y       z     vdW  Elec       q    Type
REMARK                         _______ _______ _______ _____ _____    ______ ____
ROOT
ATOM      1  C   UNL     1      -6.280  -1.137 126.981  0.00  0.00    +0.000 C 
ATOM      2  O   UNL     1      -7.076  -0.211 127.797  0.00  0.00    +0.000 OA
ATOM      3  C   UNL     1      -6.779  -0.327 129.206  0.00  0.00    +0.000 C 
ATOM      4  C   UNL     1      -5.813  -1.433 129.317  0.00  0.00    +0.000 A 
ATOM      5  C   UNL     1      -5.502  -1.916 128.050  0.00  0.00    +0.000 A 
ATOM      6  C   UNL     1      -4.552  -2.931 127.976  0.00  0.00    +0.000 A 
ATOM      7  C   UNL     1      -3.986  -3.461 129.163  0.00  0.00    +0.000 A 
ATOM      8  C   UNL     1      -4.335  -2.963 130.429  0.00  0.00    +0.000 A 
ATOM      9  C   UNL     1      -5.257  -1.924 130.503  0.00  0.00    +0.000 A 
ENDROOT
BRANCH   1  10
ATOM     10  C   UNL     1      -7.239  -1.929 126.033  0.00  0.00    +0.000 A 
ATOM     11  C   UNL     1      -8.524  -2.370 126.457  0.00  0.00    +0.000 A 
ATOM     12  C   UNL     1      -9.452  -2.972 125.604  0.00  0.00    +0.000 A 
ATOM     13  C   UNL     1      -9.121  -3.142 124.280  0.00  0.00    +0.000 A 
ATOM     14  F   UNL     1      -9.956  -3.804 123.470  0.00  0.00    +0.000 F 
ATOM     15  C   UNL     1      -7.913  -2.661 123.797  0.00  0.00    +0.000 A 
ATOM     16  C   UNL     1      -6.967  -2.100 124.670  0.00  0.00    +0.000 A 
ENDBRANCH   1  10
BRANCH   8  17
ATOM     17  C   UNL     1      -3.762  -3.494 131.632  0.00  0.00    +0.000 C 
ATOM     18  N   UNL     1      -3.286  -3.949 132.597  0.00  0.00    +0.000 NA
ENDBRANCH   8  17
BRANCH   1  19
ATOM     19  C   UNL     1      -5.335  -0.321 126.032  0.00  0.00    +0.000 C 
BRANCH  19  20
ATOM     20  C   UNL     1      -5.400   1.201 126.233  0.00  0.00    +0.000 C 
BRANCH  20  21
ATOM     21  C   UNL     1      -6.153   1.953 125.151  0.00  0.00    +0.000 C 
BRANCH  21  23
ATOM     22  C   UNL     1      -4.554   3.573 125.876  0.00  0.00    +0.000 C 
ATOM     23  N   UNL     1      -5.845   3.397 125.213  0.00  0.00    +0.000 NA
ATOM     24  C   UNL     1      -5.786   4.029 123.885  0.00  0.00    +0.000 C 
ENDBRANCH  21  23
ENDBRANCH  20  21
ENDBRANCH  19  20
ENDBRANCH   1  19
TORSDOF 6
ENDMDL
