MODEL 1
REMARK VINA RESULT:      -7.4      0.000      0.000
REMARK  Name = Citicoline
REMARK  16 active torsions:
REMARK  status: ('A' for Active; 'I' for Inactive)
REMARK    1  A    between atoms: C_1  and  N_2
REMARK    2  A    between atoms: N_2  and  C_3
REMARK    3  A    between atoms: N_2  and  C_4
REMARK    4  A    between atoms: N_2  and  C_5
REMARK    5  A    between atoms: C_5  and  C_6
REMARK    6  A    between atoms: C_6  and  O_7
REMARK    7  A    between atoms: O_7  and  P_8
REMARK    8  A    between atoms: P_8  and  O_11
REMARK    9  A    between atoms: O_11  and  P_12
REMARK   10  A    between atoms: P_12  and  O_13
REMARK   11  A    between atoms: P_12  and  O_15
REMARK   12  A    between atoms: O_15  and  C_16
REMARK   13  A    between atoms: C_16  and  C_17
REMARK   14  A    between atoms: C_19  and  N_24
REMARK   15  A    between atoms: C_20  and  O_21
REMARK   16  A    between atoms: C_22  and  O_23
REMARK                            x       y       z     vdW  Elec       q    Type
REMARK                         _______ _______ _______ _____ _____    ______ ____
ROOT
ATOM      1  C   UNL     1      -7.811   4.551 130.309  0.00  0.00    +0.000 C 
ATOM      2  O   UNL     1      -8.465   5.798 130.650  0.00  0.00    +0.000 OA
ATOM      3  C   UNL     1      -9.890   5.592 130.799  0.00  0.00    +0.000 C 
ATOM      4  C   UNL     1     -10.240   4.260 130.132  0.00  0.00    +0.000 C 
ATOM      5  C   UNL     1      -8.942   3.471 130.299  0.00  0.00    +0.000 C 
ENDROOT
BRANCH   3   6
ATOM      6  N   UNL     1     -10.612   6.744 130.270  0.00  0.00    +0.000 N 
ATOM      7  C   UNL     1     -10.144   7.409 129.152  0.00  0.00    +0.000 A 
ATOM      8  C   UNL     1     -10.927   8.260 128.495  0.00  0.00    +0.000 A 
ATOM      9  C   UNL     1     -12.157   8.669 129.196  0.00  0.00    +0.000 A 
ATOM     10  N   UNL     1     -12.887   9.709 128.702  0.00  0.00    +0.000 N 
ATOM     11  N   UNL     1     -12.569   8.104 130.291  0.00  0.00    +0.000 NA
ATOM     12  C   UNL     1     -11.869   7.040 130.797  0.00  0.00    +0.000 A 
ATOM     13  O   UNL     1     -12.341   6.374 131.740  0.00  0.00    +0.000 OA
ATOM     14  H   UNL     1     -12.560  10.279 127.936  0.00  0.00    +0.000 HD
ATOM     15  H   UNL     1     -13.607  10.094 129.303  0.00  0.00    +0.000 HD
ENDBRANCH   3   6
BRANCH   4  16
ATOM     16  O   UNL     1     -11.396   3.644 130.717  0.00  0.00    +0.000 OA
ATOM     17  H   UNL     1     -11.119   3.160 131.514  0.00  0.00    +0.000 HD
ENDBRANCH   4  16
BRANCH   5  18
ATOM     18  O   UNL     1      -9.009   2.729 131.537  0.00  0.00    +0.000 OA
ATOM     19  H   UNL     1      -8.145   2.331 131.731  0.00  0.00    +0.000 HD
ENDBRANCH   5  18
BRANCH   1  20
ATOM     20  C   UNL     1      -6.885   4.557 128.969  0.00  0.00    +0.000 C 
BRANCH  20  21
ATOM     21  O   UNL     1      -7.323   3.956 127.747  0.00  0.00    +0.000 OA
BRANCH  21  22
ATOM     22  P   UNL     1      -7.537   4.313 126.171  0.00  0.00    +0.000 P 
ATOM     23  O   UNL     1      -6.727   5.453 125.628  0.00  0.00    +0.000 OA
BRANCH  22  24
ATOM     24  O   UNL     1      -6.847   2.915 125.719  0.00  0.00    +0.000 OA
ATOM     25  H   UNL     1      -7.605   2.342 125.491  0.00  0.00    +0.000 HD
ENDBRANCH  22  24
BRANCH  22  26
ATOM     26  O   UNL     1      -8.931   3.951 125.269  0.00  0.00    +0.000 OA
BRANCH  26  27
ATOM     27  P   UNL     1      -8.461   2.568 124.343  0.00  0.00    +0.000 P 
ATOM     28  O   UNL     1      -8.509   3.398 123.060  0.00  0.00    +0.000 OA
ATOM     29  O   UNL     1      -9.752   1.905 124.856  0.00  0.00    +0.000 OA
BRANCH  27  30
ATOM     30  O   UNL     1      -7.992   1.184 123.418  0.00  0.00    +0.000 OA
BRANCH  30  31
ATOM     31  C   UNL     1      -8.052   0.018 124.176  0.00  0.00    +0.000 C 
BRANCH  31  32
ATOM     32  C   UNL     1      -8.252  -1.196 123.324  0.00  0.00    +0.000 C 
BRANCH  32  34
ATOM     33  C   UNL     1      -7.209  -3.158 124.407  0.00  0.00    +0.000 C 
ATOM     34  N   UNL     1      -8.516  -2.431 124.220  0.00  0.00    +0.000 N 
ATOM     35  C   UNL     1      -9.527  -3.362 123.547  0.00  0.00    +0.000 C 
ATOM     36  C   UNL     1      -9.058  -1.980 125.572  0.00  0.00    +0.000 C 
ENDBRANCH  32  34
ENDBRANCH  31  32
ENDBRANCH  30  31
ENDBRANCH  27  30
ENDBRANCH  26  27
ENDBRANCH  22  26
ENDBRANCH  21  22
ENDBRANCH  20  21
ENDBRANCH   1  20
TORSDOF 13
ENDMDL
MODEL 2
REMARK VINA RESULT:      -7.2      3.809      9.276
REMARK  Name = Citicoline
REMARK  16 active torsions:
REMARK  status: ('A' for Active; 'I' for Inactive)
REMARK    1  A    between atoms: C_1  and  N_2
REMARK    2  A    between atoms: N_2  and  C_3
REMARK    3  A    between atoms: N_2  and  C_4
REMARK    4  A    between atoms: N_2  and  C_5
REMARK    5  A    between atoms: C_5  and  C_6
REMARK    6  A    between atoms: C_6  and  O_7
REMARK    7  A    between atoms: O_7  and  P_8
REMARK    8  A    between atoms: P_8  and  O_11
REMARK    9  A    between atoms: O_11  and  P_12
REMARK   10  A    between atoms: P_12  and  O_13
REMARK   11  A    between atoms: P_12  and  O_15
REMARK   12  A    between atoms: O_15  and  C_16
REMARK   13  A    between atoms: C_16  and  C_17
REMARK   14  A    between atoms: C_19  and  N_24
REMARK   15  A    between atoms: C_20  and  O_21
REMARK   16  A    between atoms: C_22  and  O_23
REMARK                            x       y       z     vdW  Elec       q    Type
REMARK                         _______ _______ _______ _____ _____    ______ ____
ROOT
ATOM      1  C   UNL     1      -8.460   2.743 125.192  0.00  0.00    +0.000 C 
ATOM      2  O   UNL     1      -8.558   3.381 123.896  0.00  0.00    +0.000 OA
ATOM      3  C   UNL     1      -7.959   2.543 122.878  0.00  0.00    +0.000 C 
ATOM      4  C   UNL     1      -7.073   1.515 123.585  0.00  0.00    +0.000 C 
ATOM      5  C   UNL     1      -7.779   1.360 124.932  0.00  0.00    +0.000 C 
ENDROOT
BRANCH   3   6
ATOM      6  N   UNL     1      -7.263   3.375 121.902  0.00  0.00    +0.000 N 
ATOM      7  C   UNL     1      -5.913   3.636 122.043  0.00  0.00    +0.000 A 
ATOM      8  C   UNL     1      -5.213   4.138 121.029  0.00  0.00    +0.000 A 
ATOM      9  C   UNL     1      -6.005   4.671 119.906  0.00  0.00    +0.000 A 
ATOM     10  N   UNL     1      -5.380   5.409 118.945  0.00  0.00    +0.000 N 
ATOM     11  N   UNL     1      -7.288   4.498 119.801  0.00  0.00    +0.000 NA
ATOM     12  C   UNL     1      -7.939   3.739 120.738  0.00  0.00    +0.000 A 
ATOM     13  O   UNL     1      -9.130   3.413 120.560  0.00  0.00    +0.000 OA
ATOM     14  H   UNL     1      -4.416   5.696 119.031  0.00  0.00    +0.000 HD
ATOM     15  H   UNL     1      -5.971   5.924 118.303  0.00  0.00    +0.000 HD
ENDBRANCH   3   6
BRANCH   4  16
ATOM     16  O   UNL     1      -6.941   0.300 122.834  0.00  0.00    +0.000 OA
ATOM     17  H   UNL     1      -6.481  -0.356 123.385  0.00  0.00    +0.000 HD
ENDBRANCH   4  16
BRANCH   5  18
ATOM     18  O   UNL     1      -8.738   0.284 124.828  0.00  0.00    +0.000 OA
ATOM     19  H   UNL     1      -9.272   0.393 124.024  0.00  0.00    +0.000 HD
ENDBRANCH   5  18
BRANCH   1  20
ATOM     20  C   UNL     1      -7.765   3.613 126.381  0.00  0.00    +0.000 C 
BRANCH  20  21
ATOM     21  O   UNL     1      -8.341   3.699 127.689  0.00  0.00    +0.000 OA
BRANCH  21  22
ATOM     22  P   UNL     1      -8.093   4.413 129.132  0.00  0.00    +0.000 P 
ATOM     23  O   UNL     1      -6.765   5.082 129.328  0.00  0.00    +0.000 OA
BRANCH  22  24
ATOM     24  O   UNL     1      -9.210   5.545 128.810  0.00  0.00    +0.000 OA
ATOM     25  H   UNL     1      -9.518   5.321 127.909  0.00  0.00    +0.000 HD
ENDBRANCH  22  24
BRANCH  22  26
ATOM     26  O   UNL     1      -8.888   3.997 130.576  0.00  0.00    +0.000 OA
BRANCH  26  27
ATOM     27  P   UNL     1      -9.870   5.382 130.905  0.00  0.00    +0.000 P 
ATOM     28  O   UNL     1      -9.402   5.380 132.362  0.00  0.00    +0.000 OA
ATOM     29  O   UNL     1     -11.070   4.508 130.503  0.00  0.00    +0.000 OA
BRANCH  27  30
ATOM     30  O   UNL     1     -10.852   6.767 131.235  0.00  0.00    +0.000 OA
BRANCH  30  31
ATOM     31  C   UNL     1     -12.089   6.677 130.603  0.00  0.00    +0.000 C 
BRANCH  31  32
ATOM     32  C   UNL     1     -12.670   8.026 130.310  0.00  0.00    +0.000 C 
BRANCH  32  34
ATOM     33  C   UNL     1     -13.524   9.503 128.521  0.00  0.00    +0.000 C 
ATOM     34  N   UNL     1     -12.711   8.260 128.780  0.00  0.00    +0.000 N 
ATOM     35  C   UNL     1     -13.367   7.066 128.083  0.00  0.00    +0.000 C 
ATOM     36  C   UNL     1     -11.294   8.447 128.249  0.00  0.00    +0.000 C 
ENDBRANCH  32  34
ENDBRANCH  31  32
ENDBRANCH  30  31
ENDBRANCH  27  30
ENDBRANCH  26  27
ENDBRANCH  22  26
ENDBRANCH  21  22
ENDBRANCH  20  21
ENDBRANCH   1  20
TORSDOF 13
ENDMDL
MODEL 3
REMARK VINA RESULT:      -7.1      5.817      7.959
REMARK  Name = Citicoline
REMARK  16 active torsions:
REMARK  status: ('A' for Active; 'I' for Inactive)
REMARK    1  A    between atoms: C_1  and  N_2
REMARK    2  A    between atoms: N_2  and  C_3
REMARK    3  A    between atoms: N_2  and  C_4
REMARK    4  A    between atoms: N_2  and  C_5
REMARK    5  A    between atoms: C_5  and  C_6
REMARK    6  A    between atoms: C_6  and  O_7
REMARK    7  A    between atoms: O_7  and  P_8
REMARK    8  A    between atoms: P_8  and  O_11
REMARK    9  A    between atoms: O_11  and  P_12
REMARK   10  A    between atoms: P_12  and  O_13
REMARK   11  A    between atoms: P_12  and  O_15
REMARK   12  A    between atoms: O_15  and  C_16
REMARK   13  A    between atoms: C_16  and  C_17
REMARK   14  A    between atoms: C_19  and  N_24
REMARK   15  A    between atoms: C_20  and  O_21
REMARK   16  A    between atoms: C_22  and  O_23
REMARK                            x       y       z     vdW  Elec       q    Type
REMARK                         _______ _______ _______ _____ _____    ______ ____
ROOT
ATOM      1  C   UNL     1      -8.325   0.957 123.860  0.00  0.00    +0.000 C 
ATOM      2  O   UNL     1      -7.189   1.422 123.092  0.00  0.00    +0.000 OA
ATOM      3  C   UNL     1      -6.982   2.838 123.310  0.00  0.00    +0.000 C 
ATOM      4  C   UNL     1      -8.268   3.408 123.913  0.00  0.00    +0.000 C 
ATOM      5  C   UNL     1      -8.829   2.200 124.663  0.00  0.00    +0.000 C 
ENDROOT
BRANCH   3   6
ATOM      6  N   UNL     1      -6.563   3.472 122.065  0.00  0.00    +0.000 N 
ATOM      7  C   UNL     1      -7.356   3.387 120.936  0.00  0.00    +0.000 A 
ATOM      8  C   UNL     1      -7.139   4.187 119.895  0.00  0.00    +0.000 A 
ATOM      9  C   UNL     1      -5.855   4.911 119.902  0.00  0.00    +0.000 A 
ATOM     10  N   UNL     1      -5.453   5.560 118.773  0.00  0.00    +0.000 N 
ATOM     11  N   UNL     1      -5.062   4.936 120.931  0.00  0.00    +0.000 NA
ATOM     12  C   UNL     1      -5.452   4.314 122.089  0.00  0.00    +0.000 A 
ATOM     13  O   UNL     1      -4.794   4.475 123.136  0.00  0.00    +0.000 OA
ATOM     14  H   UNL     1      -5.950   5.473 117.898  0.00  0.00    +0.000 HD
ATOM     15  H   UNL     1      -4.491   5.876 118.740  0.00  0.00    +0.000 HD
ENDBRANCH   3   6
BRANCH   4  16
ATOM     16  O   UNL     1      -8.022   4.560 124.731  0.00  0.00    +0.000 OA
ATOM     17  H   UNL     1      -8.064   4.292 125.665  0.00  0.00    +0.000 HD
ENDBRANCH   4  16
BRANCH   5  18
ATOM     18  O   UNL     1      -8.327   2.225 126.017  0.00  0.00    +0.000 OA
ATOM     19  H   UNL     1      -8.337   1.328 126.390  0.00  0.00    +0.000 HD
ENDBRANCH   5  18
BRANCH   1  20
ATOM     20  C   UNL     1      -9.494   0.180 123.034  0.00  0.00    +0.000 C 
BRANCH  20  21
ATOM     21  O   UNL     1      -9.680  -1.236 123.140  0.00  0.00    +0.000 OA
BRANCH  21  22
ATOM     22  P   UNL     1      -9.257  -2.496 124.082  0.00  0.00    +0.000 P 
ATOM     23  O   UNL     1      -9.784  -2.487 125.487  0.00  0.00    +0.000 OA
BRANCH  22  24
ATOM     24  O   UNL     1     -10.152  -3.515 123.191  0.00  0.00    +0.000 OA
ATOM     25  H   UNL     1      -9.859  -4.401 123.482  0.00  0.00    +0.000 HD
ENDBRANCH  22  24
BRANCH  22  26
ATOM     26  O   UNL     1      -7.877  -3.462 123.857  0.00  0.00    +0.000 OA
BRANCH  26  27
ATOM     27  P   UNL     1      -6.574  -2.398 124.257  0.00  0.00    +0.000 P 
ATOM     28  O   UNL     1      -6.521  -1.903 122.810  0.00  0.00    +0.000 OA
ATOM     29  O   UNL     1      -5.787  -3.661 124.647  0.00  0.00    +0.000 OA
BRANCH  27  30
ATOM     30  O   UNL     1      -5.270  -1.333 124.657  0.00  0.00    +0.000 OA
BRANCH  30  31
ATOM     31  C   UNL     1      -5.291  -0.985 126.004  0.00  0.00    +0.000 C 
BRANCH  31  32
ATOM     32  C   UNL     1      -6.677  -1.003 126.568  0.00  0.00    +0.000 C 
BRANCH  32  34
ATOM     33  C   UNL     1      -5.266  -2.077 128.290  0.00  0.00    +0.000 C 
ATOM     34  N   UNL     1      -6.649  -1.543 128.018  0.00  0.00    +0.000 N 
ATOM     35  C   UNL     1      -7.673  -2.669 128.180  0.00  0.00    +0.000 C 
ATOM     36  C   UNL     1      -6.971  -0.416 128.993  0.00  0.00    +0.000 C 
ENDBRANCH  32  34
ENDBRANCH  31  32
ENDBRANCH  30  31
ENDBRANCH  27  30
ENDBRANCH  26  27
ENDBRANCH  22  26
ENDBRANCH  21  22
ENDBRANCH  20  21
ENDBRANCH   1  20
TORSDOF 13
ENDMDL
MODEL 4
REMARK VINA RESULT:      -7.0      3.881      4.823
REMARK  Name = Citicoline
REMARK  16 active torsions:
REMARK  status: ('A' for Active; 'I' for Inactive)
REMARK    1  A    between atoms: C_1  and  N_2
REMARK    2  A    between atoms: N_2  and  C_3
REMARK    3  A    between atoms: N_2  and  C_4
REMARK    4  A    between atoms: N_2  and  C_5
REMARK    5  A    between atoms: C_5  and  C_6
REMARK    6  A    between atoms: C_6  and  O_7
REMARK    7  A    between atoms: O_7  and  P_8
REMARK    8  A    between atoms: P_8  and  O_11
REMARK    9  A    between atoms: O_11  and  P_12
REMARK   10  A    between atoms: P_12  and  O_13
REMARK   11  A    between atoms: P_12  and  O_15
REMARK   12  A    between atoms: O_15  and  C_16
REMARK   13  A    between atoms: C_16  and  C_17
REMARK   14  A    between atoms: C_19  and  N_24
REMARK   15  A    between atoms: C_20  and  O_21
REMARK   16  A    between atoms: C_22  and  O_23
REMARK                            x       y       z     vdW  Elec       q    Type
REMARK                         _______ _______ _______ _____ _____    ______ ____
ROOT
ATOM      1  C   UNL     1      -8.343   5.184 131.450  0.00  0.00    +0.000 C 
ATOM      2  O   UNL     1      -9.232   6.315 131.613  0.00  0.00    +0.000 OA
ATOM      3  C   UNL     1     -10.569   5.969 131.181  0.00  0.00    +0.000 C 
ATOM      4  C   UNL     1     -10.468   4.707 130.322  0.00  0.00    +0.000 C 
ATOM      5  C   UNL     1      -9.237   4.019 130.912  0.00  0.00    +0.000 C 
ENDROOT
BRANCH   3   6
ATOM      6  N   UNL     1     -11.181   7.112 130.511  0.00  0.00    +0.000 N 
ATOM      7  C   UNL     1     -10.594   7.659 129.385  0.00  0.00    +0.000 A 
ATOM      8  C   UNL     1     -11.276   8.495 128.607  0.00  0.00    +0.000 A 
ATOM      9  C   UNL     1     -12.528   9.023 129.177  0.00  0.00    +0.000 A 
ATOM     10  N   UNL     1     -13.158  10.057 128.550  0.00  0.00    +0.000 N 
ATOM     11  N   UNL     1     -13.051   8.570 130.276  0.00  0.00    +0.000 NA
ATOM     12  C   UNL     1     -12.454   7.514 130.915  0.00  0.00    +0.000 A 
ATOM     13  O   UNL     1     -13.032   6.952 131.866  0.00  0.00    +0.000 OA
ATOM     14  H   UNL     1     -12.742  10.546 127.770  0.00  0.00    +0.000 HD
ATOM     15  H   UNL     1     -13.896  10.526 129.062  0.00  0.00    +0.000 HD
ENDBRANCH   3   6
BRANCH   4  16
ATOM     16  O   UNL     1     -11.669   3.924 130.360  0.00  0.00    +0.000 OA
ATOM     17  H   UNL     1     -11.450   3.009 130.113  0.00  0.00    +0.000 HD
ENDBRANCH   4  16
BRANCH   5  18
ATOM     18  O   UNL     1      -9.669   3.124 131.961  0.00  0.00    +0.000 OA
ATOM     19  H   UNL     1     -10.048   3.635 132.696  0.00  0.00    +0.000 HD
ENDBRANCH   5  18
BRANCH   1  20
ATOM     20  C   UNL     1      -6.990   5.439 130.579  0.00  0.00    +0.000 C 
BRANCH  20  21
ATOM     21  O   UNL     1      -6.115   6.540 130.850  0.00  0.00    +0.000 OA
BRANCH  21  22
ATOM     22  P   UNL     1      -4.621   7.080 130.493  0.00  0.00    +0.000 P 
ATOM     23  O   UNL     1      -3.837   7.676 131.626  0.00  0.00    +0.000 OA
BRANCH  22  24
ATOM     24  O   UNL     1      -4.093   5.568 130.226  0.00  0.00    +0.000 OA
ATOM     25  H   UNL     1      -4.831   5.144 129.745  0.00  0.00    +0.000 HD
ENDBRANCH  22  24
BRANCH  22  26
ATOM     26  O   UNL     1      -4.101   7.567 128.950  0.00  0.00    +0.000 OA
BRANCH  26  27
ATOM     27  P   UNL     1      -3.319   6.155 128.328  0.00  0.00    +0.000 P 
ATOM     28  O   UNL     1      -2.042   6.960 128.078  0.00  0.00    +0.000 OA
ATOM     29  O   UNL     1      -4.417   6.137 127.250  0.00  0.00    +0.000 OA
BRANCH  27  30
ATOM     30  O   UNL     1      -2.536   4.743 127.706  0.00  0.00    +0.000 OA
BRANCH  30  31
ATOM     31  C   UNL     1      -3.258   4.179 126.658  0.00  0.00    +0.000 C 
BRANCH  31  32
ATOM     32  C   UNL     1      -3.540   2.727 126.887  0.00  0.00    +0.000 C 
BRANCH  32  34
ATOM     33  C   UNL     1      -5.804   2.866 127.870  0.00  0.00    +0.000 C 
ATOM     34  N   UNL     1      -5.041   2.437 126.643  0.00  0.00    +0.000 N 
ATOM     35  C   UNL     1      -5.255   0.940 126.405  0.00  0.00    +0.000 C 
ATOM     36  C   UNL     1      -5.526   3.221 125.429  0.00  0.00    +0.000 C 
ENDBRANCH  32  34
ENDBRANCH  31  32
ENDBRANCH  30  31
ENDBRANCH  27  30
ENDBRANCH  26  27
ENDBRANCH  22  26
ENDBRANCH  21  22
ENDBRANCH  20  21
ENDBRANCH   1  20
TORSDOF 13
ENDMDL
MODEL 5
REMARK VINA RESULT:      -6.9      2.564      3.390
REMARK  Name = Citicoline
REMARK  16 active torsions:
REMARK  status: ('A' for Active; 'I' for Inactive)
REMARK    1  A    between atoms: C_1  and  N_2
REMARK    2  A    between atoms: N_2  and  C_3
REMARK    3  A    between atoms: N_2  and  C_4
REMARK    4  A    between atoms: N_2  and  C_5
REMARK    5  A    between atoms: C_5  and  C_6
REMARK    6  A    between atoms: C_6  and  O_7
REMARK    7  A    between atoms: O_7  and  P_8
REMARK    8  A    between atoms: P_8  and  O_11
REMARK    9  A    between atoms: O_11  and  P_12
REMARK   10  A    between atoms: P_12  and  O_13
REMARK   11  A    between atoms: P_12  and  O_15
REMARK   12  A    between atoms: O_15  and  C_16
REMARK   13  A    between atoms: C_16  and  C_17
REMARK   14  A    between atoms: C_19  and  N_24
REMARK   15  A    between atoms: C_20  and  O_21
REMARK   16  A    between atoms: C_22  and  O_23
REMARK                            x       y       z     vdW  Elec       q    Type
REMARK                         _______ _______ _______ _____ _____    ______ ____
ROOT
ATOM      1  C   UNL     1      -8.067   5.659 131.919  0.00  0.00    +0.000 C 
ATOM      2  O   UNL     1      -9.183   6.582 131.966  0.00  0.00    +0.000 OA
ATOM      3  C   UNL     1     -10.310   6.042 131.236  0.00  0.00    +0.000 C 
ATOM      4  C   UNL     1      -9.787   4.922 130.334  0.00  0.00    +0.000 C 
ATOM      5  C   UNL     1      -8.582   4.414 131.125  0.00  0.00    +0.000 C 
ENDROOT
BRANCH   3   6
ATOM      6  N   UNL     1     -11.000   7.117 130.531  0.00  0.00    +0.000 N 
ATOM      7  C   UNL     1     -10.426   7.704 129.418  0.00  0.00    +0.000 A 
ATOM      8  C   UNL     1     -11.153   8.467 128.606  0.00  0.00    +0.000 A 
ATOM      9  C   UNL     1     -12.467   8.884 129.126  0.00  0.00    +0.000 A 
ATOM     10  N   UNL     1     -13.166   9.849 128.464  0.00  0.00    +0.000 N 
ATOM     11  N   UNL     1     -12.985   8.396 130.213  0.00  0.00    +0.000 NA
ATOM     12  C   UNL     1     -12.317   7.406 130.885  0.00  0.00    +0.000 A 
ATOM     13  O   UNL     1     -12.875   6.803 131.823  0.00  0.00    +0.000 OA
ATOM     14  H   UNL     1     -12.770  10.366 127.693  0.00  0.00    +0.000 HD
ATOM     15  H   UNL     1     -13.961  10.254 128.945  0.00  0.00    +0.000 HD
ENDBRANCH   3   6
BRANCH   4  16
ATOM     16  O   UNL     1     -10.786   3.930 130.062  0.00  0.00    +0.000 OA
ATOM     17  H   UNL     1     -11.525   4.056 130.682  0.00  0.00    +0.000 HD
ENDBRANCH   4  16
BRANCH   5  18
ATOM     18  O   UNL     1      -9.018   3.346 131.994  0.00  0.00    +0.000 OA
ATOM     19  H   UNL     1      -9.851   2.971 131.665  0.00  0.00    +0.000 HD
ENDBRANCH   5  18
BRANCH   1  20
ATOM     20  C   UNL     1      -6.651   6.255 131.376  0.00  0.00    +0.000 C 
BRANCH  20  21
ATOM     21  O   UNL     1      -6.149   5.937 130.074  0.00  0.00    +0.000 OA
BRANCH  21  22
ATOM     22  P   UNL     1      -4.779   5.458 129.334  0.00  0.00    +0.000 P 
ATOM     23  O   UNL     1      -3.632   5.085 130.226  0.00  0.00    +0.000 OA
BRANCH  22  24
ATOM     24  O   UNL     1      -5.493   4.101 128.801  0.00  0.00    +0.000 OA
ATOM     25  H   UNL     1      -4.911   3.386 129.125  0.00  0.00    +0.000 HD
ENDBRANCH  22  24
BRANCH  22  26
ATOM     26  O   UNL     1      -4.327   5.878 127.750  0.00  0.00    +0.000 OA
BRANCH  26  27
ATOM     27  P   UNL     1      -4.851   4.523 126.811  0.00  0.00    +0.000 P 
ATOM     28  O   UNL     1      -3.402   4.217 126.427  0.00  0.00    +0.000 OA
ATOM     29  O   UNL     1      -5.652   5.534 125.973  0.00  0.00    +0.000 OA
BRANCH  27  30
ATOM     30  O   UNL     1      -5.375   3.167 125.873  0.00  0.00    +0.000 OA
BRANCH  30  31
ATOM     31  C   UNL     1      -6.700   3.308 125.470  0.00  0.00    +0.000 C 
BRANCH  31  32
ATOM     32  C   UNL     1      -6.873   3.039 124.007  0.00  0.00    +0.000 C 
BRANCH  32  34
ATOM     33  C   UNL     1      -7.382   0.684 123.454  0.00  0.00    +0.000 C 
ATOM     34  N   UNL     1      -8.011   2.011 123.791  0.00  0.00    +0.000 N 
ATOM     35  C   UNL     1      -8.911   2.458 122.637  0.00  0.00    +0.000 C 
ATOM     36  C   UNL     1      -8.839   1.885 125.065  0.00  0.00    +0.000 C 
ENDBRANCH  32  34
ENDBRANCH  31  32
ENDBRANCH  30  31
ENDBRANCH  27  30
ENDBRANCH  26  27
ENDBRANCH  22  26
ENDBRANCH  21  22
ENDBRANCH  20  21
ENDBRANCH   1  20
TORSDOF 13
ENDMDL
MODEL 6
REMARK VINA RESULT:      -6.8      3.430      8.369
REMARK  Name = Citicoline
REMARK  16 active torsions:
REMARK  status: ('A' for Active; 'I' for Inactive)
REMARK    1  A    between atoms: C_1  and  N_2
REMARK    2  A    between atoms: N_2  and  C_3
REMARK    3  A    between atoms: N_2  and  C_4
REMARK    4  A    between atoms: N_2  and  C_5
REMARK    5  A    between atoms: C_5  and  C_6
REMARK    6  A    between atoms: C_6  and  O_7
REMARK    7  A    between atoms: O_7  and  P_8
REMARK    8  A    between atoms: P_8  and  O_11
REMARK    9  A    between atoms: O_11  and  P_12
REMARK   10  A    between atoms: P_12  and  O_13
REMARK   11  A    between atoms: P_12  and  O_15
REMARK   12  A    between atoms: O_15  and  C_16
REMARK   13  A    between atoms: C_16  and  C_17
REMARK   14  A    between atoms: C_19  and  N_24
REMARK   15  A    between atoms: C_20  and  O_21
REMARK   16  A    between atoms: C_22  and  O_23
REMARK                            x       y       z     vdW  Elec       q    Type
REMARK                         _______ _______ _______ _____ _____    ______ ____
ROOT
ATOM      1  C   UNL     1      -7.615   3.771 127.405  0.00  0.00    +0.000 C 
ATOM      2  O   UNL     1      -7.812   4.323 126.081  0.00  0.00    +0.000 OA
ATOM      3  C   UNL     1      -8.026   3.261 125.121  0.00  0.00    +0.000 C 
ATOM      4  C   UNL     1      -7.545   1.955 125.758  0.00  0.00    +0.000 C 
ATOM      5  C   UNL     1      -7.775   2.224 127.245  0.00  0.00    +0.000 C 
ENDROOT
BRANCH   3   6
ATOM      6  N   UNL     1      -7.374   3.598 123.860  0.00  0.00    +0.000 N 
ATOM      7  C   UNL     1      -6.122   4.184 123.855  0.00  0.00    +0.000 A 
ATOM      8  C   UNL     1      -5.401   4.230 122.738  0.00  0.00    +0.000 A 
ATOM      9  C   UNL     1      -6.128   3.916 121.495  0.00  0.00    +0.000 A 
ATOM     10  N   UNL     1      -5.531   4.168 120.296  0.00  0.00    +0.000 N 
ATOM     11  N   UNL     1      -7.335   3.436 121.483  0.00  0.00    +0.000 NA
ATOM     12  C   UNL     1      -7.952   3.148 122.673  0.00  0.00    +0.000 A 
ATOM     13  O   UNL     1      -9.031   2.525 122.682  0.00  0.00    +0.000 OA
ATOM     14  H   UNL     1      -4.653   4.662 120.227  0.00  0.00    +0.000 HD
ATOM     15  H   UNL     1      -6.118   4.131 119.471  0.00  0.00    +0.000 HD
ENDBRANCH   3   6
BRANCH   4  16
ATOM     16  O   UNL     1      -8.236   0.809 125.242  0.00  0.00    +0.000 OA
ATOM     17  H   UNL     1      -8.439   0.211 125.981  0.00  0.00    +0.000 HD
ENDBRANCH   4  16
BRANCH   5  18
ATOM     18  O   UNL     1      -9.099   1.765 127.596  0.00  0.00    +0.000 OA
ATOM     19  H   UNL     1      -9.612   1.589 126.791  0.00  0.00    +0.000 HD
ENDBRANCH   5  18
BRANCH   1  20
ATOM     20  C   UNL     1      -6.260   4.222 128.189  0.00  0.00    +0.000 C 
BRANCH  20  21
ATOM     21  O   UNL     1      -6.304   5.048 129.357  0.00  0.00    +0.000 OA
BRANCH  21  22
ATOM     22  P   UNL     1      -7.218   5.316 130.679  0.00  0.00    +0.000 P 
ATOM     23  O   UNL     1      -6.626   6.204 131.733  0.00  0.00    +0.000 OA
BRANCH  22  24
ATOM     24  O   UNL     1      -8.292   6.171 129.813  0.00  0.00    +0.000 OA
ATOM     25  H   UNL     1      -8.665   6.802 130.460  0.00  0.00    +0.000 HD
ENDBRANCH  22  24
BRANCH  22  26
ATOM     26  O   UNL     1      -8.447   4.284 131.241  0.00  0.00    +0.000 OA
BRANCH  26  27
ATOM     27  P   UNL     1      -9.847   4.823 130.379  0.00  0.00    +0.000 P 
ATOM     28  O   UNL     1     -10.517   5.222 131.695  0.00  0.00    +0.000 OA
ATOM     29  O   UNL     1      -9.979   3.374 129.879  0.00  0.00    +0.000 OA
BRANCH  27  30
ATOM     30  O   UNL     1     -11.247   5.362 129.517  0.00  0.00    +0.000 OA
BRANCH  30  31
ATOM     31  C   UNL     1     -11.973   6.292 130.254  0.00  0.00    +0.000 C 
BRANCH  31  32
ATOM     32  C   UNL     1     -11.667   7.698 129.841  0.00  0.00    +0.000 C 
BRANCH  32  34
ATOM     33  C   UNL     1     -11.589   8.062 127.397  0.00  0.00    +0.000 C 
ATOM     34  N   UNL     1     -12.504   8.076 128.595  0.00  0.00    +0.000 N 
ATOM     35  C   UNL     1     -13.100   9.475 128.766  0.00  0.00    +0.000 C 
ATOM     36  C   UNL     1     -13.627   7.063 128.403  0.00  0.00    +0.000 C 
ENDBRANCH  32  34
ENDBRANCH  31  32
ENDBRANCH  30  31
ENDBRANCH  27  30
ENDBRANCH  26  27
ENDBRANCH  22  26
ENDBRANCH  21  22
ENDBRANCH  20  21
ENDBRANCH   1  20
TORSDOF 13
ENDMDL
MODEL 7
REMARK VINA RESULT:      -6.8      4.485      5.901
REMARK  Name = Citicoline
REMARK  16 active torsions:
REMARK  status: ('A' for Active; 'I' for Inactive)
REMARK    1  A    between atoms: C_1  and  N_2
REMARK    2  A    between atoms: N_2  and  C_3
REMARK    3  A    between atoms: N_2  and  C_4
REMARK    4  A    between atoms: N_2  and  C_5
REMARK    5  A    between atoms: C_5  and  C_6
REMARK    6  A    between atoms: C_6  and  O_7
REMARK    7  A    between atoms: O_7  and  P_8
REMARK    8  A    between atoms: P_8  and  O_11
REMARK    9  A    between atoms: O_11  and  P_12
REMARK   10  A    between atoms: P_12  and  O_13
REMARK   11  A    between atoms: P_12  and  O_15
REMARK   12  A    between atoms: O_15  and  C_16
REMARK   13  A    between atoms: C_16  and  C_17
REMARK   14  A    between atoms: C_19  and  N_24
REMARK   15  A    between atoms: C_20  and  O_21
REMARK   16  A    between atoms: C_22  and  O_23
REMARK                            x       y       z     vdW  Elec       q    Type
REMARK                         _______ _______ _______ _____ _____    ______ ____
ROOT
ATOM      1  C   UNL     1      -7.857   4.903 131.266  0.00  0.00    +0.000 C 
ATOM      2  O   UNL     1      -8.677   6.083 131.448  0.00  0.00    +0.000 OA
ATOM      3  C   UNL     1     -10.073   5.760 131.239  0.00  0.00    +0.000 C 
ATOM      4  C   UNL     1     -10.135   4.426 130.493  0.00  0.00    +0.000 C 
ATOM      5  C   UNL     1      -8.856   3.737 130.967  0.00  0.00    +0.000 C 
ENDROOT
BRANCH   3   6
ATOM      6  N   UNL     1     -10.738   6.867 130.561  0.00  0.00    +0.000 N 
ATOM      7  C   UNL     1     -10.143   7.479 129.473  0.00  0.00    +0.000 A 
ATOM      8  C   UNL     1     -10.848   8.278 128.677  0.00  0.00    +0.000 A 
ATOM      9  C   UNL     1     -12.162   8.699 129.195  0.00  0.00    +0.000 A 
ATOM     10  N   UNL     1     -12.838   9.696 128.556  0.00  0.00    +0.000 N 
ATOM     11  N   UNL     1     -12.700   8.187 130.261  0.00  0.00    +0.000 NA
ATOM     12  C   UNL     1     -12.054   7.166 130.910  0.00  0.00    +0.000 A 
ATOM     13  O   UNL     1     -12.632   6.543 131.823  0.00  0.00    +0.000 OA
ATOM     14  H   UNL     1     -12.425  10.229 127.805  0.00  0.00    +0.000 HD
ATOM     15  H   UNL     1     -13.632  10.098 129.040  0.00  0.00    +0.000 HD
ENDBRANCH   3   6
BRANCH   4  16
ATOM     16  O   UNL     1     -11.343   3.702 130.769  0.00  0.00    +0.000 OA
ATOM     17  H   UNL     1     -11.215   3.187 131.584  0.00  0.00    +0.000 HD
ENDBRANCH   4  16
BRANCH   5  18
ATOM     18  O   UNL     1      -9.161   2.956 132.143  0.00  0.00    +0.000 OA
ATOM     19  H   UNL     1      -9.618   2.138 131.887  0.00  0.00    +0.000 HD
ENDBRANCH   5  18
BRANCH   1  20
ATOM     20  C   UNL     1      -6.635   5.023 130.196  0.00  0.00    +0.000 C 
BRANCH  20  21
ATOM     21  O   UNL     1      -6.372   3.997 129.233  0.00  0.00    +0.000 OA
BRANCH  21  22
ATOM     22  P   UNL     1      -6.801   3.540 127.729  0.00  0.00    +0.000 P 
ATOM     23  O   UNL     1      -7.685   2.332 127.624  0.00  0.00    +0.000 OA
BRANCH  22  24
ATOM     24  O   UNL     1      -7.707   4.873 127.537  0.00  0.00    +0.000 OA
ATOM     25  H   UNL     1      -7.517   5.403 128.336  0.00  0.00    +0.000 HD
ENDBRANCH  22  24
BRANCH  22  26
ATOM     26  O   UNL     1      -5.927   3.893 126.315  0.00  0.00    +0.000 OA
BRANCH  26  27
ATOM     27  P   UNL     1      -4.404   4.454 126.915  0.00  0.00    +0.000 P 
ATOM     28  O   UNL     1      -4.934   5.889 126.948  0.00  0.00    +0.000 OA
ATOM     29  O   UNL     1      -3.797   3.908 125.611  0.00  0.00    +0.000 OA
BRANCH  27  30
ATOM     30  O   UNL     1      -2.882   5.014 127.516  0.00  0.00    +0.000 OA
BRANCH  30  31
ATOM     31  C   UNL     1      -3.015   6.219 128.200  0.00  0.00    +0.000 C 
BRANCH  31  32
ATOM     32  C   UNL     1      -1.913   6.427 129.192  0.00  0.00    +0.000 C 
BRANCH  32  34
ATOM     33  C   UNL     1      -3.639   7.295 130.734  0.00  0.00    +0.000 C 
ATOM     34  N   UNL     1      -2.477   6.341 130.631  0.00  0.00    +0.000 N 
ATOM     35  C   UNL     1      -1.399   6.739 131.642  0.00  0.00    +0.000 C 
ATOM     36  C   UNL     1      -2.945   4.919 130.917  0.00  0.00    +0.000 C 
ENDBRANCH  32  34
ENDBRANCH  31  32
ENDBRANCH  30  31
ENDBRANCH  27  30
ENDBRANCH  26  27
ENDBRANCH  22  26
ENDBRANCH  21  22
ENDBRANCH  20  21
ENDBRANCH   1  20
TORSDOF 13
ENDMDL
MODEL 8
REMARK VINA RESULT:      -6.7      2.239      8.934
REMARK  Name = Citicoline
REMARK  16 active torsions:
REMARK  status: ('A' for Active; 'I' for Inactive)
REMARK    1  A    between atoms: C_1  and  N_2
REMARK    2  A    between atoms: N_2  and  C_3
REMARK    3  A    between atoms: N_2  and  C_4
REMARK    4  A    between atoms: N_2  and  C_5
REMARK    5  A    between atoms: C_5  and  C_6
REMARK    6  A    between atoms: C_6  and  O_7
REMARK    7  A    between atoms: O_7  and  P_8
REMARK    8  A    between atoms: P_8  and  O_11
REMARK    9  A    between atoms: O_11  and  P_12
REMARK   10  A    between atoms: P_12  and  O_13
REMARK   11  A    between atoms: P_12  and  O_15
REMARK   12  A    between atoms: O_15  and  C_16
REMARK   13  A    between atoms: C_16  and  C_17
REMARK   14  A    between atoms: C_19  and  N_24
REMARK   15  A    between atoms: C_20  and  O_21
REMARK   16  A    between atoms: C_22  and  O_23
REMARK                            x       y       z     vdW  Elec       q    Type
REMARK                         _______ _______ _______ _____ _____    ______ ____
ROOT
ATOM      1  C   UNL     1      -6.797   2.779 124.298  0.00  0.00    +0.000 C 
ATOM      2  O   UNL     1      -6.762   1.331 124.262  0.00  0.00    +0.000 OA
ATOM      3  C   UNL     1      -8.098   0.802 124.086  0.00  0.00    +0.000 C 
ATOM      4  C   UNL     1      -9.089   1.916 124.431  0.00  0.00    +0.000 C 
ATOM      5  C   UNL     1      -8.293   3.171 124.071  0.00  0.00    +0.000 C 
ENDROOT
BRANCH   3   6
ATOM      6  N   UNL     1      -8.254  -0.414 124.876  0.00  0.00    +0.000 N 
ATOM      7  C   UNL     1      -7.722  -0.494 126.150  0.00  0.00    +0.000 A 
ATOM      8  C   UNL     1      -8.096  -1.464 126.980  0.00  0.00    +0.000 A 
ATOM      9  C   UNL     1      -8.838  -2.580 126.366  0.00  0.00    +0.000 A 
ATOM     10  N   UNL     1      -9.049  -3.714 127.091  0.00  0.00    +0.000 N 
ATOM     11  N   UNL     1      -9.278  -2.550 125.144  0.00  0.00    +0.000 NA
ATOM     12  C   UNL     1      -9.102  -1.412 124.399  0.00  0.00    +0.000 A 
ATOM     13  O   UNL     1      -9.669  -1.297 123.294  0.00  0.00    +0.000 OA
ATOM     14  H   UNL     1      -8.623  -3.861 127.995  0.00  0.00    +0.000 HD
ATOM     15  H   UNL     1      -9.380  -4.529 126.588  0.00  0.00    +0.000 HD
ENDBRANCH   3   6
BRANCH   4  16
ATOM     16  O   UNL     1     -10.334   1.775 123.733  0.00  0.00    +0.000 OA
ATOM     17  H   UNL     1     -10.967   2.418 124.096  0.00  0.00    +0.000 HD
ENDBRANCH   4  16
BRANCH   5  18
ATOM     18  O   UNL     1      -8.573   3.514 122.696  0.00  0.00    +0.000 OA
ATOM     19  H   UNL     1      -9.321   4.132 122.654  0.00  0.00    +0.000 HD
ENDBRANCH   5  18
BRANCH   1  20
ATOM     20  C   UNL     1      -6.111   3.492 125.591  0.00  0.00    +0.000 C 
BRANCH  20  21
ATOM     21  O   UNL     1      -6.692   3.406 126.897  0.00  0.00    +0.000 OA
BRANCH  21  22
ATOM     22  P   UNL     1      -6.270   3.432 128.470  0.00  0.00    +0.000 P 
ATOM     23  O   UNL     1      -4.856   3.041 128.789  0.00  0.00    +0.000 OA
BRANCH  22  24
ATOM     24  O   UNL     1      -6.392   5.050 128.518  0.00  0.00    +0.000 OA
ATOM     25  H   UNL     1      -5.787   5.309 129.242  0.00  0.00    +0.000 HD
ENDBRANCH  22  24
BRANCH  22  26
ATOM     26  O   UNL     1      -7.350   3.281 129.773  0.00  0.00    +0.000 OA
BRANCH  26  27
ATOM     27  P   UNL     1      -8.077   4.847 129.874  0.00  0.00    +0.000 P 
ATOM     28  O   UNL     1      -7.899   4.843 131.394  0.00  0.00    +0.000 OA
ATOM     29  O   UNL     1      -9.332   4.199 129.264  0.00  0.00    +0.000 OA
BRANCH  27  30
ATOM     30  O   UNL     1      -8.804   6.414 129.975  0.00  0.00    +0.000 OA
BRANCH  30  31
ATOM     31  C   UNL     1      -9.964   6.488 129.209  0.00  0.00    +0.000 C 
BRANCH  31  32
ATOM     32  C   UNL     1     -10.996   7.373 129.837  0.00  0.00    +0.000 C 
BRANCH  32  34
ATOM     33  C   UNL     1     -12.635   9.130 129.258  0.00  0.00    +0.000 C 
ATOM     34  N   UNL     1     -11.998   7.857 128.761  0.00  0.00    +0.000 N 
ATOM     35  C   UNL     1     -13.081   6.798 128.537  0.00  0.00    +0.000 C 
ATOM     36  C   UNL     1     -11.263   8.121 127.452  0.00  0.00    +0.000 C 
ENDBRANCH  32  34
ENDBRANCH  31  32
ENDBRANCH  30  31
ENDBRANCH  27  30
ENDBRANCH  26  27
ENDBRANCH  22  26
ENDBRANCH  21  22
ENDBRANCH  20  21
ENDBRANCH   1  20
TORSDOF 13
ENDMDL
MODEL 9
REMARK VINA RESULT:      -6.7      4.865      8.500
REMARK  Name = Citicoline
REMARK  16 active torsions:
REMARK  status: ('A' for Active; 'I' for Inactive)
REMARK    1  A    between atoms: C_1  and  N_2
REMARK    2  A    between atoms: N_2  and  C_3
REMARK    3  A    between atoms: N_2  and  C_4
REMARK    4  A    between atoms: N_2  and  C_5
REMARK    5  A    between atoms: C_5  and  C_6
REMARK    6  A    between atoms: C_6  and  O_7
REMARK    7  A    between atoms: O_7  and  P_8
REMARK    8  A    between atoms: P_8  and  O_11
REMARK    9  A    between atoms: O_11  and  P_12
REMARK   10  A    between atoms: P_12  and  O_13
REMARK   11  A    between atoms: P_12  and  O_15
REMARK   12  A    between atoms: O_15  and  C_16
REMARK   13  A    between atoms: C_16  and  C_17
REMARK   14  A    between atoms: C_19  and  N_24
REMARK   15  A    between atoms: C_20  and  O_21
REMARK   16  A    between atoms: C_22  and  O_23
REMARK                            x       y       z     vdW  Elec       q    Type
REMARK                         _______ _______ _______ _____ _____    ______ ____
ROOT
ATOM      1  C   UNL     1      -7.180  -1.601 124.025  0.00  0.00    +0.000 C 
ATOM      2  O   UNL     1      -6.726  -2.040 125.328  0.00  0.00    +0.000 OA
ATOM      3  C   UNL     1      -7.829  -2.601 126.080  0.00  0.00    +0.000 C 
ATOM      4  C   UNL     1      -9.127  -2.142 125.414  0.00  0.00    +0.000 C 
ATOM      5  C   UNL     1      -8.696  -1.978 123.957  0.00  0.00    +0.000 C 
ENDROOT
BRANCH   3   6
ATOM      6  N   UNL     1      -7.704  -2.233 127.486  0.00  0.00    +0.000 N 
ATOM      7  C   UNL     1      -7.259  -0.974 127.842  0.00  0.00    +0.000 A 
ATOM      8  C   UNL     1      -7.414  -0.528 129.086  0.00  0.00    +0.000 A 
ATOM      9  C   UNL     1      -7.783  -1.545 130.087  0.00  0.00    +0.000 A 
ATOM     10  N   UNL     1      -7.730  -1.221 131.410  0.00  0.00    +0.000 N 
ATOM     11  N   UNL     1      -8.130  -2.756 129.772  0.00  0.00    +0.000 NA
ATOM     12  C   UNL     1      -8.217  -3.102 128.448  0.00  0.00    +0.000 A 
ATOM     13  O   UNL     1      -8.717  -4.197 128.121  0.00  0.00    +0.000 OA
ATOM     14  H   UNL     1      -7.343  -0.347 131.734  0.00  0.00    +0.000 HD
ATOM     15  H   UNL     1      -7.794  -1.984 132.074  0.00  0.00    +0.000 HD
ENDBRANCH   3   6
BRANCH   4  16
ATOM     16  O   UNL     1     -10.203  -3.068 125.619  0.00  0.00    +0.000 OA
ATOM     17  H   UNL     1     -10.306  -3.215 126.575  0.00  0.00    +0.000 HD
ENDBRANCH   4  16
BRANCH   5  18
ATOM     18  O   UNL     1      -8.925  -3.225 123.265  0.00  0.00    +0.000 OA
ATOM     19  H   UNL     1      -9.545  -3.087 122.530  0.00  0.00    +0.000 HD
ENDBRANCH   5  18
BRANCH   1  20
ATOM     20  C   UNL     1      -6.860  -0.054 123.625  0.00  0.00    +0.000 C 
BRANCH  20  21
ATOM     21  O   UNL     1      -7.280   1.039 124.447  0.00  0.00    +0.000 OA
BRANCH  21  22
ATOM     22  P   UNL     1      -8.567   2.004 124.703  0.00  0.00    +0.000 P 
ATOM     23  O   UNL     1      -9.913   1.343 124.680  0.00  0.00    +0.000 OA
BRANCH  22  24
ATOM     24  O   UNL     1      -8.128   2.251 126.246  0.00  0.00    +0.000 OA
ATOM     25  H   UNL     1      -8.874   1.890 126.763  0.00  0.00    +0.000 HD
ENDBRANCH  22  24
BRANCH  22  26
ATOM     26  O   UNL     1      -8.604   3.679 124.414  0.00  0.00    +0.000 OA
BRANCH  26  27
ATOM     27  P   UNL     1      -7.632   4.327 125.690  0.00  0.00    +0.000 P 
ATOM     28  O   UNL     1      -8.673   5.420 125.941  0.00  0.00    +0.000 OA
ATOM     29  O   UNL     1      -6.549   4.554 124.621  0.00  0.00    +0.000 OA
BRANCH  27  30
ATOM     30  O   UNL     1      -6.660   4.975 126.966  0.00  0.00    +0.000 OA
BRANCH  30  31
ATOM     31  C   UNL     1      -5.452   4.295 127.082  0.00  0.00    +0.000 C 
BRANCH  31  32
ATOM     32  C   UNL     1      -4.904   4.356 128.474  0.00  0.00    +0.000 C 
BRANCH  32  34
ATOM     33  C   UNL     1      -2.915   4.884 129.845  0.00  0.00    +0.000 C 
ATOM     34  N   UNL     1      -3.495   4.998 128.458  0.00  0.00    +0.000 N 
ATOM     35  C   UNL     1      -3.595   6.475 128.066  0.00  0.00    +0.000 C 
ATOM     36  C   UNL     1      -2.606   4.265 127.461  0.00  0.00    +0.000 C 
ENDBRANCH  32  34
ENDBRANCH  31  32
ENDBRANCH  30  31
ENDBRANCH  27  30
ENDBRANCH  26  27
ENDBRANCH  22  26
ENDBRANCH  21  22
ENDBRANCH  20  21
ENDBRANCH   1  20
TORSDOF 13
ENDMDL
