MODEL 1
REMARK VINA RESULT:      -5.5      0.000      0.000
REMARK  Name = Citric acid
REMARK  9 active torsions:
REMARK  status: ('A' for Active; 'I' for Inactive)
REMARK    1  A    between atoms: O_1  and  C_2
REMARK    2  A    between atoms: C_2  and  C_4
REMARK    3  A    between atoms: C_4  and  C_5
REMARK    4  A    between atoms: C_5  and  O_6
REMARK    5  A    between atoms: C_5  and  C_7
REMARK    6  A    between atoms: C_5  and  C_11
REMARK    7  A    between atoms: C_7  and  C_8
REMARK    8  A    between atoms: C_8  and  O_9
REMARK    9  A    between atoms: C_11  and  O_12
REMARK                            x       y       z     vdW  Elec       q    Type
REMARK                         _______ _______ _______ _____ _____    ______ ____
ROOT
ATOM      1  C   UNL     1     -11.661   7.662 128.737  0.00  0.00    +0.000 C 
ENDROOT
BRANCH   1   2
ATOM      2  O   UNL     1     -12.571   6.773 128.069  0.00  0.00    +0.000 OA
ATOM      3  H   UNL     1     -13.497   7.014 128.264  0.00  0.00    +0.000 HD
ENDBRANCH   1   2
BRANCH   1   4
ATOM      4  C   UNL     1     -12.623   8.730 129.371  0.00  0.00    +0.000 C 
ATOM      5  O   UNL     1     -12.912   8.753 130.563  0.00  0.00    +0.000 OA
BRANCH   4   6
ATOM      6  O   UNL     1     -13.140   9.672 128.552  0.00  0.00    +0.000 OA
ATOM      7  H   UNL     1     -14.069   9.624 128.280  0.00  0.00    +0.000 HD
ENDBRANCH   4   6
ENDBRANCH   1   4
BRANCH   1   8
ATOM      8  C   UNL     1     -10.717   8.270 127.663  0.00  0.00    +0.000 C 
BRANCH   8   9
ATOM      9  C   UNL     1     -10.538   7.480 126.377  0.00  0.00    +0.000 C 
ATOM     10  O   UNL     1     -10.215   6.313 126.338  0.00  0.00    +0.000 OA
BRANCH   9  11
ATOM     11  O   UNL     1     -10.813   8.133 125.232  0.00  0.00    +0.000 OA
ATOM     12  H   UNL     1     -10.095   8.311 124.601  0.00  0.00    +0.000 HD
ENDBRANCH   9  11
ENDBRANCH   8   9
ENDBRANCH   1   8
BRANCH   1  13
ATOM     13  C   UNL     1     -10.948   7.030 129.957  0.00  0.00    +0.000 C 
BRANCH  13  14
ATOM     14  C   UNL     1     -11.526   5.776 130.554  0.00  0.00    +0.000 C 
ATOM     15  O   UNL     1     -11.410   4.669 130.050  0.00  0.00    +0.000 OA
BRANCH  14  16
ATOM     16  O   UNL     1     -12.024   5.969 131.792  0.00  0.00    +0.000 OA
ATOM     17  H   UNL     1     -12.248   6.932 131.900  0.00  0.00    +0.000 HD
ENDBRANCH  14  16
ENDBRANCH  13  14
ENDBRANCH   1  13
TORSDOF 9
ENDMDL
MODEL 2
REMARK VINA RESULT:      -5.5      1.517      3.758
REMARK  Name = Citric acid
REMARK  9 active torsions:
REMARK  status: ('A' for Active; 'I' for Inactive)
REMARK    1  A    between atoms: O_1  and  C_2
REMARK    2  A    between atoms: C_2  and  C_4
REMARK    3  A    between atoms: C_4  and  C_5
REMARK    4  A    between atoms: C_5  and  O_6
REMARK    5  A    between atoms: C_5  and  C_7
REMARK    6  A    between atoms: C_5  and  C_11
REMARK    7  A    between atoms: C_7  and  C_8
REMARK    8  A    between atoms: C_8  and  O_9
REMARK    9  A    between atoms: C_11  and  O_12
REMARK                            x       y       z     vdW  Elec       q    Type
REMARK                         _______ _______ _______ _____ _____    ______ ____
ROOT
ATOM      1  C   UNL     1     -11.279   7.439 129.178  0.00  0.00    +0.000 C 
ENDROOT
BRANCH   1   2
ATOM      2  O   UNL     1     -11.906   6.148 129.101  0.00  0.00    +0.000 OA
ATOM      3  H   UNL     1     -12.869   6.223 129.243  0.00  0.00    +0.000 HD
ENDBRANCH   1   2
BRANCH   1   4
ATOM      4  C   UNL     1     -10.169   7.220 130.268  0.00  0.00    +0.000 C 
ATOM      5  O   UNL     1     -10.407   6.812 131.400  0.00  0.00    +0.000 OA
BRANCH   4   6
ATOM      6  O   UNL     1      -8.890   7.485 129.921  0.00  0.00    +0.000 OA
ATOM      7  H   UNL     1      -8.183   7.412 130.580  0.00  0.00    +0.000 HD
ENDBRANCH   4   6
ENDBRANCH   1   4
BRANCH   1   8
ATOM      8  C   UNL     1     -12.358   8.465 129.620  0.00  0.00    +0.000 C 
BRANCH   8   9
ATOM      9  C   UNL     1     -13.331   8.944 128.555  0.00  0.00    +0.000 C 
ATOM     10  O   UNL     1     -13.887   8.212 127.767  0.00  0.00    +0.000 OA
BRANCH   9  11
ATOM     11  O   UNL     1     -13.606  10.262 128.548  0.00  0.00    +0.000 OA
ATOM     12  H   UNL     1     -14.511  10.561 128.739  0.00  0.00    +0.000 HD
ENDBRANCH   9  11
ENDBRANCH   8   9
ENDBRANCH   1   8
BRANCH   1  13
ATOM     13  C   UNL     1     -10.484   7.828 127.907  0.00  0.00    +0.000 C 
BRANCH  13  14
ATOM     14  C   UNL     1     -10.532   6.903 126.722  0.00  0.00    +0.000 C 
ATOM     15  O   UNL     1      -9.574   6.256 126.326  0.00  0.00    +0.000 OA
BRANCH  14  16
ATOM     16  O   UNL     1     -11.784   6.720 126.254  0.00  0.00    +0.000 OA
ATOM     17  H   UNL     1     -12.431   7.064 126.927  0.00  0.00    +0.000 HD
ENDBRANCH  14  16
ENDBRANCH  13  14
ENDBRANCH   1  13
TORSDOF 9
ENDMDL
MODEL 3
REMARK VINA RESULT:      -5.3      1.633      3.746
REMARK  Name = Citric acid
REMARK  9 active torsions:
REMARK  status: ('A' for Active; 'I' for Inactive)
REMARK    1  A    between atoms: O_1  and  C_2
REMARK    2  A    between atoms: C_2  and  C_4
REMARK    3  A    between atoms: C_4  and  C_5
REMARK    4  A    between atoms: C_5  and  O_6
REMARK    5  A    between atoms: C_5  and  C_7
REMARK    6  A    between atoms: C_5  and  C_11
REMARK    7  A    between atoms: C_7  and  C_8
REMARK    8  A    between atoms: C_8  and  O_9
REMARK    9  A    between atoms: C_11  and  O_12
REMARK                            x       y       z     vdW  Elec       q    Type
REMARK                         _______ _______ _______ _____ _____    ______ ____
ROOT
ATOM      1  C   UNL     1     -10.998   7.864 127.918  0.00  0.00    +0.000 C 
ENDROOT
BRANCH   1   2
ATOM      2  O   UNL     1     -10.308   9.114 128.075  0.00  0.00    +0.000 OA
ATOM      3  H   UNL     1      -9.563   9.022 128.700  0.00  0.00    +0.000 HD
ENDBRANCH   1   2
BRANCH   1   4
ATOM      4  C   UNL     1     -10.578   7.414 126.474  0.00  0.00    +0.000 C 
ATOM      5  O   UNL     1     -10.908   8.016 125.457  0.00  0.00    +0.000 OA
BRANCH   4   6
ATOM      6  O   UNL     1      -9.799   6.315 126.361  0.00  0.00    +0.000 OA
ATOM      7  H   UNL     1      -9.016   6.214 126.923  0.00  0.00    +0.000 HD
ENDBRANCH   4   6
ENDBRANCH   1   4
BRANCH   1   8
ATOM      8  C   UNL     1     -12.521   8.144 128.038  0.00  0.00    +0.000 C 
BRANCH   8   9
ATOM      9  C   UNL     1     -12.951   9.195 129.049  0.00  0.00    +0.000 C 
ATOM     10  O   UNL     1     -12.734   9.119 130.238  0.00  0.00    +0.000 OA
BRANCH   9  11
ATOM     11  O   UNL     1     -13.562  10.286 128.552  0.00  0.00    +0.000 OA
ATOM     12  H   UNL     1     -13.865  10.982 129.161  0.00  0.00    +0.000 HD
ENDBRANCH   9  11
ENDBRANCH   8   9
ENDBRANCH   1   8
BRANCH   1  13
ATOM     13  C   UNL     1     -10.464   6.733 128.833  0.00  0.00    +0.000 C 
BRANCH  13  14
ATOM     14  C   UNL     1      -9.761   7.115 130.106  0.00  0.00    +0.000 C 
ATOM     15  O   UNL     1      -8.612   7.529 130.149  0.00  0.00    +0.000 OA
BRANCH  14  16
ATOM     16  O   UNL     1     -10.585   7.130 131.173  0.00  0.00    +0.000 OA
ATOM     17  H   UNL     1     -11.525   7.189 130.851  0.00  0.00    +0.000 HD
ENDBRANCH  14  16
ENDBRANCH  13  14
ENDBRANCH   1  13
TORSDOF 9
ENDMDL
MODEL 4
REMARK VINA RESULT:      -5.3      1.108      4.063
REMARK  Name = Citric acid
REMARK  9 active torsions:
REMARK  status: ('A' for Active; 'I' for Inactive)
REMARK    1  A    between atoms: O_1  and  C_2
REMARK    2  A    between atoms: C_2  and  C_4
REMARK    3  A    between atoms: C_4  and  C_5
REMARK    4  A    between atoms: C_5  and  O_6
REMARK    5  A    between atoms: C_5  and  C_7
REMARK    6  A    between atoms: C_5  and  C_11
REMARK    7  A    between atoms: C_7  and  C_8
REMARK    8  A    between atoms: C_8  and  O_9
REMARK    9  A    between atoms: C_11  and  O_12
REMARK                            x       y       z     vdW  Elec       q    Type
REMARK                         _______ _______ _______ _____ _____    ______ ____
ROOT
ATOM      1  C   UNL     1     -12.116   7.360 129.722  0.00  0.00    +0.000 C 
ENDROOT
BRANCH   1   2
ATOM      2  O   UNL     1     -13.042   6.989 128.687  0.00  0.00    +0.000 OA
ATOM      3  H   UNL     1     -12.788   6.135 128.287  0.00  0.00    +0.000 HD
ENDBRANCH   1   2
BRANCH   1   4
ATOM      4  C   UNL     1     -11.908   6.013 130.501  0.00  0.00    +0.000 C 
ATOM      5  O   UNL     1     -11.587   4.961 129.956  0.00  0.00    +0.000 OA
BRANCH   4   6
ATOM      6  O   UNL     1     -12.079   6.031 131.842  0.00  0.00    +0.000 OA
ATOM      7  H   UNL     1     -12.409   6.831 132.279  0.00  0.00    +0.000 HD
ENDBRANCH   4   6
ENDBRANCH   1   4
BRANCH   1   8
ATOM      8  C   UNL     1     -12.790   8.457 130.591  0.00  0.00    +0.000 C 
BRANCH   8   9
ATOM      9  C   UNL     1     -13.116   9.774 129.906  0.00  0.00    +0.000 C 
ATOM     10  O   UNL     1     -13.302  10.815 130.496  0.00  0.00    +0.000 OA
BRANCH   9  11
ATOM     11  O   UNL     1     -13.141   9.758 128.561  0.00  0.00    +0.000 OA
ATOM     12  H   UNL     1     -12.550  10.351 128.066  0.00  0.00    +0.000 HD
ENDBRANCH   9  11
ENDBRANCH   8   9
ENDBRANCH   1   8
BRANCH   1  13
ATOM     13  C   UNL     1     -10.700   7.713 129.200  0.00  0.00    +0.000 C 
BRANCH  13  14
ATOM     14  C   UNL     1     -10.427   7.579 127.727  0.00  0.00    +0.000 C 
ATOM     15  O   UNL     1      -9.903   6.598 127.220  0.00  0.00    +0.000 OA
BRANCH  14  16
ATOM     16  O   UNL     1     -10.984   8.569 127.001  0.00  0.00    +0.000 OA
ATOM     17  H   UNL     1     -10.805   8.398 126.037  0.00  0.00    +0.000 HD
ENDBRANCH  14  16
ENDBRANCH  13  14
ENDBRANCH   1  13
TORSDOF 9
ENDMDL
MODEL 5
REMARK VINA RESULT:      -5.3      0.670      4.062
REMARK  Name = Citric acid
REMARK  9 active torsions:
REMARK  status: ('A' for Active; 'I' for Inactive)
REMARK    1  A    between atoms: O_1  and  C_2
REMARK    2  A    between atoms: C_2  and  C_4
REMARK    3  A    between atoms: C_4  and  C_5
REMARK    4  A    between atoms: C_5  and  O_6
REMARK    5  A    between atoms: C_5  and  C_7
REMARK    6  A    between atoms: C_5  and  C_11
REMARK    7  A    between atoms: C_7  and  C_8
REMARK    8  A    between atoms: C_8  and  O_9
REMARK    9  A    between atoms: C_11  and  O_12
REMARK                            x       y       z     vdW  Elec       q    Type
REMARK                         _______ _______ _______ _____ _____    ______ ____
ROOT
ATOM      1  C   UNL     1     -11.229   7.151 128.206  0.00  0.00    +0.000 C 
ENDROOT
BRANCH   1   2
ATOM      2  O   UNL     1     -12.456   6.436 127.986  0.00  0.00    +0.000 OA
ATOM      3  H   UNL     1     -12.283   5.483 127.862  0.00  0.00    +0.000 HD
ENDBRANCH   1   2
BRANCH   1   4
ATOM      4  C   UNL     1     -10.527   7.077 126.804  0.00  0.00    +0.000 C 
ATOM      5  O   UNL     1      -9.688   6.230 126.513  0.00  0.00    +0.000 OA
BRANCH   4   6
ATOM      6  O   UNL     1     -10.887   7.990 125.874  0.00  0.00    +0.000 OA
ATOM      7  H   UNL     1     -11.506   7.747 125.168  0.00  0.00    +0.000 HD
ENDBRANCH   4   6
ENDBRANCH   1   4
BRANCH   1   8
ATOM      8  C   UNL     1     -10.436   6.402 129.313  0.00  0.00    +0.000 C 
BRANCH   8   9
ATOM      9  C   UNL     1     -11.221   5.445 130.195  0.00  0.00    +0.000 C 
ATOM     10  O   UNL     1     -11.392   4.274 129.939  0.00  0.00    +0.000 OA
BRANCH   9  11
ATOM     11  O   UNL     1     -11.698   5.951 131.348  0.00  0.00    +0.000 OA
ATOM     12  H   UNL     1     -11.855   6.908 131.420  0.00  0.00    +0.000 HD
ENDBRANCH   9  11
ENDBRANCH   8   9
ENDBRANCH   1   8
BRANCH   1  13
ATOM     13  C   UNL     1     -11.422   8.669 128.449  0.00  0.00    +0.000 C 
BRANCH  13  14
ATOM     14  C   UNL     1     -12.576   9.116 129.304  0.00  0.00    +0.000 C 
ATOM     15  O   UNL     1     -12.894   8.575 130.353  0.00  0.00    +0.000 OA
BRANCH  14  16
ATOM     16  O   UNL     1     -13.110  10.284 128.891  0.00  0.00    +0.000 OA
ATOM     17  H   UNL     1     -13.752  10.603 129.580  0.00  0.00    +0.000 HD
ENDBRANCH  14  16
ENDBRANCH  13  14
ENDBRANCH   1  13
TORSDOF 9
ENDMDL
MODEL 6
REMARK VINA RESULT:      -5.3      1.029      3.937
REMARK  Name = Citric acid
REMARK  9 active torsions:
REMARK  status: ('A' for Active; 'I' for Inactive)
REMARK    1  A    between atoms: O_1  and  C_2
REMARK    2  A    between atoms: C_2  and  C_4
REMARK    3  A    between atoms: C_4  and  C_5
REMARK    4  A    between atoms: C_5  and  O_6
REMARK    5  A    between atoms: C_5  and  C_7
REMARK    6  A    between atoms: C_5  and  C_11
REMARK    7  A    between atoms: C_7  and  C_8
REMARK    8  A    between atoms: C_8  and  O_9
REMARK    9  A    between atoms: C_11  and  O_12
REMARK                            x       y       z     vdW  Elec       q    Type
REMARK                         _______ _______ _______ _____ _____    ______ ____
ROOT
ATOM      1  C   UNL     1     -11.856   7.695 128.919  0.00  0.00    +0.000 C 
ENDROOT
BRANCH   1   2
ATOM      2  O   UNL     1     -10.531   7.939 129.419  0.00  0.00    +0.000 OA
ATOM      3  H   UNL     1     -10.107   7.104 129.697  0.00  0.00    +0.000 HD
ENDBRANCH   1   2
BRANCH   1   4
ATOM      4  C   UNL     1     -12.661   8.933 129.452  0.00  0.00    +0.000 C 
ATOM      5  O   UNL     1     -12.923   9.107 130.639  0.00  0.00    +0.000 OA
BRANCH   4   6
ATOM      6  O   UNL     1     -13.067   9.853 128.549  0.00  0.00    +0.000 OA
ATOM      7  H   UNL     1     -14.012  10.020 128.416  0.00  0.00    +0.000 HD
ENDBRANCH   4   6
ENDBRANCH   1   4
BRANCH   1   8
ATOM      8  C   UNL     1     -12.352   6.353 129.524  0.00  0.00    +0.000 C 
BRANCH   8   9
ATOM      9  C   UNL     1     -11.556   5.786 130.690  0.00  0.00    +0.000 C 
ATOM     10  O   UNL     1     -10.505   5.197 130.569  0.00  0.00    +0.000 OA
BRANCH   9  11
ATOM     11  O   UNL     1     -12.053   6.017 131.919  0.00  0.00    +0.000 OA
ATOM     12  H   UNL     1     -11.452   6.021 132.683  0.00  0.00    +0.000 HD
ENDBRANCH   9  11
ENDBRANCH   8   9
ENDBRANCH   1   8
BRANCH   1  13
ATOM     13  C   UNL     1     -11.975   7.805 127.379  0.00  0.00    +0.000 C 
BRANCH  13  14
ATOM     14  C   UNL     1     -10.772   7.468 126.542  0.00  0.00    +0.000 C 
ATOM     15  O   UNL     1      -9.957   6.607 126.839  0.00  0.00    +0.000 OA
BRANCH  14  16
ATOM     16  O   UNL     1     -10.783   8.082 125.341  0.00  0.00    +0.000 OA
ATOM     17  H   UNL     1     -11.472   7.650 124.767  0.00  0.00    +0.000 HD
ENDBRANCH  14  16
ENDBRANCH  13  14
ENDBRANCH   1  13
TORSDOF 9
ENDMDL
MODEL 7
REMARK VINA RESULT:      -5.0      1.698      2.765
REMARK  Name = Citric acid
REMARK  9 active torsions:
REMARK  status: ('A' for Active; 'I' for Inactive)
REMARK    1  A    between atoms: O_1  and  C_2
REMARK    2  A    between atoms: C_2  and  C_4
REMARK    3  A    between atoms: C_4  and  C_5
REMARK    4  A    between atoms: C_5  and  O_6
REMARK    5  A    between atoms: C_5  and  C_7
REMARK    6  A    between atoms: C_5  and  C_11
REMARK    7  A    between atoms: C_7  and  C_8
REMARK    8  A    between atoms: C_8  and  O_9
REMARK    9  A    between atoms: C_11  and  O_12
REMARK                            x       y       z     vdW  Elec       q    Type
REMARK                         _______ _______ _______ _____ _____    ______ ____
ROOT
ATOM      1  C   UNL     1     -10.923   6.193 130.193  0.00  0.00    +0.000 C 
ENDROOT
BRANCH   1   2
ATOM      2  O   UNL     1     -11.921   5.623 129.332  0.00  0.00    +0.000 OA
ATOM      3  H   UNL     1     -12.818   5.869 129.632  0.00  0.00    +0.000 HD
ENDBRANCH   1   2
BRANCH   1   4
ATOM      4  C   UNL     1     -11.706   6.409 131.537  0.00  0.00    +0.000 C 
ATOM      5  O   UNL     1     -12.815   6.932 131.595  0.00  0.00    +0.000 OA
BRANCH   4   6
ATOM      6  O   UNL     1     -11.123   5.979 132.678  0.00  0.00    +0.000 OA
ATOM      7  H   UNL     1     -10.247   5.564 132.650  0.00  0.00    +0.000 HD
ENDBRANCH   4   6
ENDBRANCH   1   4
BRANCH   1   8
ATOM      8  C   UNL     1     -10.451   7.528 129.553  0.00  0.00    +0.000 C 
BRANCH   8   9
ATOM      9  C   UNL     1     -10.434   7.596 128.034  0.00  0.00    +0.000 C 
ATOM     10  O   UNL     1     -10.048   6.697 127.321  0.00  0.00    +0.000 OA
BRANCH   9  11
ATOM     11  O   UNL     1     -10.933   8.718 127.481  0.00  0.00    +0.000 OA
ATOM     12  H   UNL     1     -11.889   8.888 127.530  0.00  0.00    +0.000 HD
ENDBRANCH   9  11
ENDBRANCH   8   9
ENDBRANCH   1   8
BRANCH   1  13
ATOM     13  C   UNL     1      -9.787   5.211 130.575  0.00  0.00    +0.000 C 
BRANCH  13  14
ATOM     14  C   UNL     1     -10.036   3.735 130.422  0.00  0.00    +0.000 C 
ATOM     15  O   UNL     1      -9.816   3.113 129.394  0.00  0.00    +0.000 OA
BRANCH  14  16
ATOM     16  O   UNL     1     -10.352   3.136 131.588  0.00  0.00    +0.000 OA
ATOM     17  H   UNL     1     -10.213   2.155 131.491  0.00  0.00    +0.000 HD
ENDBRANCH  14  16
ENDBRANCH  13  14
ENDBRANCH   1  13
TORSDOF 9
ENDMDL
MODEL 8
REMARK VINA RESULT:      -4.9      1.739      1.930
REMARK  Name = Citric acid
REMARK  9 active torsions:
REMARK  status: ('A' for Active; 'I' for Inactive)
REMARK    1  A    between atoms: O_1  and  C_2
REMARK    2  A    between atoms: C_2  and  C_4
REMARK    3  A    between atoms: C_4  and  C_5
REMARK    4  A    between atoms: C_5  and  O_6
REMARK    5  A    between atoms: C_5  and  C_7
REMARK    6  A    between atoms: C_5  and  C_11
REMARK    7  A    between atoms: C_7  and  C_8
REMARK    8  A    between atoms: C_8  and  O_9
REMARK    9  A    between atoms: C_11  and  O_12
REMARK                            x       y       z     vdW  Elec       q    Type
REMARK                         _______ _______ _______ _____ _____    ______ ____
ROOT
ATOM      1  C   UNL     1     -11.413   7.059 129.411  0.00  0.00    +0.000 C 
ENDROOT
BRANCH   1   2
ATOM      2  O   UNL     1     -12.037   5.820 129.039  0.00  0.00    +0.000 OA
ATOM      3  H   UNL     1     -11.365   5.136 128.856  0.00  0.00    +0.000 HD
ENDBRANCH   1   2
BRANCH   1   4
ATOM      4  C   UNL     1     -12.529   7.769 130.259  0.00  0.00    +0.000 C 
ATOM      5  O   UNL     1     -13.165   7.204 131.143  0.00  0.00    +0.000 OA
BRANCH   4   6
ATOM      6  O   UNL     1     -12.779   9.071 130.001  0.00  0.00    +0.000 OA
ATOM      7  H   UNL     1     -13.693   9.382 129.910  0.00  0.00    +0.000 HD
ENDBRANCH   4   6
ENDBRANCH   1   4
BRANCH   1   8
ATOM      8  C   UNL     1     -11.072   7.830 128.106  0.00  0.00    +0.000 C 
BRANCH   8   9
ATOM      9  C   UNL     1     -10.930   7.006 126.837  0.00  0.00    +0.000 C 
ATOM     10  O   UNL     1      -9.872   6.601 126.407  0.00  0.00    +0.000 OA
BRANCH   9  11
ATOM     11  O   UNL     1     -12.073   6.680 126.205  0.00  0.00    +0.000 OA
ATOM     12  H   UNL     1     -12.693   7.384 125.948  0.00  0.00    +0.000 HD
ENDBRANCH   9  11
ENDBRANCH   8   9
ENDBRANCH   1   8
BRANCH   1  13
ATOM     13  C   UNL     1     -10.236   6.896 130.405  0.00  0.00    +0.000 C 
BRANCH  13  14
ATOM     14  C   UNL     1      -9.081   6.017 130.008  0.00  0.00    +0.000 C 
ATOM     15  O   UNL     1      -9.204   4.982 129.369  0.00  0.00    +0.000 OA
BRANCH  14  16
ATOM     16  O   UNL     1      -7.884   6.579 130.268  0.00  0.00    +0.000 OA
ATOM     17  H   UNL     1      -7.618   7.140 129.489  0.00  0.00    +0.000 HD
ENDBRANCH  14  16
ENDBRANCH  13  14
ENDBRANCH   1  13
TORSDOF 9
ENDMDL
MODEL 9
REMARK VINA RESULT:      -4.9      2.097      3.727
REMARK  Name = Citric acid
REMARK  9 active torsions:
REMARK  status: ('A' for Active; 'I' for Inactive)
REMARK    1  A    between atoms: O_1  and  C_2
REMARK    2  A    between atoms: C_2  and  C_4
REMARK    3  A    between atoms: C_4  and  C_5
REMARK    4  A    between atoms: C_5  and  O_6
REMARK    5  A    between atoms: C_5  and  C_7
REMARK    6  A    between atoms: C_5  and  C_11
REMARK    7  A    between atoms: C_7  and  C_8
REMARK    8  A    between atoms: C_8  and  O_9
REMARK    9  A    between atoms: C_11  and  O_12
REMARK                            x       y       z     vdW  Elec       q    Type
REMARK                         _______ _______ _______ _____ _____    ______ ____
ROOT
ATOM      1  C   UNL     1     -10.286   6.639 128.956  0.00  0.00    +0.000 C 
ENDROOT
BRANCH   1   2
ATOM      2  O   UNL     1      -9.380   5.634 128.473  0.00  0.00    +0.000 OA
ATOM      3  H   UNL     1      -8.642   5.503 129.100  0.00  0.00    +0.000 HD
ENDBRANCH   1   2
BRANCH   1   4
ATOM      4  C   UNL     1     -10.735   7.364 127.638  0.00  0.00    +0.000 C 
ATOM      5  O   UNL     1     -11.165   8.513 127.613  0.00  0.00    +0.000 OA
BRANCH   4   6
ATOM      6  O   UNL     1     -10.621   6.681 126.477  0.00  0.00    +0.000 OA
ATOM      7  H   UNL     1     -10.933   7.075 125.649  0.00  0.00    +0.000 HD
ENDBRANCH   4   6
ENDBRANCH   1   4
BRANCH   1   8
ATOM      8  C   UNL     1      -9.494   7.571 129.913  0.00  0.00    +0.000 C 
BRANCH   8   9
ATOM      9  C   UNL     1      -8.513   6.908 130.867  0.00  0.00    +0.000 C 
ATOM     10  O   UNL     1      -7.343   6.726 130.615  0.00  0.00    +0.000 OA
BRANCH   9  11
ATOM     11  O   UNL     1      -8.996   6.562 132.074  0.00  0.00    +0.000 OA
ATOM     12  H   UNL     1      -9.458   5.712 132.177  0.00  0.00    +0.000 HD
ENDBRANCH   9  11
ENDBRANCH   8   9
ENDBRANCH   1   8
BRANCH   1  13
ATOM     13  C   UNL     1     -11.604   6.068 129.537  0.00  0.00    +0.000 C 
BRANCH  13  14
ATOM     14  C   UNL     1     -12.224   6.761 130.719  0.00  0.00    +0.000 C 
ATOM     15  O   UNL     1     -12.946   7.743 130.629  0.00  0.00    +0.000 OA
BRANCH  14  16
ATOM     16  O   UNL     1     -12.054   6.081 131.871  0.00  0.00    +0.000 OA
ATOM     17  H   UNL     1     -11.110   5.769 131.922  0.00  0.00    +0.000 HD
ENDBRANCH  14  16
ENDBRANCH  13  14
ENDBRANCH   1  13
TORSDOF 9
ENDMDL
