MODEL 1
REMARK VINA RESULT:      -8.2      0.000      0.000
REMARK  Name = Clascoterone
REMARK  9 active torsions:
REMARK  status: ('A' for Active; 'I' for Inactive)
REMARK    1  A    between atoms: C_5  and  O_6
REMARK    2  A    between atoms: C_5  and  C_11
REMARK    3  A    between atoms: O_6  and  C_7
REMARK    4  A    between atoms: C_7  and  C_9
REMARK    5  A    between atoms: C_9  and  C_10
REMARK    6  A    between atoms: C_11  and  C_13
REMARK    7  A    between atoms: C_13  and  O_14
REMARK    8  A    between atoms: C_15  and  C_16
REMARK    9  A    between atoms: C_31  and  C_32
REMARK                            x       y       z     vdW  Elec       q    Type
REMARK                         _______ _______ _______ _____ _____    ______ ____
ROOT
ATOM      1  C   UNL     1      -6.798  -0.971 126.190  0.00  0.00    +0.000 C 
ATOM      2  C   UNL     1      -6.464   0.187 125.253  0.00  0.00    +0.000 C 
ATOM      3  C   UNL     1      -7.060  -0.217 123.887  0.00  0.00    +0.000 C 
ATOM      4  C   UNL     1      -7.870  -1.534 124.115  0.00  0.00    +0.000 C 
ATOM      5  C   UNL     1      -8.130  -1.528 125.668  0.00  0.00    +0.000 C 
ATOM      6  C   UNL     1      -9.296  -0.579 126.055  0.00  0.00    +0.000 C 
ATOM      7  C   UNL     1      -8.325  -2.914 126.303  0.00  0.00    +0.000 C 
ATOM      8  C   UNL     1      -8.220  -2.878 127.832  0.00  0.00    +0.000 C 
ATOM      9  C   UNL     1      -6.948  -2.174 128.368  0.00  0.00    +0.000 C 
ATOM     10  C   UNL     1      -6.686  -0.791 127.690  0.00  0.00    +0.000 C 
ATOM     11  C   UNL     1      -5.267  -0.324 128.054  0.00  0.00    +0.000 C 
ATOM     12  C   UNL     1      -5.065  -0.226 129.556  0.00  0.00    +0.000 C 
ATOM     13  C   UNL     1      -5.516  -1.460 130.301  0.00  0.00    +0.000 C 
ATOM     14  C   UNL     1      -4.724  -1.974 131.258  0.00  0.00    +0.000 C 
ATOM     15  C   UNL     1      -5.209  -3.040 132.164  0.00  0.00    +0.000 C 
ATOM     16  O   UNL     1      -4.467  -3.473 133.042  0.00  0.00    +0.000 OA
ATOM     17  C   UNL     1      -6.651  -3.457 132.045  0.00  0.00    +0.000 C 
ATOM     18  C   UNL     1      -7.073  -3.438 130.582  0.00  0.00    +0.000 C 
ATOM     19  C   UNL     1      -6.888  -2.040 129.928  0.00  0.00    +0.000 C 
ATOM     20  C   UNL     1      -7.997  -1.095 130.438  0.00  0.00    +0.000 C 
ENDROOT
BRANCH   4  21
ATOM     21  C   UNL     1      -9.209  -1.462 123.313  0.00  0.00    +0.000 C 
ATOM     22  O   UNL     1      -9.960  -2.436 123.186  0.00  0.00    +0.000 OA
BRANCH  21  23
ATOM     23  C   UNL     1      -9.541  -0.167 122.569  0.00  0.00    +0.000 C 
BRANCH  23  24
ATOM     24  O   UNL     1     -10.925   0.163 122.605  0.00  0.00    +0.000 OA
ATOM     25  H   UNL     1     -11.412  -0.644 122.349  0.00  0.00    +0.000 HD
ENDBRANCH  23  24
ENDBRANCH  21  23
ENDBRANCH   4  21
BRANCH   4  26
ATOM     26  O   UNL     1      -7.145  -2.744 123.678  0.00  0.00    +0.000 OA
BRANCH  26  27
ATOM     27  C   UNL     1      -5.889  -2.685 123.146  0.00  0.00    +0.000 C 
ATOM     28  O   UNL     1      -5.608  -2.277 122.022  0.00  0.00    +0.000 OA
BRANCH  27  29
ATOM     29  C   UNL     1      -4.800  -3.211 124.035  0.00  0.00    +0.000 C 
ATOM     30  C   UNL     1      -4.375  -4.588 123.504  0.00  0.00    +0.000 C 
ENDBRANCH  27  29
ENDBRANCH  26  27
ENDBRANCH   4  26
TORSDOF 6
ENDMDL
MODEL 2
REMARK VINA RESULT:      -7.7      1.860      2.875
REMARK  Name = Clascoterone
REMARK  9 active torsions:
REMARK  status: ('A' for Active; 'I' for Inactive)
REMARK    1  A    between atoms: C_5  and  O_6
REMARK    2  A    between atoms: C_5  and  C_11
REMARK    3  A    between atoms: O_6  and  C_7
REMARK    4  A    between atoms: C_7  and  C_9
REMARK    5  A    between atoms: C_9  and  C_10
REMARK    6  A    between atoms: C_11  and  C_13
REMARK    7  A    between atoms: C_13  and  O_14
REMARK    8  A    between atoms: C_15  and  C_16
REMARK    9  A    between atoms: C_31  and  C_32
REMARK                            x       y       z     vdW  Elec       q    Type
REMARK                         _______ _______ _______ _____ _____    ______ ____
ROOT
ATOM      1  C   UNL     1      -6.439  -1.077 126.317  0.00  0.00    +0.000 C 
ATOM      2  C   UNL     1      -5.638  -1.296 125.035  0.00  0.00    +0.000 C 
ATOM      3  C   UNL     1      -6.461  -0.606 123.926  0.00  0.00    +0.000 C 
ATOM      4  C   UNL     1      -7.642   0.138 124.629  0.00  0.00    +0.000 C 
ATOM      5  C   UNL     1      -7.142   0.273 126.116  0.00  0.00    +0.000 C 
ATOM      6  C   UNL     1      -6.127   1.435 126.282  0.00  0.00    +0.000 C 
ATOM      7  C   UNL     1      -8.255   0.369 127.172  0.00  0.00    +0.000 C 
ATOM      8  C   UNL     1      -7.732   0.143 128.595  0.00  0.00    +0.000 C 
ATOM      9  C   UNL     1      -6.886  -1.143 128.768  0.00  0.00    +0.000 C 
ATOM     10  C   UNL     1      -5.789  -1.303 127.667  0.00  0.00    +0.000 C 
ATOM     11  C   UNL     1      -5.221  -2.730 127.738  0.00  0.00    +0.000 C 
ATOM     12  C   UNL     1      -4.649  -3.048 129.108  0.00  0.00    +0.000 C 
ATOM     13  C   UNL     1      -5.584  -2.701 130.242  0.00  0.00    +0.000 C 
ATOM     14  C   UNL     1      -5.760  -3.584 131.241  0.00  0.00    +0.000 C 
ATOM     15  C   UNL     1      -6.485  -3.210 132.477  0.00  0.00    +0.000 C 
ATOM     16  O   UNL     1      -6.610  -4.034 133.378  0.00  0.00    +0.000 OA
ATOM     17  C   UNL     1      -6.927  -1.778 132.622  0.00  0.00    +0.000 C 
ATOM     18  C   UNL     1      -7.378  -1.239 131.270  0.00  0.00    +0.000 C 
ATOM     19  C   UNL     1      -6.261  -1.324 130.193  0.00  0.00    +0.000 C 
ATOM     20  C   UNL     1      -5.210  -0.228 130.471  0.00  0.00    +0.000 C 
ENDROOT
BRANCH   4  21
ATOM     21  C   UNL     1      -7.838   1.539 123.964  0.00  0.00    +0.000 C 
ATOM     22  O   UNL     1      -7.102   1.954 123.061  0.00  0.00    +0.000 OA
BRANCH  21  23
ATOM     23  C   UNL     1      -8.914   2.467 124.532  0.00  0.00    +0.000 C 
BRANCH  23  24
ATOM     24  O   UNL     1     -10.237   1.976 124.340  0.00  0.00    +0.000 OA
ATOM     25  H   UNL     1     -10.178   1.001 124.343  0.00  0.00    +0.000 HD
ENDBRANCH  23  24
ENDBRANCH  21  23
ENDBRANCH   4  21
BRANCH   4  26
ATOM     26  O   UNL     1      -8.923  -0.590 124.537  0.00  0.00    +0.000 OA
BRANCH  26  27
ATOM     27  C   UNL     1      -9.348  -1.167 123.376  0.00  0.00    +0.000 C 
ATOM     28  O   UNL     1      -9.956  -0.594 122.474  0.00  0.00    +0.000 OA
BRANCH  27  29
ATOM     29  C   UNL     1      -9.059  -2.635 123.255  0.00  0.00    +0.000 C 
ATOM     30  C   UNL     1      -9.125  -3.250 124.660  0.00  0.00    +0.000 C 
ENDBRANCH  27  29
ENDBRANCH  26  27
ENDBRANCH   4  26
TORSDOF 6
ENDMDL
MODEL 3
REMARK VINA RESULT:      -7.7      2.591      3.685
REMARK  Name = Clascoterone
REMARK  9 active torsions:
REMARK  status: ('A' for Active; 'I' for Inactive)
REMARK    1  A    between atoms: C_5  and  O_6
REMARK    2  A    between atoms: C_5  and  C_11
REMARK    3  A    between atoms: O_6  and  C_7
REMARK    4  A    between atoms: C_7  and  C_9
REMARK    5  A    between atoms: C_9  and  C_10
REMARK    6  A    between atoms: C_11  and  C_13
REMARK    7  A    between atoms: C_13  and  O_14
REMARK    8  A    between atoms: C_15  and  C_16
REMARK    9  A    between atoms: C_31  and  C_32
REMARK                            x       y       z     vdW  Elec       q    Type
REMARK                         _______ _______ _______ _____ _____    ______ ____
ROOT
ATOM      1  C   UNL     1      -7.546   0.624 127.578  0.00  0.00    +0.000 C 
ATOM      2  C   UNL     1      -8.420   1.874 127.509  0.00  0.00    +0.000 C 
ATOM      3  C   UNL     1      -8.108   2.506 126.136  0.00  0.00    +0.000 C 
ATOM      4  C   UNL     1      -7.176   1.509 125.375  0.00  0.00    +0.000 C 
ATOM      5  C   UNL     1      -7.427   0.146 126.124  0.00  0.00    +0.000 C 
ATOM      6  C   UNL     1      -8.749  -0.527 125.671  0.00  0.00    +0.000 C 
ATOM      7  C   UNL     1      -6.260  -0.854 126.067  0.00  0.00    +0.000 C 
ATOM      8  C   UNL     1      -6.413  -1.989 127.086  0.00  0.00    +0.000 C 
ATOM      9  C   UNL     1      -6.692  -1.514 128.534  0.00  0.00    +0.000 C 
ATOM     10  C   UNL     1      -7.827  -0.444 128.616  0.00  0.00    +0.000 C 
ATOM     11  C   UNL     1      -7.817   0.181 130.021  0.00  0.00    +0.000 C 
ATOM     12  C   UNL     1      -7.991  -0.862 131.110  0.00  0.00    +0.000 C 
ATOM     13  C   UNL     1      -7.066  -2.046 130.957  0.00  0.00    +0.000 C 
ATOM     14  C   UNL     1      -6.413  -2.511 132.036  0.00  0.00    +0.000 C 
ATOM     15  C   UNL     1      -5.672  -3.793 131.991  0.00  0.00    +0.000 C 
ATOM     16  O   UNL     1      -5.103  -4.200 133.001  0.00  0.00    +0.000 OA
ATOM     17  C   UNL     1      -5.762  -4.608 130.728  0.00  0.00    +0.000 C 
ATOM     18  C   UNL     1      -5.776  -3.683 129.519  0.00  0.00    +0.000 C 
ATOM     19  C   UNL     1      -6.953  -2.669 129.559  0.00  0.00    +0.000 C 
ATOM     20  C   UNL     1      -8.266  -3.409 129.223  0.00  0.00    +0.000 C 
ENDROOT
BRANCH   4  21
ATOM     21  C   UNL     1      -7.618   1.427 123.879  0.00  0.00    +0.000 C 
ATOM     22  O   UNL     1      -7.034   0.717 123.052  0.00  0.00    +0.000 OA
BRANCH  21  23
ATOM     23  C   UNL     1      -8.747   2.344 123.404  0.00  0.00    +0.000 C 
BRANCH  23  24
ATOM     24  O   UNL     1      -8.286   3.607 122.938  0.00  0.00    +0.000 OA
ATOM     25  H   UNL     1      -7.389   3.464 122.579  0.00  0.00    +0.000 HD
ENDBRANCH  23  24
ENDBRANCH  21  23
ENDBRANCH   4  21
BRANCH   4  26
ATOM     26  O   UNL     1      -5.754   1.906 125.406  0.00  0.00    +0.000 OA
BRANCH  26  27
ATOM     27  C   UNL     1      -5.363   3.212 125.344  0.00  0.00    +0.000 C 
ATOM     28  O   UNL     1      -5.551   3.970 124.395  0.00  0.00    +0.000 OA
BRANCH  27  29
ATOM     29  C   UNL     1      -4.612   3.705 126.547  0.00  0.00    +0.000 C 
ATOM     30  C   UNL     1      -4.298   2.497 127.441  0.00  0.00    +0.000 C 
ENDBRANCH  27  29
ENDBRANCH  26  27
ENDBRANCH   4  26
TORSDOF 6
ENDMDL
MODEL 4
REMARK VINA RESULT:      -7.6      2.622      4.513
REMARK  Name = Clascoterone
REMARK  9 active torsions:
REMARK  status: ('A' for Active; 'I' for Inactive)
REMARK    1  A    between atoms: C_5  and  O_6
REMARK    2  A    between atoms: C_5  and  C_11
REMARK    3  A    between atoms: O_6  and  C_7
REMARK    4  A    between atoms: C_7  and  C_9
REMARK    5  A    between atoms: C_9  and  C_10
REMARK    6  A    between atoms: C_11  and  C_13
REMARK    7  A    between atoms: C_13  and  O_14
REMARK    8  A    between atoms: C_15  and  C_16
REMARK    9  A    between atoms: C_31  and  C_32
REMARK                            x       y       z     vdW  Elec       q    Type
REMARK                         _______ _______ _______ _____ _____    ______ ____
ROOT
ATOM      1  C   UNL     1      -6.148  -2.418 129.467  0.00  0.00    +0.000 C 
ATOM      2  C   UNL     1      -5.187  -2.544 128.288  0.00  0.00    +0.000 C 
ATOM      3  C   UNL     1      -5.800  -1.667 127.175  0.00  0.00    +0.000 C 
ATOM      4  C   UNL     1      -7.022  -0.922 127.802  0.00  0.00    +0.000 C 
ATOM      5  C   UNL     1      -6.733  -1.003 129.348  0.00  0.00    +0.000 C 
ATOM      6  C   UNL     1      -5.684   0.049 129.796  0.00  0.00    +0.000 C 
ATOM      7  C   UNL     1      -7.978  -0.948 130.249  0.00  0.00    +0.000 C 
ATOM      8  C   UNL     1      -7.678  -1.380 131.689  0.00  0.00    +0.000 C 
ATOM      9  C   UNL     1      -6.943  -2.739 131.807  0.00  0.00    +0.000 C 
ATOM     10  C   UNL     1      -5.712  -2.851 130.852  0.00  0.00    +0.000 C 
ATOM     11  C   UNL     1      -5.246  -4.316 130.816  0.00  0.00    +0.000 C 
ATOM     12  C   UNL     1      -4.896  -4.838 132.198  0.00  0.00    +0.000 C 
ATOM     13  C   UNL     1      -5.961  -4.556 133.232  0.00  0.00    +0.000 C 
ATOM     14  C   UNL     1      -6.330  -5.535 134.076  0.00  0.00    +0.000 C 
ATOM     15  C   UNL     1      -7.200  -5.256 135.241  0.00  0.00    +0.000 C 
ATOM     16  O   UNL     1      -7.502  -6.169 136.004  0.00  0.00    +0.000 OA
ATOM     17  C   UNL     1      -7.572  -3.821 135.507  0.00  0.00    +0.000 C 
ATOM     18  C   UNL     1      -7.793  -3.093 134.188  0.00  0.00    +0.000 C 
ATOM     19  C   UNL     1      -6.541  -3.135 133.269  0.00  0.00    +0.000 C 
ATOM     20  C   UNL     1      -5.476  -2.164 133.823  0.00  0.00    +0.000 C 
ENDROOT
BRANCH   4  21
ATOM     21  C   UNL     1      -7.037   0.558 127.302  0.00  0.00    +0.000 C 
ATOM     22  O   UNL     1      -6.047   1.098 126.796  0.00  0.00    +0.000 OA
BRANCH  21  23
ATOM     23  C   UNL     1      -8.294   1.395 127.550  0.00  0.00    +0.000 C 
BRANCH  23  24
ATOM     24  O   UNL     1      -9.298   1.208 126.559  0.00  0.00    +0.000 OA
ATOM     25  H   UNL     1     -10.063   1.753 126.827  0.00  0.00    +0.000 HD
ENDBRANCH  23  24
ENDBRANCH  21  23
ENDBRANCH   4  21
BRANCH   4  26
ATOM     26  O   UNL     1      -8.318  -1.534 127.447  0.00  0.00    +0.000 OA
BRANCH  26  27
ATOM     27  C   UNL     1      -8.525  -2.148 126.246  0.00  0.00    +0.000 C 
ATOM     28  O   UNL     1      -8.639  -1.580 125.162  0.00  0.00    +0.000 OA
BRANCH  27  29
ATOM     29  C   UNL     1      -8.657  -3.643 126.314  0.00  0.00    +0.000 C 
ATOM     30  C   UNL     1      -9.010  -4.024 127.759  0.00  0.00    +0.000 C 
ENDBRANCH  27  29
ENDBRANCH  26  27
ENDBRANCH   4  26
TORSDOF 6
ENDMDL
MODEL 5
REMARK VINA RESULT:      -7.5      3.598      5.064
REMARK  Name = Clascoterone
REMARK  9 active torsions:
REMARK  status: ('A' for Active; 'I' for Inactive)
REMARK    1  A    between atoms: C_5  and  O_6
REMARK    2  A    between atoms: C_5  and  C_11
REMARK    3  A    between atoms: O_6  and  C_7
REMARK    4  A    between atoms: C_7  and  C_9
REMARK    5  A    between atoms: C_9  and  C_10
REMARK    6  A    between atoms: C_11  and  C_13
REMARK    7  A    between atoms: C_13  and  O_14
REMARK    8  A    between atoms: C_15  and  C_16
REMARK    9  A    between atoms: C_31  and  C_32
REMARK                            x       y       z     vdW  Elec       q    Type
REMARK                         _______ _______ _______ _____ _____    ______ ____
ROOT
ATOM      1  C   UNL     1      -6.248   1.216 125.391  0.00  0.00    +0.000 C 
ATOM      2  C   UNL     1      -7.105   1.198 124.128  0.00  0.00    +0.000 C 
ATOM      3  C   UNL     1      -7.343  -0.298 123.825  0.00  0.00    +0.000 C 
ATOM      4  C   UNL     1      -6.749  -1.105 125.024  0.00  0.00    +0.000 C 
ATOM      5  C   UNL     1      -6.677  -0.033 126.175  0.00  0.00    +0.000 C 
ATOM      6  C   UNL     1      -8.061   0.199 126.837  0.00  0.00    +0.000 C 
ATOM      7  C   UNL     1      -5.601  -0.292 127.242  0.00  0.00    +0.000 C 
ATOM      8  C   UNL     1      -5.339   0.937 128.120  0.00  0.00    +0.000 C 
ATOM      9  C   UNL     1      -5.060   2.239 127.329  0.00  0.00    +0.000 C 
ATOM     10  C   UNL     1      -6.100   2.494 126.190  0.00  0.00    +0.000 C 
ATOM     11  C   UNL     1      -5.573   3.617 125.282  0.00  0.00    +0.000 C 
ATOM     12  C   UNL     1      -5.306   4.897 126.055  0.00  0.00    +0.000 C 
ATOM     13  C   UNL     1      -4.486   4.681 127.305  0.00  0.00    +0.000 C 
ATOM     14  C   UNL     1      -3.467   5.516 127.572  0.00  0.00    +0.000 C 
ATOM     15  C   UNL     1      -2.776   5.488 128.882  0.00  0.00    +0.000 C 
ATOM     16  O   UNL     1      -1.862   6.278 129.102  0.00  0.00    +0.000 OA
ATOM     17  C   UNL     1      -3.320   4.565 129.940  0.00  0.00    +0.000 C 
ATOM     18  C   UNL     1      -3.804   3.273 129.295  0.00  0.00    +0.000 C 
ATOM     19  C   UNL     1      -4.897   3.518 128.218  0.00  0.00    +0.000 C 
ATOM     20  C   UNL     1      -6.227   3.867 128.921  0.00  0.00    +0.000 C 
ENDROOT
BRANCH   4  21
ATOM     21  C   UNL     1      -7.721  -2.272 125.393  0.00  0.00    +0.000 C 
ATOM     22  O   UNL     1      -7.532  -3.011 126.366  0.00  0.00    +0.000 OA
BRANCH  21  23
ATOM     23  C   UNL     1      -8.886  -2.573 124.448  0.00  0.00    +0.000 C 
BRANCH  23  24
ATOM     24  O   UNL     1     -10.090  -2.905 125.130  0.00  0.00    +0.000 OA
ATOM     25  H   UNL     1     -10.622  -2.086 125.176  0.00  0.00    +0.000 HD
ENDBRANCH  23  24
ENDBRANCH  21  23
ENDBRANCH   4  21
BRANCH   4  26
ATOM     26  O   UNL     1      -5.427  -1.693 124.728  0.00  0.00    +0.000 OA
BRANCH  26  27
ATOM     27  C   UNL     1      -5.267  -2.699 123.820  0.00  0.00    +0.000 C 
ATOM     28  O   UNL     1      -5.449  -2.604 122.608  0.00  0.00    +0.000 OA
BRANCH  27  29
ATOM     29  C   UNL     1      -4.871  -4.023 124.407  0.00  0.00    +0.000 C 
ATOM     30  C   UNL     1      -4.124  -4.818 123.326  0.00  0.00    +0.000 C 
ENDBRANCH  27  29
ENDBRANCH  26  27
ENDBRANCH   4  26
TORSDOF 6
ENDMDL
MODEL 6
REMARK VINA RESULT:      -7.5      1.755      7.812
REMARK  Name = Clascoterone
REMARK  9 active torsions:
REMARK  status: ('A' for Active; 'I' for Inactive)
REMARK    1  A    between atoms: C_5  and  O_6
REMARK    2  A    between atoms: C_5  and  C_11
REMARK    3  A    between atoms: O_6  and  C_7
REMARK    4  A    between atoms: C_7  and  C_9
REMARK    5  A    between atoms: C_9  and  C_10
REMARK    6  A    between atoms: C_11  and  C_13
REMARK    7  A    between atoms: C_13  and  O_14
REMARK    8  A    between atoms: C_15  and  C_16
REMARK    9  A    between atoms: C_31  and  C_32
REMARK                            x       y       z     vdW  Elec       q    Type
REMARK                         _______ _______ _______ _____ _____    ______ ____
ROOT
ATOM      1  C   UNL     1      -6.025  -1.145 128.936  0.00  0.00    +0.000 C 
ATOM      2  C   UNL     1      -4.873  -0.394 129.598  0.00  0.00    +0.000 C 
ATOM      3  C   UNL     1      -4.910  -0.829 131.079  0.00  0.00    +0.000 C 
ATOM      4  C   UNL     1      -5.990  -1.951 131.198  0.00  0.00    +0.000 C 
ATOM      5  C   UNL     1      -6.138  -2.462 129.716  0.00  0.00    +0.000 C 
ATOM      6  C   UNL     1      -4.984  -3.421 129.317  0.00  0.00    +0.000 C 
ATOM      7  C   UNL     1      -7.502  -3.081 129.372  0.00  0.00    +0.000 C 
ATOM      8  C   UNL     1      -7.712  -3.231 127.861  0.00  0.00    +0.000 C 
ATOM      9  C   UNL     1      -7.446  -1.939 127.048  0.00  0.00    +0.000 C 
ATOM     10  C   UNL     1      -6.097  -1.249 127.426  0.00  0.00    +0.000 C 
ATOM     11  C   UNL     1      -6.070   0.157 126.805  0.00  0.00    +0.000 C 
ATOM     12  C   UNL     1      -6.243   0.119 125.297  0.00  0.00    +0.000 C 
ATOM     13  C   UNL     1      -7.411  -0.728 124.851  0.00  0.00    +0.000 C 
ATOM     14  C   UNL     1      -8.244  -0.253 123.908  0.00  0.00    +0.000 C 
ATOM     15  C   UNL     1      -9.266  -1.120 123.279  0.00  0.00    +0.000 C 
ATOM     16  O   UNL     1      -9.997  -0.660 122.406  0.00  0.00    +0.000 OA
ATOM     17  C   UNL     1      -9.273  -2.578 123.655  0.00  0.00    +0.000 C 
ATOM     18  C   UNL     1      -8.937  -2.730 125.133  0.00  0.00    +0.000 C 
ATOM     19  C   UNL     1      -7.557  -2.114 125.495  0.00  0.00    +0.000 C 
ATOM     20  C   UNL     1      -6.438  -3.040 124.970  0.00  0.00    +0.000 C 
ENDROOT
BRANCH   4  21
ATOM     21  C   UNL     1      -5.460  -3.080 132.140  0.00  0.00    +0.000 C 
ATOM     22  O   UNL     1      -6.147  -4.059 132.456  0.00  0.00    +0.000 OA
BRANCH  21  23
ATOM     23  C   UNL     1      -4.079  -2.907 132.775  0.00  0.00    +0.000 C 
BRANCH  23  24
ATOM     24  O   UNL     1      -3.127  -3.861 132.320  0.00  0.00    +0.000 OA
ATOM     25  H   UNL     1      -3.564  -4.381 131.617  0.00  0.00    +0.000 HD
ENDBRANCH  23  24
ENDBRANCH  21  23
ENDBRANCH   4  21
BRANCH   4  26
ATOM     26  O   UNL     1      -7.271  -1.467 131.749  0.00  0.00    +0.000 OA
BRANCH  26  27
ATOM     27  C   UNL     1      -7.329  -0.491 132.702  0.00  0.00    +0.000 C 
ATOM     28  O   UNL     1      -7.008  -0.623 133.881  0.00  0.00    +0.000 OA
BRANCH  27  29
ATOM     29  C   UNL     1      -7.873   0.825 132.227  0.00  0.00    +0.000 C 
ATOM     30  C   UNL     1      -8.632   0.581 130.915  0.00  0.00    +0.000 C 
ENDBRANCH  27  29
ENDBRANCH  26  27
ENDBRANCH   4  26
TORSDOF 6
ENDMDL
MODEL 7
REMARK VINA RESULT:      -7.4      5.487      8.470
REMARK  Name = Clascoterone
REMARK  9 active torsions:
REMARK  status: ('A' for Active; 'I' for Inactive)
REMARK    1  A    between atoms: C_5  and  O_6
REMARK    2  A    between atoms: C_5  and  C_11
REMARK    3  A    between atoms: O_6  and  C_7
REMARK    4  A    between atoms: C_7  and  C_9
REMARK    5  A    between atoms: C_9  and  C_10
REMARK    6  A    between atoms: C_11  and  C_13
REMARK    7  A    between atoms: C_13  and  O_14
REMARK    8  A    between atoms: C_15  and  C_16
REMARK    9  A    between atoms: C_31  and  C_32
REMARK                            x       y       z     vdW  Elec       q    Type
REMARK                         _______ _______ _______ _____ _____    ______ ____
ROOT
ATOM      1  C   UNL     1      -8.169   2.998 129.576  0.00  0.00    +0.000 C 
ATOM      2  C   UNL     1      -7.864   4.395 129.040  0.00  0.00    +0.000 C 
ATOM      3  C   UNL     1      -8.343   5.362 130.145  0.00  0.00    +0.000 C 
ATOM      4  C   UNL     1      -8.765   4.484 131.367  0.00  0.00    +0.000 C 
ATOM      5  C   UNL     1      -8.024   3.120 131.100  0.00  0.00    +0.000 C 
ATOM      6  C   UNL     1      -6.524   3.191 131.491  0.00  0.00    +0.000 C 
ATOM      7  C   UNL     1      -8.690   1.882 131.722  0.00  0.00    +0.000 C 
ATOM      8  C   UNL     1      -8.142   0.572 131.146  0.00  0.00    +0.000 C 
ATOM      9  C   UNL     1      -8.140   0.506 129.598  0.00  0.00    +0.000 C 
ATOM     10  C   UNL     1      -7.531   1.783 128.935  0.00  0.00    +0.000 C 
ATOM     11  C   UNL     1      -7.851   1.759 127.431  0.00  0.00    +0.000 C 
ATOM     12  C   UNL     1      -7.323   0.506 126.755  0.00  0.00    +0.000 C 
ATOM     13  C   UNL     1      -7.691  -0.765 127.482  0.00  0.00    +0.000 C 
ATOM     14  C   UNL     1      -8.151  -1.814 126.777  0.00  0.00    +0.000 C 
ATOM     15  C   UNL     1      -8.316  -3.146 127.402  0.00  0.00    +0.000 C 
ATOM     16  O   UNL     1      -8.719  -4.088 126.725  0.00  0.00    +0.000 OA
ATOM     17  C   UNL     1      -7.853  -3.312 128.826  0.00  0.00    +0.000 C 
ATOM     18  C   UNL     1      -8.156  -2.046 129.616  0.00  0.00    +0.000 C 
ATOM     19  C   UNL     1      -7.484  -0.786 129.003  0.00  0.00    +0.000 C 
ATOM     20  C   UNL     1      -5.972  -0.822 129.311  0.00  0.00    +0.000 C 
ENDROOT
BRANCH   4  21
ATOM     21  C   UNL     1      -8.261   5.157 132.685  0.00  0.00    +0.000 C 
ATOM     22  O   UNL     1      -7.576   6.186 132.684  0.00  0.00    +0.000 OA
BRANCH  21  23
ATOM     23  C   UNL     1      -8.540   4.450 134.013  0.00  0.00    +0.000 C 
BRANCH  23  24
ATOM     24  O   UNL     1      -9.896   4.042 134.158  0.00  0.00    +0.000 OA
ATOM     25  H   UNL     1     -10.432   4.647 133.610  0.00  0.00    +0.000 HD
ENDBRANCH  23  24
ENDBRANCH  21  23
ENDBRANCH   4  21
BRANCH   4  26
ATOM     26  O   UNL     1     -10.227   4.309 131.478  0.00  0.00    +0.000 OA
BRANCH  26  27
ATOM     27  C   UNL     1     -11.107   5.150 130.860  0.00  0.00    +0.000 C 
ATOM     28  O   UNL     1     -11.587   4.985 129.741  0.00  0.00    +0.000 OA
BRANCH  27  29
ATOM     29  C   UNL     1     -11.457   6.384 131.640  0.00  0.00    +0.000 C 
ATOM     30  C   UNL     1     -12.483   7.186 130.826  0.00  0.00    +0.000 C 
ENDBRANCH  27  29
ENDBRANCH  26  27
ENDBRANCH   4  26
TORSDOF 6
ENDMDL
MODEL 8
REMARK VINA RESULT:      -7.3      1.882      7.545
REMARK  Name = Clascoterone
REMARK  9 active torsions:
REMARK  status: ('A' for Active; 'I' for Inactive)
REMARK    1  A    between atoms: C_5  and  O_6
REMARK    2  A    between atoms: C_5  and  C_11
REMARK    3  A    between atoms: O_6  and  C_7
REMARK    4  A    between atoms: C_7  and  C_9
REMARK    5  A    between atoms: C_9  and  C_10
REMARK    6  A    between atoms: C_11  and  C_13
REMARK    7  A    between atoms: C_13  and  O_14
REMARK    8  A    between atoms: C_15  and  C_16
REMARK    9  A    between atoms: C_31  and  C_32
REMARK                            x       y       z     vdW  Elec       q    Type
REMARK                         _______ _______ _______ _____ _____    ______ ____
ROOT
ATOM      1  C   UNL     1      -7.094  -2.103 129.489  0.00  0.00    +0.000 C 
ATOM      2  C   UNL     1      -7.583  -2.913 130.686  0.00  0.00    +0.000 C 
ATOM      3  C   UNL     1      -6.650  -2.512 131.850  0.00  0.00    +0.000 C 
ATOM      4  C   UNL     1      -5.744  -1.350 131.328  0.00  0.00    +0.000 C 
ATOM      5  C   UNL     1      -6.548  -0.800 130.090  0.00  0.00    +0.000 C 
ATOM      6  C   UNL     1      -7.718   0.121 130.525  0.00  0.00    +0.000 C 
ATOM      7  C   UNL     1      -5.694  -0.120 129.007  0.00  0.00    +0.000 C 
ATOM      8  C   UNL     1      -6.460   0.073 127.694  0.00  0.00    +0.000 C 
ATOM      9  C   UNL     1      -7.149  -1.209 127.162  0.00  0.00    +0.000 C 
ATOM     10  C   UNL     1      -7.968  -1.961 128.259  0.00  0.00    +0.000 C 
ATOM     11  C   UNL     1      -8.348  -3.352 127.727  0.00  0.00    +0.000 C 
ATOM     12  C   UNL     1      -9.139  -3.273 126.433  0.00  0.00    +0.000 C 
ATOM     13  C   UNL     1      -8.507  -2.370 125.401  0.00  0.00    +0.000 C 
ATOM     14  C   UNL     1      -8.423  -2.791 124.126  0.00  0.00    +0.000 C 
ATOM     15  C   UNL     1      -8.019  -1.870 123.039  0.00  0.00    +0.000 C 
ATOM     16  O   UNL     1      -7.972  -2.280 121.883  0.00  0.00    +0.000 OA
ATOM     17  C   UNL     1      -7.807  -0.421 123.393  0.00  0.00    +0.000 C 
ATOM     18  C   UNL     1      -7.165  -0.317 124.771  0.00  0.00    +0.000 C 
ATOM     19  C   UNL     1      -8.020  -0.995 125.878  0.00  0.00    +0.000 C 
ATOM     20  C   UNL     1      -9.240  -0.101 126.189  0.00  0.00    +0.000 C 
ENDROOT
BRANCH   4  21
ATOM     21  C   UNL     1      -5.602  -0.265 132.443  0.00  0.00    +0.000 C 
ATOM     22  O   UNL     1      -4.897   0.741 132.304  0.00  0.00    +0.000 OA
BRANCH  21  23
ATOM     23  C   UNL     1      -6.276  -0.519 133.793  0.00  0.00    +0.000 C 
BRANCH  23  24
ATOM     24  O   UNL     1      -6.344   0.642 134.613  0.00  0.00    +0.000 OA
ATOM     25  H   UNL     1      -7.190   0.594 135.099  0.00  0.00    +0.000 HD
ENDBRANCH  23  24
ENDBRANCH  21  23
ENDBRANCH   4  21
BRANCH   4  26
ATOM     26  O   UNL     1      -4.387  -1.796 130.955  0.00  0.00    +0.000 OA
BRANCH  26  27
ATOM     27  C   UNL     1      -3.902  -3.022 131.310  0.00  0.00    +0.000 C 
ATOM     28  O   UNL     1      -3.347  -3.290 132.374  0.00  0.00    +0.000 OA
BRANCH  27  29
ATOM     29  C   UNL     1      -4.049  -4.089 130.264  0.00  0.00    +0.000 C 
ATOM     30  C   UNL     1      -3.747  -3.459 128.896  0.00  0.00    +0.000 C 
ENDBRANCH  27  29
ENDBRANCH  26  27
ENDBRANCH   4  26
TORSDOF 6
ENDMDL
MODEL 9
REMARK VINA RESULT:      -7.3      1.755      3.036
REMARK  Name = Clascoterone
REMARK  9 active torsions:
REMARK  status: ('A' for Active; 'I' for Inactive)
REMARK    1  A    between atoms: C_5  and  O_6
REMARK    2  A    between atoms: C_5  and  C_11
REMARK    3  A    between atoms: O_6  and  C_7
REMARK    4  A    between atoms: C_7  and  C_9
REMARK    5  A    between atoms: C_9  and  C_10
REMARK    6  A    between atoms: C_11  and  C_13
REMARK    7  A    between atoms: C_13  and  O_14
REMARK    8  A    between atoms: C_15  and  C_16
REMARK    9  A    between atoms: C_31  and  C_32
REMARK                            x       y       z     vdW  Elec       q    Type
REMARK                         _______ _______ _______ _____ _____    ______ ____
ROOT
ATOM      1  C   UNL     1      -7.676  -0.286 127.091  0.00  0.00    +0.000 C 
ATOM      2  C   UNL     1      -8.901   0.614 126.945  0.00  0.00    +0.000 C 
ATOM      3  C   UNL     1      -9.075   0.810 125.423  0.00  0.00    +0.000 C 
ATOM      4  C   UNL     1      -8.036  -0.122 124.722  0.00  0.00    +0.000 C 
ATOM      5  C   UNL     1      -7.689  -1.176 125.840  0.00  0.00    +0.000 C 
ATOM      6  C   UNL     1      -8.787  -2.264 125.969  0.00  0.00    +0.000 C 
ATOM      7  C   UNL     1      -6.298  -1.818 125.723  0.00  0.00    +0.000 C 
ATOM      8  C   UNL     1      -5.881  -2.549 127.004  0.00  0.00    +0.000 C 
ATOM      9  C   UNL     1      -6.016  -1.703 128.295  0.00  0.00    +0.000 C 
ATOM     10  C   UNL     1      -7.397  -0.981 128.408  0.00  0.00    +0.000 C 
ATOM     11  C   UNL     1      -7.320   0.058 129.539  0.00  0.00    +0.000 C 
ATOM     12  C   UNL     1      -6.939  -0.572 130.867  0.00  0.00    +0.000 C 
ATOM     13  C   UNL     1      -5.731  -1.473 130.777  0.00  0.00    +0.000 C 
ATOM     14  C   UNL     1      -4.770  -1.377 131.712  0.00  0.00    +0.000 C 
ATOM     15  C   UNL     1      -3.680  -2.376 131.799  0.00  0.00    +0.000 C 
ATOM     16  O   UNL     1      -2.830  -2.271 132.678  0.00  0.00    +0.000 OA
ATOM     17  C   UNL     1      -3.743  -3.561 130.871  0.00  0.00    +0.000 C 
ATOM     18  C   UNL     1      -4.283  -3.125 129.516  0.00  0.00    +0.000 C 
ATOM     19  C   UNL     1      -5.693  -2.479 129.617  0.00  0.00    +0.000 C 
ATOM     20  C   UNL     1      -6.738  -3.587 129.869  0.00  0.00    +0.000 C 
ENDROOT
BRANCH   4  21
ATOM     21  C   UNL     1      -8.705  -0.804 123.485  0.00  0.00    +0.000 C 
ATOM     22  O   UNL     1      -9.886  -0.605 123.176  0.00  0.00    +0.000 OA
BRANCH  21  23
ATOM     23  C   UNL     1      -7.895  -1.836 122.698  0.00  0.00    +0.000 C 
BRANCH  23  24
ATOM     24  O   UNL     1      -6.570  -1.406 122.407  0.00  0.00    +0.000 OA
ATOM     25  H   UNL     1      -6.646  -0.537 121.967  0.00  0.00    +0.000 HD
ENDBRANCH  23  24
ENDBRANCH  21  23
ENDBRANCH   4  21
BRANCH   4  26
ATOM     26  O   UNL     1      -6.838   0.599 124.247  0.00  0.00    +0.000 OA
BRANCH  26  27
ATOM     27  C   UNL     1      -6.890   1.898 123.833  0.00  0.00    +0.000 C 
ATOM     28  O   UNL     1      -7.382   2.294 122.779  0.00  0.00    +0.000 OA
BRANCH  27  29
ATOM     29  C   UNL     1      -6.243   2.885 124.762  0.00  0.00    +0.000 C 
ATOM     30  C   UNL     1      -5.366   2.103 125.752  0.00  0.00    +0.000 C 
ENDBRANCH  27  29
ENDBRANCH  26  27
ENDBRANCH   4  26
TORSDOF 6
ENDMDL
