MODEL 1
REMARK VINA RESULT:      -6.2      0.000      0.000
REMARK  Name = Clavulanic acid
REMARK  4 active torsions:
REMARK  status: ('A' for Active; 'I' for Inactive)
REMARK    1  A    between atoms: C_7  and  C_8
REMARK    2  A    between atoms: C_8  and  O_9
REMARK    3  A    between atoms: C_13  and  C_14
REMARK    4  A    between atoms: C_14  and  O_15
REMARK                            x       y       z     vdW  Elec       q    Type
REMARK                         _______ _______ _______ _____ _____    ______ ____
ROOT
ATOM      1  C   UNL     1     -12.119   6.641 130.484  0.00  0.00    +0.000 C 
ATOM      2  C   UNL     1     -10.892   6.706 131.410  0.00  0.00    +0.000 C 
ATOM      3  C   UNL     1     -10.117   7.013 130.125  0.00  0.00    +0.000 C 
ATOM      4  O   UNL     1      -9.036   7.492 129.853  0.00  0.00    +0.000 OA
ATOM      5  N   UNL     1     -11.197   6.718 129.339  0.00  0.00    +0.000 N 
ATOM      6  C   UNL     1     -11.704   7.724 128.422  0.00  0.00    +0.000 C 
ATOM      7  C   UNL     1     -12.522   8.564 129.392  0.00  0.00    +0.000 C 
ATOM      8  O   UNL     1     -13.012   7.803 130.464  0.00  0.00    +0.000 OA
ATOM      9  C   UNL     1     -12.676   9.901 129.296  0.00  0.00    +0.000 C 
ENDROOT
BRANCH   6  10
ATOM     10  C   UNL     1     -12.609   7.035 127.369  0.00  0.00    +0.000 C 
ATOM     11  O   UNL     1     -13.825   6.929 127.493  0.00  0.00    +0.000 OA
BRANCH  10  12
ATOM     12  O   UNL     1     -11.996   6.524 126.271  0.00  0.00    +0.000 OA
ATOM     13  H   UNL     1     -11.727   5.586 126.301  0.00  0.00    +0.000 HD
ENDBRANCH  10  12
ENDBRANCH   6  10
BRANCH   9  14
ATOM     14  C   UNL     1     -13.501  10.780 130.180  0.00  0.00    +0.000 C 
BRANCH  14  15
ATOM     15  O   UNL     1     -13.411  12.121 129.707  0.00  0.00    +0.000 OA
ATOM     16  H   UNL     1     -14.210  12.320 129.188  0.00  0.00    +0.000 HD
ENDBRANCH  14  15
ENDBRANCH   9  14
TORSDOF 4
ENDMDL
MODEL 2
REMARK VINA RESULT:      -5.8      2.040      3.903
REMARK  Name = Clavulanic acid
REMARK  4 active torsions:
REMARK  status: ('A' for Active; 'I' for Inactive)
REMARK    1  A    between atoms: C_7  and  C_8
REMARK    2  A    between atoms: C_8  and  O_9
REMARK    3  A    between atoms: C_13  and  C_14
REMARK    4  A    between atoms: C_14  and  O_15
REMARK                            x       y       z     vdW  Elec       q    Type
REMARK                         _______ _______ _______ _____ _____    ______ ____
ROOT
ATOM      1  C   UNL     1      -9.823   6.492 130.421  0.00  0.00    +0.000 C 
ATOM      2  C   UNL     1      -9.233   5.075 130.313  0.00  0.00    +0.000 C 
ATOM      3  C   UNL     1     -10.688   4.615 130.446  0.00  0.00    +0.000 C 
ATOM      4  O   UNL     1     -11.304   3.597 130.212  0.00  0.00    +0.000 OA
ATOM      5  N   UNL     1     -11.114   5.876 130.762  0.00  0.00    +0.000 N 
ATOM      6  C   UNL     1     -12.140   6.504 129.948  0.00  0.00    +0.000 C 
ATOM      7  C   UNL     1     -11.284   6.984 128.785  0.00  0.00    +0.000 C 
ATOM      8  O   UNL     1      -9.966   7.261 129.181  0.00  0.00    +0.000 OA
ATOM      9  C   UNL     1     -11.704   7.042 127.505  0.00  0.00    +0.000 C 
ENDROOT
BRANCH   6  10
ATOM     10  C   UNL     1     -12.747   7.694 130.732  0.00  0.00    +0.000 C 
ATOM     11  O   UNL     1     -13.303   7.571 131.818  0.00  0.00    +0.000 OA
BRANCH  10  12
ATOM     12  O   UNL     1     -12.653   8.921 130.159  0.00  0.00    +0.000 OA
ATOM     13  H   UNL     1     -13.142   9.654 130.579  0.00  0.00    +0.000 HD
ENDBRANCH  10  12
ENDBRANCH   6  10
BRANCH   9  14
ATOM     14  C   UNL     1     -10.938   7.548 126.325  0.00  0.00    +0.000 C 
BRANCH  14  15
ATOM     15  O   UNL     1      -9.850   6.663 126.070  0.00  0.00    +0.000 OA
ATOM     16  H   UNL     1      -9.304   7.042 125.359  0.00  0.00    +0.000 HD
ENDBRANCH  14  15
ENDBRANCH   9  14
TORSDOF 4
ENDMDL
MODEL 3
REMARK VINA RESULT:      -5.7      2.063      4.552
REMARK  Name = Clavulanic acid
REMARK  4 active torsions:
REMARK  status: ('A' for Active; 'I' for Inactive)
REMARK    1  A    between atoms: C_7  and  C_8
REMARK    2  A    between atoms: C_8  and  O_9
REMARK    3  A    between atoms: C_13  and  C_14
REMARK    4  A    between atoms: C_14  and  O_15
REMARK                            x       y       z     vdW  Elec       q    Type
REMARK                         _______ _______ _______ _____ _____    ______ ____
ROOT
ATOM      1  C   UNL     1     -13.016   6.775 128.108  0.00  0.00    +0.000 C 
ATOM      2  C   UNL     1     -12.322   6.915 126.742  0.00  0.00    +0.000 C 
ATOM      3  C   UNL     1     -11.556   8.061 127.411  0.00  0.00    +0.000 C 
ATOM      4  O   UNL     1     -10.533   8.673 127.184  0.00  0.00    +0.000 OA
ATOM      5  N   UNL     1     -12.364   8.030 128.513  0.00  0.00    +0.000 N 
ATOM      6  C   UNL     1     -11.772   7.824 129.824  0.00  0.00    +0.000 C 
ATOM      7  C   UNL     1     -11.601   6.313 129.792  0.00  0.00    +0.000 C 
ATOM      8  O   UNL     1     -12.567   5.691 128.987  0.00  0.00    +0.000 OA
ATOM      9  C   UNL     1     -10.585   5.651 130.381  0.00  0.00    +0.000 C 
ENDROOT
BRANCH   6  10
ATOM     10  C   UNL     1     -12.789   8.256 130.910  0.00  0.00    +0.000 C 
ATOM     11  O   UNL     1     -13.127   9.421 131.092  0.00  0.00    +0.000 OA
BRANCH  10  12
ATOM     12  O   UNL     1     -13.309   7.275 131.691  0.00  0.00    +0.000 OA
ATOM     13  H   UNL     1     -13.443   6.398 131.284  0.00  0.00    +0.000 HD
ENDBRANCH  10  12
ENDBRANCH   6  10
BRANCH   9  14
ATOM     14  C   UNL     1     -10.381   4.170 130.433  0.00  0.00    +0.000 C 
BRANCH  14  15
ATOM     15  O   UNL     1     -11.648   3.528 130.319  0.00  0.00    +0.000 OA
ATOM     16  H   UNL     1     -11.800   3.002 131.124  0.00  0.00    +0.000 HD
ENDBRANCH  14  15
ENDBRANCH   9  14
TORSDOF 4
ENDMDL
MODEL 4
REMARK VINA RESULT:      -5.5     11.675     13.453
REMARK  Name = Clavulanic acid
REMARK  4 active torsions:
REMARK  status: ('A' for Active; 'I' for Inactive)
REMARK    1  A    between atoms: C_7  and  C_8
REMARK    2  A    between atoms: C_8  and  O_9
REMARK    3  A    between atoms: C_13  and  C_14
REMARK    4  A    between atoms: C_14  and  O_15
REMARK                            x       y       z     vdW  Elec       q    Type
REMARK                         _______ _______ _______ _____ _____    ______ ____
ROOT
ATOM      1  C   UNL     1      -6.785  -1.209 125.307  0.00  0.00    +0.000 C 
ATOM      2  C   UNL     1      -6.466  -1.191 126.812  0.00  0.00    +0.000 C 
ATOM      3  C   UNL     1      -7.536  -2.284 126.905  0.00  0.00    +0.000 C 
ATOM      4  O   UNL     1      -7.847  -3.132 127.715  0.00  0.00    +0.000 OA
ATOM      5  N   UNL     1      -7.925  -2.088 125.609  0.00  0.00    +0.000 N 
ATOM      6  C   UNL     1      -7.890  -3.204 124.679  0.00  0.00    +0.000 C 
ATOM      7  C   UNL     1      -6.408  -3.200 124.333  0.00  0.00    +0.000 C 
ATOM      8  O   UNL     1      -5.849  -1.916 124.427  0.00  0.00    +0.000 OA
ATOM      9  C   UNL     1      -5.687  -4.307 124.066  0.00  0.00    +0.000 C 
ENDROOT
BRANCH   6  10
ATOM     10  C   UNL     1      -8.760  -2.860 123.445  0.00  0.00    +0.000 C 
ATOM     11  O   UNL     1      -8.334  -2.249 122.470  0.00  0.00    +0.000 OA
BRANCH  10  12
ATOM     12  O   UNL     1     -10.058  -3.256 123.477  0.00  0.00    +0.000 OA
ATOM     13  H   UNL     1     -10.739  -2.563 123.569  0.00  0.00    +0.000 HD
ENDBRANCH  10  12
ENDBRANCH   6  10
BRANCH   9  14
ATOM     14  C   UNL     1      -4.246  -4.374 123.671  0.00  0.00    +0.000 C 
BRANCH  14  15
ATOM     15  O   UNL     1      -4.021  -5.585 122.955  0.00  0.00    +0.000 OA
ATOM     16  H   UNL     1      -3.183  -5.974 123.261  0.00  0.00    +0.000 HD
ENDBRANCH  14  15
ENDBRANCH   9  14
TORSDOF 4
ENDMDL
MODEL 5
REMARK VINA RESULT:      -5.4     11.332     13.361
REMARK  Name = Clavulanic acid
REMARK  4 active torsions:
REMARK  status: ('A' for Active; 'I' for Inactive)
REMARK    1  A    between atoms: C_7  and  C_8
REMARK    2  A    between atoms: C_8  and  O_9
REMARK    3  A    between atoms: C_13  and  C_14
REMARK    4  A    between atoms: C_14  and  O_15
REMARK                            x       y       z     vdW  Elec       q    Type
REMARK                         _______ _______ _______ _____ _____    ______ ____
ROOT
ATOM      1  C   UNL     1      -7.700  -2.465 125.942  0.00  0.00    +0.000 C 
ATOM      2  C   UNL     1      -8.800  -3.540 125.941  0.00  0.00    +0.000 C 
ATOM      3  C   UNL     1      -9.145  -2.981 124.557  0.00  0.00    +0.000 C 
ATOM      4  O   UNL     1      -9.770  -3.368 123.592  0.00  0.00    +0.000 OA
ATOM      5  N   UNL     1      -8.306  -1.913 124.720  0.00  0.00    +0.000 N 
ATOM      6  C   UNL     1      -7.244  -1.690 123.754  0.00  0.00    +0.000 C 
ATOM      7  C   UNL     1      -6.220  -2.692 124.265  0.00  0.00    +0.000 C 
ATOM      8  O   UNL     1      -6.330  -2.899 125.649  0.00  0.00    +0.000 OA
ATOM      9  C   UNL     1      -5.371  -3.381 123.476  0.00  0.00    +0.000 C 
ENDROOT
BRANCH   6  10
ATOM     10  C   UNL     1      -6.731  -0.235 123.897  0.00  0.00    +0.000 C 
ATOM     11  O   UNL     1      -7.034   0.665 123.120  0.00  0.00    +0.000 OA
BRANCH  10  12
ATOM     12  O   UNL     1      -5.898   0.025 124.936  0.00  0.00    +0.000 OA
ATOM     13  H   UNL     1      -5.592   0.945 125.050  0.00  0.00    +0.000 HD
ENDBRANCH  10  12
ENDBRANCH   6  10
BRANCH   9  14
ATOM     14  C   UNL     1      -4.309  -4.340 123.911  0.00  0.00    +0.000 C 
BRANCH  14  15
ATOM     15  O   UNL     1      -4.270  -5.429 122.992  0.00  0.00    +0.000 OA
ATOM     16  H   UNL     1      -4.180  -6.256 123.498  0.00  0.00    +0.000 HD
ENDBRANCH  14  15
ENDBRANCH   9  14
TORSDOF 4
ENDMDL
MODEL 6
REMARK VINA RESULT:      -5.2      8.567     10.018
REMARK  Name = Clavulanic acid
REMARK  4 active torsions:
REMARK  status: ('A' for Active; 'I' for Inactive)
REMARK    1  A    between atoms: C_7  and  C_8
REMARK    2  A    between atoms: C_8  and  O_9
REMARK    3  A    between atoms: C_13  and  C_14
REMARK    4  A    between atoms: C_14  and  O_15
REMARK                            x       y       z     vdW  Elec       q    Type
REMARK                         _______ _______ _______ _____ _____    ______ ____
ROOT
ATOM      1  C   UNL     1      -7.004   0.593 125.112  0.00  0.00    +0.000 C 
ATOM      2  C   UNL     1      -6.093  -0.588 124.735  0.00  0.00    +0.000 C 
ATOM      3  C   UNL     1      -7.160  -0.886 123.676  0.00  0.00    +0.000 C 
ATOM      4  O   UNL     1      -7.215  -1.538 122.655  0.00  0.00    +0.000 OA
ATOM      5  N   UNL     1      -8.021   0.034 124.207  0.00  0.00    +0.000 N 
ATOM      6  C   UNL     1      -8.515   1.112 123.368  0.00  0.00    +0.000 C 
ATOM      7  C   UNL     1      -7.322   2.054 123.433  0.00  0.00    +0.000 C 
ATOM      8  O   UNL     1      -6.614   1.925 124.638  0.00  0.00    +0.000 OA
ATOM      9  C   UNL     1      -6.924   2.846 122.417  0.00  0.00    +0.000 C 
ENDROOT
BRANCH   6  10
ATOM     10  C   UNL     1      -9.765   1.738 124.036  0.00  0.00    +0.000 C 
ATOM     11  O   UNL     1     -10.880   1.228 123.988  0.00  0.00    +0.000 OA
BRANCH  10  12
ATOM     12  O   UNL     1      -9.590   2.914 124.691  0.00  0.00    +0.000 OA
ATOM     13  H   UNL     1      -9.071   3.607 124.241  0.00  0.00    +0.000 HD
ENDBRANCH  10  12
ENDBRANCH   6  10
BRANCH   9  14
ATOM     14  C   UNL     1      -5.796   3.828 122.426  0.00  0.00    +0.000 C 
BRANCH  14  15
ATOM     15  O   UNL     1      -5.976   4.724 123.520  0.00  0.00    +0.000 OA
ATOM     16  H   UNL     1      -6.472   5.500 123.204  0.00  0.00    +0.000 HD
ENDBRANCH  14  15
ENDBRANCH   9  14
TORSDOF 4
ENDMDL
MODEL 7
REMARK VINA RESULT:      -5.2      2.363      4.742
REMARK  Name = Clavulanic acid
REMARK  4 active torsions:
REMARK  status: ('A' for Active; 'I' for Inactive)
REMARK    1  A    between atoms: C_7  and  C_8
REMARK    2  A    between atoms: C_8  and  O_9
REMARK    3  A    between atoms: C_13  and  C_14
REMARK    4  A    between atoms: C_14  and  O_15
REMARK                            x       y       z     vdW  Elec       q    Type
REMARK                         _______ _______ _______ _____ _____    ______ ____
ROOT
ATOM      1  C   UNL     1     -10.604   6.937 128.552  0.00  0.00    +0.000 C 
ATOM      2  C   UNL     1     -11.244   8.329 128.702  0.00  0.00    +0.000 C 
ATOM      3  C   UNL     1     -11.971   7.707 129.899  0.00  0.00    +0.000 C 
ATOM      4  O   UNL     1     -12.559   8.127 130.874  0.00  0.00    +0.000 OA
ATOM      5  N   UNL     1     -11.545   6.450 129.574  0.00  0.00    +0.000 N 
ATOM      6  C   UNL     1     -10.790   5.680 130.548  0.00  0.00    +0.000 C 
ATOM      7  C   UNL     1      -9.414   6.298 130.349  0.00  0.00    +0.000 C 
ATOM      8  O   UNL     1      -9.232   6.769 129.039  0.00  0.00    +0.000 OA
ATOM      9  C   UNL     1      -8.509   6.471 131.334  0.00  0.00    +0.000 C 
ENDROOT
BRANCH   6  10
ATOM     10  C   UNL     1     -10.804   4.188 130.132  0.00  0.00    +0.000 C 
ATOM     11  O   UNL     1     -11.803   3.479 130.205  0.00  0.00    +0.000 OA
BRANCH  10  12
ATOM     12  O   UNL     1      -9.637   3.664 129.679  0.00  0.00    +0.000 OA
ATOM     13  H   UNL     1      -8.959   3.433 130.341  0.00  0.00    +0.000 HD
ENDBRANCH  10  12
ENDBRANCH   6  10
BRANCH   9  14
ATOM     14  C   UNL     1      -7.125   7.022 131.202  0.00  0.00    +0.000 C 
BRANCH  14  15
ATOM     15  O   UNL     1      -6.480   6.388 130.101  0.00  0.00    +0.000 OA
ATOM     16  H   UNL     1      -6.636   5.429 130.163  0.00  0.00    +0.000 HD
ENDBRANCH  14  15
ENDBRANCH   9  14
TORSDOF 4
ENDMDL
MODEL 8
REMARK VINA RESULT:      -5.1     11.528     12.391
REMARK  Name = Clavulanic acid
REMARK  4 active torsions:
REMARK  status: ('A' for Active; 'I' for Inactive)
REMARK    1  A    between atoms: C_7  and  C_8
REMARK    2  A    between atoms: C_8  and  O_9
REMARK    3  A    between atoms: C_13  and  C_14
REMARK    4  A    between atoms: C_14  and  O_15
REMARK                            x       y       z     vdW  Elec       q    Type
REMARK                         _______ _______ _______ _____ _____    ______ ____
ROOT
ATOM      1  C   UNL     1      -6.686  -3.180 123.977  0.00  0.00    +0.000 C 
ATOM      2  C   UNL     1      -5.336  -2.628 124.467  0.00  0.00    +0.000 C 
ATOM      3  C   UNL     1      -6.059  -1.277 124.486  0.00  0.00    +0.000 C 
ATOM      4  O   UNL     1      -5.870  -0.196 125.003  0.00  0.00    +0.000 OA
ATOM      5  N   UNL     1      -7.148  -1.790 123.838  0.00  0.00    +0.000 N 
ATOM      6  C   UNL     1      -8.458  -1.688 124.459  0.00  0.00    +0.000 C 
ATOM      7  C   UNL     1      -8.370  -2.856 125.430  0.00  0.00    +0.000 C 
ATOM      8  O   UNL     1      -7.528  -3.874 124.956  0.00  0.00    +0.000 OA
ATOM      9  C   UNL     1      -8.947  -2.875 126.649  0.00  0.00    +0.000 C 
ENDROOT
BRANCH   6  10
ATOM     10  C   UNL     1      -9.546  -1.929 123.382  0.00  0.00    +0.000 C 
ATOM     11  O   UNL     1      -9.947  -1.053 122.623  0.00  0.00    +0.000 OA
BRANCH  10  12
ATOM     12  O   UNL     1     -10.070  -3.179 123.306  0.00  0.00    +0.000 OA
ATOM     13  H   UNL     1     -10.238  -3.649 124.145  0.00  0.00    +0.000 HD
ENDBRANCH  10  12
ENDBRANCH   6  10
BRANCH   9  14
ATOM     14  C   UNL     1      -8.944  -4.003 127.632  0.00  0.00    +0.000 C 
BRANCH  14  15
ATOM     15  O   UNL     1      -8.661  -3.482 128.928  0.00  0.00    +0.000 OA
ATOM     16  H   UNL     1      -9.417  -2.940 129.215  0.00  0.00    +0.000 HD
ENDBRANCH  14  15
ENDBRANCH   9  14
TORSDOF 4
ENDMDL
MODEL 9
REMARK VINA RESULT:      -5.1     11.342     13.399
REMARK  Name = Clavulanic acid
REMARK  4 active torsions:
REMARK  status: ('A' for Active; 'I' for Inactive)
REMARK    1  A    between atoms: C_7  and  C_8
REMARK    2  A    between atoms: C_8  and  O_9
REMARK    3  A    between atoms: C_13  and  C_14
REMARK    4  A    between atoms: C_14  and  O_15
REMARK                            x       y       z     vdW  Elec       q    Type
REMARK                         _______ _______ _______ _____ _____    ______ ____
ROOT
ATOM      1  C   UNL     1      -8.568  -3.522 124.564  0.00  0.00    +0.000 C 
ATOM      2  C   UNL     1      -9.330  -3.105 123.294  0.00  0.00    +0.000 C 
ATOM      3  C   UNL     1      -8.958  -1.679 123.711  0.00  0.00    +0.000 C 
ATOM      4  O   UNL     1      -8.907  -0.597 123.165  0.00  0.00    +0.000 OA
ATOM      5  N   UNL     1      -8.498  -2.098 124.929  0.00  0.00    +0.000 N 
ATOM      6  C   UNL     1      -7.129  -1.800 125.313  0.00  0.00    +0.000 C 
ATOM      7  C   UNL     1      -6.406  -2.904 124.557  0.00  0.00    +0.000 C 
ATOM      8  O   UNL     1      -7.209  -4.044 124.395  0.00  0.00    +0.000 OA
ATOM      9  C   UNL     1      -5.179  -2.775 124.013  0.00  0.00    +0.000 C 
ENDROOT
BRANCH   6  10
ATOM     10  C   UNL     1      -6.987  -1.977 126.846  0.00  0.00    +0.000 C 
ATOM     11  O   UNL     1      -5.960  -2.378 127.384  0.00  0.00    +0.000 OA
BRANCH  10  12
ATOM     12  O   UNL     1      -8.072  -1.677 127.604  0.00  0.00    +0.000 OA
ATOM     13  H   UNL     1      -7.996  -0.925 128.222  0.00  0.00    +0.000 HD
ENDBRANCH  10  12
ENDBRANCH   6  10
BRANCH   9  14
ATOM     14  C   UNL     1      -4.390  -3.829 123.303  0.00  0.00    +0.000 C 
BRANCH  14  15
ATOM     15  O   UNL     1      -4.774  -5.106 123.805  0.00  0.00    +0.000 OA
ATOM     16  H   UNL     1      -5.744  -5.174 123.767  0.00  0.00    +0.000 HD
ENDBRANCH  14  15
ENDBRANCH   9  14
TORSDOF 4
ENDMDL
