MODEL 1
REMARK VINA RESULT:      -7.2      0.000      0.000
REMARK  Name = Clemastine
REMARK  8 active torsions:
REMARK  status: ('A' for Active; 'I' for Inactive)
REMARK    1  A    between atoms: C_1  and  N_2
REMARK    2  A    between atoms: C_6  and  C_7
REMARK    3  A    between atoms: C_7  and  C_8
REMARK    4  A    between atoms: C_8  and  O_9
REMARK    5  A    between atoms: O_9  and  C_10
REMARK    6  A    between atoms: C_10  and  C_11
REMARK    7  A    between atoms: C_10  and  C_12
REMARK    8  A    between atoms: C_10  and  C_18
REMARK                            x       y       z     vdW  Elec       q    Type
REMARK                         _______ _______ _______ _____ _____    ______ ____
ROOT
ATOM      1  C   UNL     1      -7.787   1.855 123.740  0.00  0.00    +0.000 C 
ATOM      2  C   UNL     1      -9.054   2.384 124.467  0.00  0.00    +0.000 C 
ENDROOT
BRANCH   1   3
ATOM      3  C   UNL     1      -7.572   2.818 122.488  0.00  0.00    +0.000 A 
ATOM      4  C   UNL     1      -8.598   3.307 121.656  0.00  0.00    +0.000 A 
ATOM      5  C   UNL     1      -8.336   3.905 120.412  0.00  0.00    +0.000 A 
ATOM      6  C   UNL     1      -7.041   4.184 120.035  0.00  0.00    +0.000 A 
ATOM      7 CL   UNL     1      -6.700   4.949 118.538  0.00  0.00    +0.000 Cl
ATOM      8  C   UNL     1      -6.009   3.898 120.913  0.00  0.00    +0.000 A 
ATOM      9  C   UNL     1      -6.286   3.258 122.129  0.00  0.00    +0.000 A 
ENDBRANCH   1   3
BRANCH   1  10
ATOM     10  C   UNL     1      -7.918   0.351 123.393  0.00  0.00    +0.000 A 
ATOM     11  C   UNL     1      -6.789  -0.477 123.285  0.00  0.00    +0.000 A 
ATOM     12  C   UNL     1      -6.907  -1.834 122.977  0.00  0.00    +0.000 A 
ATOM     13  C   UNL     1      -8.163  -2.415 122.856  0.00  0.00    +0.000 A 
ATOM     14  C   UNL     1      -9.294  -1.618 122.912  0.00  0.00    +0.000 A 
ATOM     15  C   UNL     1      -9.155  -0.238 123.066  0.00  0.00    +0.000 A 
ENDBRANCH   1  10
BRANCH   1  16
ATOM     16  O   UNL     1      -6.704   1.815 124.748  0.00  0.00    +0.000 OA
BRANCH  16  17
ATOM     17  C   UNL     1      -7.167   1.868 126.082  0.00  0.00    +0.000 C 
BRANCH  17  18
ATOM     18  C   UNL     1      -6.411   1.175 127.199  0.00  0.00    +0.000 C 
BRANCH  18  24
ATOM     19  C   UNL     1      -5.223  -1.909 127.572  0.00  0.00    +0.000 C 
ATOM     20  N   UNL     1      -6.395  -1.413 126.882  0.00  0.00    +0.000 NA
ATOM     21  C   UNL     1      -7.394  -2.478 126.905  0.00  0.00    +0.000 C 
ATOM     22  C   UNL     1      -8.654  -1.771 126.475  0.00  0.00    +0.000 C 
ATOM     23  C   UNL     1      -8.438  -0.303 126.828  0.00  0.00    +0.000 C 
ATOM     24  C   UNL     1      -7.052  -0.222 127.468  0.00  0.00    +0.000 C 
ENDBRANCH  18  24
ENDBRANCH  17  18
ENDBRANCH  16  17
ENDBRANCH   1  16
TORSDOF 6
ENDMDL
MODEL 2
REMARK VINA RESULT:      -7.1      2.570      4.947
REMARK  Name = Clemastine
REMARK  8 active torsions:
REMARK  status: ('A' for Active; 'I' for Inactive)
REMARK    1  A    between atoms: C_1  and  N_2
REMARK    2  A    between atoms: C_6  and  C_7
REMARK    3  A    between atoms: C_7  and  C_8
REMARK    4  A    between atoms: C_8  and  O_9
REMARK    5  A    between atoms: O_9  and  C_10
REMARK    6  A    between atoms: C_10  and  C_11
REMARK    7  A    between atoms: C_10  and  C_12
REMARK    8  A    between atoms: C_10  and  C_18
REMARK                            x       y       z     vdW  Elec       q    Type
REMARK                         _______ _______ _______ _____ _____    ______ ____
ROOT
ATOM      1  C   UNL     1      -7.544   2.319 123.785  0.00  0.00    +0.000 C 
ATOM      2  C   UNL     1      -8.945   2.531 124.423  0.00  0.00    +0.000 C 
ENDROOT
BRANCH   1   3
ATOM      3  C   UNL     1      -6.497   2.891 124.842  0.00  0.00    +0.000 A 
ATOM      4  C   UNL     1      -6.333   4.252 125.167  0.00  0.00    +0.000 A 
ATOM      5  C   UNL     1      -5.217   4.727 125.875  0.00  0.00    +0.000 A 
ATOM      6  C   UNL     1      -4.315   3.841 126.425  0.00  0.00    +0.000 A 
ATOM      7 CL   UNL     1      -2.966   4.398 127.326  0.00  0.00    +0.000 Cl
ATOM      8  C   UNL     1      -4.544   2.482 126.297  0.00  0.00    +0.000 A 
ATOM      9  C   UNL     1      -5.638   2.027 125.547  0.00  0.00    +0.000 A 
ENDBRANCH   1   3
BRANCH   1  10
ATOM     10  C   UNL     1      -7.461   2.951 122.374  0.00  0.00    +0.000 A 
ATOM     11  C   UNL     1      -8.618   3.306 121.661  0.00  0.00    +0.000 A 
ATOM     12  C   UNL     1      -8.544   3.880 120.390  0.00  0.00    +0.000 A 
ATOM     13  C   UNL     1      -7.309   4.194 119.838  0.00  0.00    +0.000 A 
ATOM     14  C   UNL     1      -6.149   3.817 120.495  0.00  0.00    +0.000 A 
ATOM     15  C   UNL     1      -6.239   3.105 121.692  0.00  0.00    +0.000 A 
ENDBRANCH   1  10
BRANCH   1  16
ATOM     16  O   UNL     1      -7.442   0.880 123.453  0.00  0.00    +0.000 OA
BRANCH  16  17
ATOM     17  C   UNL     1      -8.609   0.142 123.756  0.00  0.00    +0.000 C 
BRANCH  17  18
ATOM     18  C   UNL     1      -9.010  -1.060 122.924  0.00  0.00    +0.000 C 
BRANCH  18  24
ATOM     19  C   UNL     1      -8.496  -3.255 125.370  0.00  0.00    +0.000 C 
ATOM     20  N   UNL     1      -7.569  -2.497 124.555  0.00  0.00    +0.000 NA
ATOM     21  C   UNL     1      -6.340  -3.279 124.456  0.00  0.00    +0.000 C 
ATOM     22  C   UNL     1      -5.586  -2.589 123.349  0.00  0.00    +0.000 C 
ATOM     23  C   UNL     1      -6.648  -1.887 122.508  0.00  0.00    +0.000 C 
ATOM     24  C   UNL     1      -7.990  -2.218 123.163  0.00  0.00    +0.000 C 
ENDBRANCH  18  24
ENDBRANCH  17  18
ENDBRANCH  16  17
ENDBRANCH   1  16
TORSDOF 6
ENDMDL
MODEL 3
REMARK VINA RESULT:      -7.0      2.802      3.999
REMARK  Name = Clemastine
REMARK  8 active torsions:
REMARK  status: ('A' for Active; 'I' for Inactive)
REMARK    1  A    between atoms: C_1  and  N_2
REMARK    2  A    between atoms: C_6  and  C_7
REMARK    3  A    between atoms: C_7  and  C_8
REMARK    4  A    between atoms: C_8  and  O_9
REMARK    5  A    between atoms: O_9  and  C_10
REMARK    6  A    between atoms: C_10  and  C_11
REMARK    7  A    between atoms: C_10  and  C_12
REMARK    8  A    between atoms: C_10  and  C_18
REMARK                            x       y       z     vdW  Elec       q    Type
REMARK                         _______ _______ _______ _____ _____    ______ ____
ROOT
ATOM      1  C   UNL     1      -7.364   1.736 124.356  0.00  0.00    +0.000 C 
ATOM      2  C   UNL     1      -8.819   1.739 124.902  0.00  0.00    +0.000 C 
ENDROOT
BRANCH   1   3
ATOM      3  C   UNL     1      -7.397   2.622 123.031  0.00  0.00    +0.000 A 
ATOM      4  C   UNL     1      -8.566   3.074 122.387  0.00  0.00    +0.000 A 
ATOM      5  C   UNL     1      -8.551   3.595 121.082  0.00  0.00    +0.000 A 
ATOM      6  C   UNL     1      -7.354   3.837 120.444  0.00  0.00    +0.000 A 
ATOM      7 CL   UNL     1      -7.311   4.508 118.867  0.00  0.00    +0.000 Cl
ATOM      8  C   UNL     1      -6.170   3.590 121.120  0.00  0.00    +0.000 A 
ATOM      9  C   UNL     1      -6.205   3.026 122.403  0.00  0.00    +0.000 A 
ENDBRANCH   1   3
BRANCH   1  10
ATOM     10  C   UNL     1      -6.833   0.295 124.165  0.00  0.00    +0.000 A 
ATOM     11  C   UNL     1      -7.198  -0.480 123.051  0.00  0.00    +0.000 A 
ATOM     12  C   UNL     1      -6.715  -1.779 122.877  0.00  0.00    +0.000 A 
ATOM     13  C   UNL     1      -5.786  -2.303 123.767  0.00  0.00    +0.000 A 
ATOM     14  C   UNL     1      -5.440  -1.584 124.899  0.00  0.00    +0.000 A 
ATOM     15  C   UNL     1      -6.048  -0.351 125.141  0.00  0.00    +0.000 A 
ENDBRANCH   1  10
BRANCH   1  16
ATOM     16  O   UNL     1      -6.496   2.210 125.457  0.00  0.00    +0.000 OA
BRANCH  16  17
ATOM     17  C   UNL     1      -6.686   3.572 125.784  0.00  0.00    +0.000 C 
BRANCH  17  18
ATOM     18  C   UNL     1      -5.525   4.548 125.765  0.00  0.00    +0.000 C 
BRANCH  18  24
ATOM     19  C   UNL     1      -4.040   6.082 128.316  0.00  0.00    +0.000 C 
ATOM     20  N   UNL     1      -3.528   5.151 127.331  0.00  0.00    +0.000 NA
ATOM     21  C   UNL     1      -2.428   4.422 127.955  0.00  0.00    +0.000 C 
ATOM     22  C   UNL     1      -2.191   3.281 126.999  0.00  0.00    +0.000 C 
ATOM     23  C   UNL     1      -3.512   3.086 126.262  0.00  0.00    +0.000 C 
ATOM     24  C   UNL     1      -4.475   4.123 126.840  0.00  0.00    +0.000 C 
ENDBRANCH  18  24
ENDBRANCH  17  18
ENDBRANCH  16  17
ENDBRANCH   1  16
TORSDOF 6
ENDMDL
MODEL 4
REMARK VINA RESULT:      -6.7      2.530      4.477
REMARK  Name = Clemastine
REMARK  8 active torsions:
REMARK  status: ('A' for Active; 'I' for Inactive)
REMARK    1  A    between atoms: C_1  and  N_2
REMARK    2  A    between atoms: C_6  and  C_7
REMARK    3  A    between atoms: C_7  and  C_8
REMARK    4  A    between atoms: C_8  and  O_9
REMARK    5  A    between atoms: O_9  and  C_10
REMARK    6  A    between atoms: C_10  and  C_11
REMARK    7  A    between atoms: C_10  and  C_12
REMARK    8  A    between atoms: C_10  and  C_18
REMARK                            x       y       z     vdW  Elec       q    Type
REMARK                         _______ _______ _______ _____ _____    ______ ____
ROOT
ATOM      1  C   UNL     1      -7.484   2.340 123.688  0.00  0.00    +0.000 C 
ATOM      2  C   UNL     1      -8.894   2.531 124.313  0.00  0.00    +0.000 C 
ENDROOT
BRANCH   1   3
ATOM      3  C   UNL     1      -6.451   2.873 124.779  0.00  0.00    +0.000 A 
ATOM      4  C   UNL     1      -6.266   4.225 125.128  0.00  0.00    +0.000 A 
ATOM      5  C   UNL     1      -5.157   4.664 125.870  0.00  0.00    +0.000 A 
ATOM      6  C   UNL     1      -4.289   3.751 126.429  0.00  0.00    +0.000 A 
ATOM      7 CL   UNL     1      -2.951   4.263 127.371  0.00  0.00    +0.000 Cl
ATOM      8  C   UNL     1      -4.545   2.399 126.275  0.00  0.00    +0.000 A 
ATOM      9  C   UNL     1      -5.630   1.980 125.490  0.00  0.00    +0.000 A 
ENDBRANCH   1   3
BRANCH   1  10
ATOM     10  C   UNL     1      -7.382   3.023 122.302  0.00  0.00    +0.000 A 
ATOM     11  C   UNL     1      -6.138   3.337 121.730  0.00  0.00    +0.000 A 
ATOM     12  C   UNL     1      -6.045   3.949 120.478  0.00  0.00    +0.000 A 
ATOM     13  C   UNL     1      -7.191   4.181 119.728  0.00  0.00    +0.000 A 
ATOM     14  C   UNL     1      -8.435   3.925 120.281  0.00  0.00    +0.000 A 
ATOM     15  C   UNL     1      -8.519   3.458 121.594  0.00  0.00    +0.000 A 
ENDBRANCH   1  10
BRANCH   1  16
ATOM     16  O   UNL     1      -7.378   0.914 123.305  0.00  0.00    +0.000 OA
BRANCH  16  17
ATOM     17  C   UNL     1      -8.297   0.076 123.976  0.00  0.00    +0.000 C 
BRANCH  17  18
ATOM     18  C   UNL     1      -7.965  -1.376 124.261  0.00  0.00    +0.000 C 
BRANCH  18  24
ATOM     19  C   UNL     1      -6.223  -1.279 127.093  0.00  0.00    +0.000 C 
ATOM     20  N   UNL     1      -7.191  -2.237 126.598  0.00  0.00    +0.000 NA
ATOM     21  C   UNL     1      -7.838  -2.839 127.760  0.00  0.00    +0.000 C 
ATOM     22  C   UNL     1      -9.024  -3.549 127.159  0.00  0.00    +0.000 C 
ATOM     23  C   UNL     1      -9.315  -2.820 125.850  0.00  0.00    +0.000 C 
ATOM     24  C   UNL     1      -8.282  -1.695 125.755  0.00  0.00    +0.000 C 
ENDBRANCH  18  24
ENDBRANCH  17  18
ENDBRANCH  16  17
ENDBRANCH   1  16
TORSDOF 6
ENDMDL
MODEL 5
REMARK VINA RESULT:      -6.7      8.235      9.622
REMARK  Name = Clemastine
REMARK  8 active torsions:
REMARK  status: ('A' for Active; 'I' for Inactive)
REMARK    1  A    between atoms: C_1  and  N_2
REMARK    2  A    between atoms: C_6  and  C_7
REMARK    3  A    between atoms: C_7  and  C_8
REMARK    4  A    between atoms: C_8  and  O_9
REMARK    5  A    between atoms: O_9  and  C_10
REMARK    6  A    between atoms: C_10  and  C_11
REMARK    7  A    between atoms: C_10  and  C_12
REMARK    8  A    between atoms: C_10  and  C_18
REMARK                            x       y       z     vdW  Elec       q    Type
REMARK                         _______ _______ _______ _____ _____    ______ ____
ROOT
ATOM      1  C   UNL     1      -9.694   5.465 131.284  0.00  0.00    +0.000 C 
ATOM      2  C   UNL     1     -10.206   4.044 130.920  0.00  0.00    +0.000 C 
ENDROOT
BRANCH   1   3
ATOM      3  C   UNL     1     -10.682   6.481 130.553  0.00  0.00    +0.000 A 
ATOM      4  C   UNL     1     -10.399   7.167 129.355  0.00  0.00    +0.000 A 
ATOM      5  C   UNL     1     -11.168   8.256 128.913  0.00  0.00    +0.000 A 
ATOM      6  C   UNL     1     -12.338   8.588 129.561  0.00  0.00    +0.000 A 
ATOM      7 CL   UNL     1     -13.313   9.889 129.015  0.00  0.00    +0.000 Cl
ATOM      8  C   UNL     1     -12.758   7.814 130.630  0.00  0.00    +0.000 A 
ATOM      9  C   UNL     1     -11.953   6.761 131.086  0.00  0.00    +0.000 A 
ENDBRANCH   1   3
BRANCH   1  10
ATOM     10  C   UNL     1      -8.197   5.638 130.928  0.00  0.00    +0.000 A 
ATOM     11  C   UNL     1      -7.438   6.700 131.447  0.00  0.00    +0.000 A 
ATOM     12  C   UNL     1      -6.087   6.853 131.129  0.00  0.00    +0.000 A 
ATOM     13  C   UNL     1      -5.439   5.898 130.355  0.00  0.00    +0.000 A 
ATOM     14  C   UNL     1      -6.169   4.864 129.792  0.00  0.00    +0.000 A 
ATOM     15  C   UNL     1      -7.549   4.810 129.991  0.00  0.00    +0.000 A 
ENDBRANCH   1  10
BRANCH   1  16
ATOM     16  O   UNL     1      -9.639   5.531 132.762  0.00  0.00    +0.000 OA
BRANCH  16  17
ATOM     17  C   UNL     1      -9.335   4.295 133.374  0.00  0.00    +0.000 C 
BRANCH  17  18
ATOM     18  C   UNL     1      -8.313   4.208 134.492  0.00  0.00    +0.000 C 
BRANCH  18  24
ATOM     19  C   UNL     1      -5.033   4.600 134.105  0.00  0.00    +0.000 C 
ATOM     20  N   UNL     1      -6.010   3.883 133.313  0.00  0.00    +0.000 NA
ATOM     21  C   UNL     1      -5.313   2.778 132.662  0.00  0.00    +0.000 C 
ATOM     22  C   UNL     1      -6.440   1.920 132.148  0.00  0.00    +0.000 C 
ATOM     23  C   UNL     1      -7.637   2.244 133.038  0.00  0.00    +0.000 C 
ATOM     24  C   UNL     1      -7.141   3.276 134.051  0.00  0.00    +0.000 C 
ENDBRANCH  18  24
ENDBRANCH  17  18
ENDBRANCH  16  17
ENDBRANCH   1  16
TORSDOF 6
ENDMDL
MODEL 6
REMARK VINA RESULT:      -6.6      4.202      7.496
REMARK  Name = Clemastine
REMARK  8 active torsions:
REMARK  status: ('A' for Active; 'I' for Inactive)
REMARK    1  A    between atoms: C_1  and  N_2
REMARK    2  A    between atoms: C_6  and  C_7
REMARK    3  A    between atoms: C_7  and  C_8
REMARK    4  A    between atoms: C_8  and  O_9
REMARK    5  A    between atoms: O_9  and  C_10
REMARK    6  A    between atoms: C_10  and  C_11
REMARK    7  A    between atoms: C_10  and  C_12
REMARK    8  A    between atoms: C_10  and  C_18
REMARK                            x       y       z     vdW  Elec       q    Type
REMARK                         _______ _______ _______ _____ _____    ______ ____
ROOT
ATOM      1  C   UNL     1      -6.789  -1.530 127.552  0.00  0.00    +0.000 C 
ATOM      2  C   UNL     1      -5.611  -0.606 127.135  0.00  0.00    +0.000 C 
ENDROOT
BRANCH   1   3
ATOM      3  C   UNL     1      -6.182  -2.556 128.611  0.00  0.00    +0.000 A 
ATOM      4  C   UNL     1      -6.936  -3.345 129.501  0.00  0.00    +0.000 A 
ATOM      5  C   UNL     1      -6.357  -4.004 130.597  0.00  0.00    +0.000 A 
ATOM      6  C   UNL     1      -4.987  -4.035 130.744  0.00  0.00    +0.000 A 
ATOM      7 CL   UNL     1      -4.256  -4.866 132.053  0.00  0.00    +0.000 Cl
ATOM      8  C   UNL     1      -4.193  -3.436 129.780  0.00  0.00    +0.000 A 
ATOM      9  C   UNL     1      -4.792  -2.742 128.718  0.00  0.00    +0.000 A 
ENDBRANCH   1   3
BRANCH   1  10
ATOM     10  C   UNL     1      -7.460  -2.184 126.319  0.00  0.00    +0.000 A 
ATOM     11  C   UNL     1      -8.772  -2.684 126.378  0.00  0.00    +0.000 A 
ATOM     12  C   UNL     1      -9.379  -3.270 125.264  0.00  0.00    +0.000 A 
ATOM     13  C   UNL     1      -8.721  -3.291 124.041  0.00  0.00    +0.000 A 
ATOM     14  C   UNL     1      -7.411  -2.848 123.961  0.00  0.00    +0.000 A 
ATOM     15  C   UNL     1      -6.763  -2.408 125.116  0.00  0.00    +0.000 A 
ENDBRANCH   1  10
BRANCH   1  16
ATOM     16  O   UNL     1      -7.877  -0.645 128.025  0.00  0.00    +0.000 OA
BRANCH  16  17
ATOM     17  C   UNL     1      -7.833   0.654 127.471  0.00  0.00    +0.000 C 
BRANCH  17  18
ATOM     18  C   UNL     1      -9.024   1.226 126.726  0.00  0.00    +0.000 C 
BRANCH  18  24
ATOM     19  C   UNL     1      -8.100   3.838 124.887  0.00  0.00    +0.000 C 
ATOM     20  N   UNL     1      -8.984   2.729 124.596  0.00  0.00    +0.000 NA
ATOM     21  C   UNL     1      -8.935   2.502 123.154  0.00  0.00    +0.000 C 
ATOM     22  C   UNL     1      -9.602   1.160 122.998  0.00  0.00    +0.000 C 
ATOM     23  C   UNL     1      -9.428   0.460 124.342  0.00  0.00    +0.000 C 
ATOM     24  C   UNL     1      -8.646   1.432 125.226  0.00  0.00    +0.000 C 
ENDBRANCH  18  24
ENDBRANCH  17  18
ENDBRANCH  16  17
ENDBRANCH   1  16
TORSDOF 6
ENDMDL
MODEL 7
REMARK VINA RESULT:      -6.5      3.152      6.733
REMARK  Name = Clemastine
REMARK  8 active torsions:
REMARK  status: ('A' for Active; 'I' for Inactive)
REMARK    1  A    between atoms: C_1  and  N_2
REMARK    2  A    between atoms: C_6  and  C_7
REMARK    3  A    between atoms: C_7  and  C_8
REMARK    4  A    between atoms: C_8  and  O_9
REMARK    5  A    between atoms: O_9  and  C_10
REMARK    6  A    between atoms: C_10  and  C_11
REMARK    7  A    between atoms: C_10  and  C_12
REMARK    8  A    between atoms: C_10  and  C_18
REMARK                            x       y       z     vdW  Elec       q    Type
REMARK                         _______ _______ _______ _____ _____    ______ ____
ROOT
ATOM      1  C   UNL     1      -6.613  -1.589 128.018  0.00  0.00    +0.000 C 
ATOM      2  C   UNL     1      -7.705  -0.801 128.794  0.00  0.00    +0.000 C 
ENDROOT
BRANCH   1   3
ATOM      3  C   UNL     1      -7.360  -2.256 126.778  0.00  0.00    +0.000 A 
ATOM      4  C   UNL     1      -6.769  -2.534 125.529  0.00  0.00    +0.000 A 
ATOM      5  C   UNL     1      -7.530  -2.847 124.391  0.00  0.00    +0.000 A 
ATOM      6  C   UNL     1      -8.888  -3.057 124.500  0.00  0.00    +0.000 A 
ATOM      7 CL   UNL     1      -9.830  -3.479 123.131  0.00  0.00    +0.000 Cl
ATOM      8  C   UNL     1      -9.481  -2.988 125.749  0.00  0.00    +0.000 A 
ATOM      9  C   UNL     1      -8.713  -2.627 126.866  0.00  0.00    +0.000 A 
ENDBRANCH   1   3
BRANCH   1  10
ATOM     10  C   UNL     1      -5.864  -2.580 128.941  0.00  0.00    +0.000 A 
ATOM     11  C   UNL     1      -6.549  -3.363 129.885  0.00  0.00    +0.000 A 
ATOM     12  C   UNL     1      -5.875  -4.261 130.716  0.00  0.00    +0.000 A 
ATOM     13  C   UNL     1      -4.509  -4.462 130.562  0.00  0.00    +0.000 A 
ATOM     14  C   UNL     1      -3.797  -3.674 129.673  0.00  0.00    +0.000 A 
ATOM     15  C   UNL     1      -4.459  -2.673 128.960  0.00  0.00    +0.000 A 
ENDBRANCH   1  10
BRANCH   1  16
ATOM     16  O   UNL     1      -5.533  -0.624 127.710  0.00  0.00    +0.000 OA
BRANCH  16  17
ATOM     17  C   UNL     1      -5.999   0.605 127.192  0.00  0.00    +0.000 C 
BRANCH  17  18
ATOM     18  C   UNL     1      -5.428   1.178 125.909  0.00  0.00    +0.000 C 
BRANCH  18  24
ATOM     19  C   UNL     1      -6.049   3.695 123.825  0.00  0.00    +0.000 C 
ATOM     20  N   UNL     1      -6.915   2.966 124.729  0.00  0.00    +0.000 NA
ATOM     21  C   UNL     1      -8.261   3.002 124.163  0.00  0.00    +0.000 C 
ATOM     22  C   UNL     1      -8.998   1.966 124.972  0.00  0.00    +0.000 C 
ATOM     23  C   UNL     1      -7.924   1.013 125.489  0.00  0.00    +0.000 C 
ATOM     24  C   UNL     1      -6.596   1.535 124.937  0.00  0.00    +0.000 C 
ENDBRANCH  18  24
ENDBRANCH  17  18
ENDBRANCH  16  17
ENDBRANCH   1  16
TORSDOF 6
ENDMDL
MODEL 8
REMARK VINA RESULT:      -6.4      7.131      9.533
REMARK  Name = Clemastine
REMARK  8 active torsions:
REMARK  status: ('A' for Active; 'I' for Inactive)
REMARK    1  A    between atoms: C_1  and  N_2
REMARK    2  A    between atoms: C_6  and  C_7
REMARK    3  A    between atoms: C_7  and  C_8
REMARK    4  A    between atoms: C_8  and  O_9
REMARK    5  A    between atoms: O_9  and  C_10
REMARK    6  A    between atoms: C_10  and  C_11
REMARK    7  A    between atoms: C_10  and  C_12
REMARK    8  A    between atoms: C_10  and  C_18
REMARK                            x       y       z     vdW  Elec       q    Type
REMARK                         _______ _______ _______ _____ _____    ______ ____
ROOT
ATOM      1  C   UNL     1      -9.084   5.970 131.375  0.00  0.00    +0.000 C 
ATOM      2  C   UNL     1      -7.824   6.871 131.244  0.00  0.00    +0.000 C 
ENDROOT
BRANCH   1   3
ATOM      3  C   UNL     1      -8.740   4.630 130.583  0.00  0.00    +0.000 A 
ATOM      4  C   UNL     1      -7.569   4.408 129.833  0.00  0.00    +0.000 A 
ATOM      5  C   UNL     1      -7.446   3.341 128.928  0.00  0.00    +0.000 A 
ATOM      6  C   UNL     1      -8.420   2.367 128.867  0.00  0.00    +0.000 A 
ATOM      7 CL   UNL     1      -8.272   1.035 127.797  0.00  0.00    +0.000 Cl
ATOM      8  C   UNL     1      -9.499   2.441 129.730  0.00  0.00    +0.000 A 
ATOM      9  C   UNL     1      -9.628   3.539 130.593  0.00  0.00    +0.000 A 
ENDBRANCH   1   3
BRANCH   1  10
ATOM     10  C   UNL     1     -10.359   6.704 130.895  0.00  0.00    +0.000 A 
ATOM     11  C   UNL     1     -11.570   6.609 131.603  0.00  0.00    +0.000 A 
ATOM     12  C   UNL     1     -12.719   7.275 131.172  0.00  0.00    +0.000 A 
ATOM     13  C   UNL     1     -12.665   8.123 130.074  0.00  0.00    +0.000 A 
ATOM     14  C   UNL     1     -11.500   8.204 129.328  0.00  0.00    +0.000 A 
ATOM     15  C   UNL     1     -10.405   7.414 129.679  0.00  0.00    +0.000 A 
ENDBRANCH   1  10
BRANCH   1  16
ATOM     16  O   UNL     1      -9.364   5.840 132.823  0.00  0.00    +0.000 OA
BRANCH  16  17
ATOM     17  C   UNL     1      -8.203   5.698 133.616  0.00  0.00    +0.000 C 
BRANCH  17  18
ATOM     18  C   UNL     1      -8.093   4.591 134.647  0.00  0.00    +0.000 C 
BRANCH  18  24
ATOM     19  C   UNL     1      -4.927   4.702 133.634  0.00  0.00    +0.000 C 
ATOM     20  N   UNL     1      -6.061   3.945 133.145  0.00  0.00    +0.000 NA
ATOM     21  C   UNL     1      -5.540   2.713 132.560  0.00  0.00    +0.000 C 
ATOM     22  C   UNL     1      -6.776   1.868 132.390  0.00  0.00    +0.000 C 
ATOM     23  C   UNL     1      -7.775   2.396 133.416  0.00  0.00    +0.000 C 
ATOM     24  C   UNL     1      -7.061   3.528 134.155  0.00  0.00    +0.000 C 
ENDBRANCH  18  24
ENDBRANCH  17  18
ENDBRANCH  16  17
ENDBRANCH   1  16
TORSDOF 6
ENDMDL
MODEL 9
REMARK VINA RESULT:      -6.3      3.236      6.580
REMARK  Name = Clemastine
REMARK  8 active torsions:
REMARK  status: ('A' for Active; 'I' for Inactive)
REMARK    1  A    between atoms: C_1  and  N_2
REMARK    2  A    between atoms: C_6  and  C_7
REMARK    3  A    between atoms: C_7  and  C_8
REMARK    4  A    between atoms: C_8  and  O_9
REMARK    5  A    between atoms: O_9  and  C_10
REMARK    6  A    between atoms: C_10  and  C_11
REMARK    7  A    between atoms: C_10  and  C_12
REMARK    8  A    between atoms: C_10  and  C_18
REMARK                            x       y       z     vdW  Elec       q    Type
REMARK                         _______ _______ _______ _____ _____    ______ ____
ROOT
ATOM      1  C   UNL     1      -7.437  -2.442 128.485  0.00  0.00    +0.000 C 
ATOM      2  C   UNL     1      -8.655  -3.257 129.004  0.00  0.00    +0.000 C 
ENDROOT
BRANCH   1   3
ATOM      3  C   UNL     1      -7.502  -2.531 126.895  0.00  0.00    +0.000 A 
ATOM      4  C   UNL     1      -6.480  -2.120 126.017  0.00  0.00    +0.000 A 
ATOM      5  C   UNL     1      -6.697  -1.948 124.640  0.00  0.00    +0.000 A 
ATOM      6  C   UNL     1      -7.888  -2.340 124.070  0.00  0.00    +0.000 A 
ATOM      7 CL   UNL     1      -8.160  -2.176 122.385  0.00  0.00    +0.000 Cl
ATOM      8  C   UNL     1      -8.852  -2.934 124.867  0.00  0.00    +0.000 A 
ATOM      9  C   UNL     1      -8.637  -3.053 126.248  0.00  0.00    +0.000 A 
ENDBRANCH   1   3
BRANCH   1  10
ATOM     10  C   UNL     1      -6.113  -2.940 129.114  0.00  0.00    +0.000 A 
ATOM     11  C   UNL     1      -4.866  -2.495 128.645  0.00  0.00    +0.000 A 
ATOM     12  C   UNL     1      -3.671  -2.940 129.215  0.00  0.00    +0.000 A 
ATOM     13  C   UNL     1      -3.696  -3.774 130.326  0.00  0.00    +0.000 A 
ATOM     14  C   UNL     1      -4.907  -4.267 130.784  0.00  0.00    +0.000 A 
ATOM     15  C   UNL     1      -6.083  -3.937 130.109  0.00  0.00    +0.000 A 
ENDBRANCH   1  10
BRANCH   1  16
ATOM     16  O   UNL     1      -7.541  -1.093 129.086  0.00  0.00    +0.000 OA
BRANCH  16  17
ATOM     17  C   UNL     1      -7.323  -0.043 128.166  0.00  0.00    +0.000 C 
BRANCH  17  18
ATOM     18  C   UNL     1      -8.425   0.944 127.832  0.00  0.00    +0.000 C 
BRANCH  18  24
ATOM     19  C   UNL     1      -7.419   3.420 125.852  0.00  0.00    +0.000 C 
ATOM     20  N   UNL     1      -8.603   2.588 125.816  0.00  0.00    +0.000 NA
ATOM     21  C   UNL     1      -9.023   2.493 124.420  0.00  0.00    +0.000 C 
ATOM     22  C   UNL     1     -10.028   1.371 124.443  0.00  0.00    +0.000 C 
ATOM     23  C   UNL     1      -9.668   0.526 125.661  0.00  0.00    +0.000 C 
ATOM     24  C   UNL     1      -8.445   1.194 126.292  0.00  0.00    +0.000 C 
ENDBRANCH  18  24
ENDBRANCH  17  18
ENDBRANCH  16  17
ENDBRANCH   1  16
TORSDOF 6
ENDMDL
