MODEL 1
REMARK VINA RESULT:      -6.6      0.000      0.000
REMARK  Name = Clevidipine
REMARK  14 active torsions:
REMARK  status: ('A' for Active; 'I' for Inactive)
REMARK    1  A    between atoms: C_1  and  C_2
REMARK    2  A    between atoms: C_2  and  C_3
REMARK    3  A    between atoms: C_3  and  C_4
REMARK    4  A    between atoms: C_4  and  O_6
REMARK    5  A    between atoms: O_6  and  C_7
REMARK    6  A    between atoms: C_7  and  O_8
REMARK    7  A    between atoms: O_8  and  C_9
REMARK    8  A    between atoms: C_9  and  C_11
REMARK    9  A    between atoms: C_12  and  C_13
REMARK   10  A    between atoms: C_15  and  C_16
REMARK   11  A    between atoms: C_17  and  C_27
REMARK   12  A    between atoms: C_18  and  C_19
REMARK   13  A    between atoms: C_27  and  O_29
REMARK   14  A    between atoms: O_29  and  C_30
REMARK                            x       y       z     vdW  Elec       q    Type
REMARK                         _______ _______ _______ _____ _____    ______ ____
ROOT
ATOM      1  C   UNL     1      -6.593   3.253 125.406  0.00  0.00    +0.000 C 
ATOM      2  C   UNL     1      -5.526   3.771 124.752  0.00  0.00    +0.000 C 
ATOM      3  C   UNL     1      -5.560   4.476 123.424  0.00  0.00    +0.000 C 
ATOM      4  N   UNL     1      -4.270   3.715 125.342  0.00  0.00    +0.000 N 
ATOM      5  C   UNL     1      -4.044   3.501 126.695  0.00  0.00    +0.000 C 
ATOM      6  C   UNL     1      -2.672   3.894 127.193  0.00  0.00    +0.000 C 
ATOM      7  C   UNL     1      -5.029   2.981 127.472  0.00  0.00    +0.000 C 
ATOM      8  C   UNL     1      -6.366   2.588 126.796  0.00  0.00    +0.000 C 
ATOM      9  H   UNL     1      -3.486   4.065 124.795  0.00  0.00    +0.000 HD
ENDROOT
BRANCH   8  10
ATOM     10  C   UNL     1      -6.416   1.059 126.630  0.00  0.00    +0.000 A 
ATOM     11  C   UNL     1      -5.676   0.456 125.580  0.00  0.00    +0.000 A 
ATOM     12  C   UNL     1      -5.677  -0.921 125.383  0.00  0.00    +0.000 A 
ATOM     13  C   UNL     1      -6.398  -1.732 126.249  0.00  0.00    +0.000 A 
ATOM     14  C   UNL     1      -7.124  -1.166 127.302  0.00  0.00    +0.000 A 
ATOM     15 CL   UNL     1      -7.960  -2.258 128.355  0.00  0.00    +0.000 Cl
ATOM     16  C   UNL     1      -7.156   0.226 127.489  0.00  0.00    +0.000 A 
ATOM     17 CL   UNL     1      -8.115   0.903 128.767  0.00  0.00    +0.000 Cl
ENDBRANCH   8  10
BRANCH   1  18
ATOM     18  C   UNL     1      -8.006   3.363 124.911  0.00  0.00    +0.000 C 
ATOM     19  O   UNL     1      -8.819   4.118 125.436  0.00  0.00    +0.000 OA
BRANCH  18  20
ATOM     20  O   UNL     1      -8.282   2.550 123.850  0.00  0.00    +0.000 OA
BRANCH  20  21
ATOM     21  C   UNL     1      -9.343   1.571 124.048  0.00  0.00    +0.000 C 
BRANCH  21  22
ATOM     22  O   UNL     1      -8.810   0.214 124.070  0.00  0.00    +0.000 OA
BRANCH  22  23
ATOM     23  C   UNL     1      -9.304  -0.604 123.089  0.00  0.00    +0.000 C 
ATOM     24  O   UNL     1     -10.287  -0.335 122.409  0.00  0.00    +0.000 OA
BRANCH  23  25
ATOM     25  C   UNL     1      -8.493  -1.891 122.937  0.00  0.00    +0.000 C 
BRANCH  25  27
ATOM     26  C   UNL     1      -9.346  -3.239 124.937  0.00  0.00    +0.000 C 
ATOM     27  C   UNL     1      -9.286  -3.119 123.420  0.00  0.00    +0.000 C 
ENDBRANCH  25  27
ENDBRANCH  23  25
ENDBRANCH  22  23
ENDBRANCH  21  22
ENDBRANCH  20  21
ENDBRANCH  18  20
ENDBRANCH   1  18
BRANCH   7  28
ATOM     28  C   UNL     1      -4.798   2.772 128.944  0.00  0.00    +0.000 C 
ATOM     29  O   UNL     1      -4.302   1.758 129.423  0.00  0.00    +0.000 OA
BRANCH  28  30
ATOM     30  O   UNL     1      -5.193   3.821 129.707  0.00  0.00    +0.000 OA
ATOM     31  C   UNL     1      -4.175   4.305 130.606  0.00  0.00    +0.000 C 
ENDBRANCH  28  30
ENDBRANCH   7  28
TORSDOF 10
ENDMDL
MODEL 2
REMARK VINA RESULT:      -6.6      1.957      2.806
REMARK  Name = Clevidipine
REMARK  14 active torsions:
REMARK  status: ('A' for Active; 'I' for Inactive)
REMARK    1  A    between atoms: C_1  and  C_2
REMARK    2  A    between atoms: C_2  and  C_3
REMARK    3  A    between atoms: C_3  and  C_4
REMARK    4  A    between atoms: C_4  and  O_6
REMARK    5  A    between atoms: O_6  and  C_7
REMARK    6  A    between atoms: C_7  and  O_8
REMARK    7  A    between atoms: O_8  and  C_9
REMARK    8  A    between atoms: C_9  and  C_11
REMARK    9  A    between atoms: C_12  and  C_13
REMARK   10  A    between atoms: C_15  and  C_16
REMARK   11  A    between atoms: C_17  and  C_27
REMARK   12  A    between atoms: C_18  and  C_19
REMARK   13  A    between atoms: C_27  and  O_29
REMARK   14  A    between atoms: O_29  and  C_30
REMARK                            x       y       z     vdW  Elec       q    Type
REMARK                         _______ _______ _______ _____ _____    ______ ____
ROOT
ATOM      1  C   UNL     1      -8.780   2.038 124.530  0.00  0.00    +0.000 C 
ATOM      2  C   UNL     1      -8.279   2.820 123.546  0.00  0.00    +0.000 C 
ATOM      3  C   UNL     1      -8.700   2.803 122.102  0.00  0.00    +0.000 C 
ATOM      4  N   UNL     1      -7.321   3.778 123.854  0.00  0.00    +0.000 N 
ATOM      5  C   UNL     1      -7.076   4.265 125.131  0.00  0.00    +0.000 C 
ATOM      6  C   UNL     1      -6.319   5.571 125.192  0.00  0.00    +0.000 C 
ATOM      7  C   UNL     1      -7.519   3.577 126.214  0.00  0.00    +0.000 C 
ATOM      8  C   UNL     1      -8.242   2.226 125.980  0.00  0.00    +0.000 C 
ATOM      9  H   UNL     1      -6.930   4.308 123.078  0.00  0.00    +0.000 HD
ENDROOT
BRANCH   8  10
ATOM     10  C   UNL     1      -7.274   1.075 126.305  0.00  0.00    +0.000 A 
ATOM     11  C   UNL     1      -6.365   0.637 125.306  0.00  0.00    +0.000 A 
ATOM     12  C   UNL     1      -5.462  -0.395 125.543  0.00  0.00    +0.000 A 
ATOM     13  C   UNL     1      -5.428  -0.997 126.793  0.00  0.00    +0.000 A 
ATOM     14  C   UNL     1      -6.302  -0.575 127.801  0.00  0.00    +0.000 A 
ATOM     15 CL   UNL     1      -6.160  -1.355 129.341  0.00  0.00    +0.000 Cl
ATOM     16  C   UNL     1      -7.240   0.444 127.562  0.00  0.00    +0.000 A 
ATOM     17 CL   UNL     1      -8.351   0.904 128.812  0.00  0.00    +0.000 Cl
ENDBRANCH   8  10
BRANCH   1  18
ATOM     18  C   UNL     1      -9.896   1.055 124.326  0.00  0.00    +0.000 C 
ATOM     19  O   UNL     1     -11.072   1.405 124.316  0.00  0.00    +0.000 OA
BRANCH  18  20
ATOM     20  O   UNL     1      -9.473  -0.232 124.166  0.00  0.00    +0.000 OA
BRANCH  20  21
ATOM     21  C   UNL     1      -9.439  -0.732 122.797  0.00  0.00    +0.000 C 
BRANCH  21  22
ATOM     22  O   UNL     1      -8.495  -1.835 122.664  0.00  0.00    +0.000 OA
BRANCH  22  23
ATOM     23  C   UNL     1      -8.765  -2.912 123.466  0.00  0.00    +0.000 C 
ATOM     24  O   UNL     1      -9.860  -3.459 123.526  0.00  0.00    +0.000 OA
BRANCH  23  25
ATOM     25  C   UNL     1      -7.548  -3.357 124.277  0.00  0.00    +0.000 C 
BRANCH  25  27
ATOM     26  C   UNL     1      -5.071  -3.891 123.922  0.00  0.00    +0.000 C 
ATOM     27  C   UNL     1      -6.231  -2.964 123.583  0.00  0.00    +0.000 C 
ENDBRANCH  25  27
ENDBRANCH  23  25
ENDBRANCH  22  23
ENDBRANCH  21  22
ENDBRANCH  20  21
ENDBRANCH  18  20
ENDBRANCH   1  18
BRANCH   7  28
ATOM     28  C   UNL     1      -7.280   4.113 127.599  0.00  0.00    +0.000 C 
ATOM     29  O   UNL     1      -8.084   4.801 128.217  0.00  0.00    +0.000 OA
BRANCH  28  30
ATOM     30  O   UNL     1      -6.074   3.761 128.113  0.00  0.00    +0.000 OA
ATOM     31  C   UNL     1      -5.828   4.285 129.433  0.00  0.00    +0.000 C 
ENDBRANCH  28  30
ENDBRANCH   7  28
TORSDOF 10
ENDMDL
MODEL 3
REMARK VINA RESULT:      -6.4      2.978      6.001
REMARK  Name = Clevidipine
REMARK  14 active torsions:
REMARK  status: ('A' for Active; 'I' for Inactive)
REMARK    1  A    between atoms: C_1  and  C_2
REMARK    2  A    between atoms: C_2  and  C_3
REMARK    3  A    between atoms: C_3  and  C_4
REMARK    4  A    between atoms: C_4  and  O_6
REMARK    5  A    between atoms: O_6  and  C_7
REMARK    6  A    between atoms: C_7  and  O_8
REMARK    7  A    between atoms: O_8  and  C_9
REMARK    8  A    between atoms: C_9  and  C_11
REMARK    9  A    between atoms: C_12  and  C_13
REMARK   10  A    between atoms: C_15  and  C_16
REMARK   11  A    between atoms: C_17  and  C_27
REMARK   12  A    between atoms: C_18  and  C_19
REMARK   13  A    between atoms: C_27  and  O_29
REMARK   14  A    between atoms: O_29  and  C_30
REMARK                            x       y       z     vdW  Elec       q    Type
REMARK                         _______ _______ _______ _____ _____    ______ ____
ROOT
ATOM      1  C   UNL     1      -8.158   0.231 125.746  0.00  0.00    +0.000 C 
ATOM      2  C   UNL     1      -9.031   0.276 124.711  0.00  0.00    +0.000 C 
ATOM      3  C   UNL     1     -10.060   1.346 124.469  0.00  0.00    +0.000 C 
ATOM      4  N   UNL     1      -8.979  -0.705 123.730  0.00  0.00    +0.000 N 
ATOM      5  C   UNL     1      -7.891  -1.537 123.504  0.00  0.00    +0.000 C 
ATOM      6  C   UNL     1      -7.867  -2.222 122.157  0.00  0.00    +0.000 C 
ATOM      7  C   UNL     1      -6.938  -1.680 124.461  0.00  0.00    +0.000 C 
ATOM      8  C   UNL     1      -7.136  -0.943 125.810  0.00  0.00    +0.000 C 
ATOM      9  H   UNL     1      -9.687  -0.667 123.000  0.00  0.00    +0.000 HD
ENDROOT
BRANCH   8  10
ATOM     10  C   UNL     1      -7.604  -1.953 126.871  0.00  0.00    +0.000 A 
ATOM     11  C   UNL     1      -8.686  -2.820 126.568  0.00  0.00    +0.000 A 
ATOM     12  C   UNL     1      -9.150  -3.758 127.485  0.00  0.00    +0.000 A 
ATOM     13  C   UNL     1      -8.526  -3.869 128.720  0.00  0.00    +0.000 A 
ATOM     14  C   UNL     1      -7.447  -3.037 129.041  0.00  0.00    +0.000 A 
ATOM     15 CL   UNL     1      -6.705  -3.275 130.587  0.00  0.00    +0.000 Cl
ATOM     16  C   UNL     1      -6.992  -2.065 128.133  0.00  0.00    +0.000 A 
ATOM     17 CL   UNL     1      -5.692  -1.007 128.583  0.00  0.00    +0.000 Cl
ENDBRANCH   8  10
BRANCH   1  18
ATOM     18  C   UNL     1      -8.053   1.300 126.794  0.00  0.00    +0.000 C 
ATOM     19  O   UNL     1      -9.007   1.609 127.501  0.00  0.00    +0.000 OA
BRANCH  18  20
ATOM     20  O   UNL     1      -6.819   1.879 126.867  0.00  0.00    +0.000 OA
BRANCH  20  21
ATOM     21  C   UNL     1      -6.275   2.394 125.616  0.00  0.00    +0.000 C 
BRANCH  21  22
ATOM     22  O   UNL     1      -5.713   3.727 125.797  0.00  0.00    +0.000 OA
BRANCH  22  23
ATOM     23  C   UNL     1      -6.060   4.625 124.822  0.00  0.00    +0.000 C 
ATOM     24  O   UNL     1      -6.223   5.822 125.026  0.00  0.00    +0.000 OA
BRANCH  23  25
ATOM     25  C   UNL     1      -6.222   3.968 123.452  0.00  0.00    +0.000 C 
BRANCH  25  27
ATOM     26  C   UNL     1      -5.181   3.732 121.126  0.00  0.00    +0.000 C 
ATOM     27  C   UNL     1      -5.175   4.488 122.448  0.00  0.00    +0.000 C 
ENDBRANCH  25  27
ENDBRANCH  23  25
ENDBRANCH  22  23
ENDBRANCH  21  22
ENDBRANCH  20  21
ENDBRANCH  18  20
ENDBRANCH   1  18
BRANCH   7  28
ATOM     28  C   UNL     1      -5.744  -2.560 124.211  0.00  0.00    +0.000 C 
ATOM     29  O   UNL     1      -4.614  -2.138 123.989  0.00  0.00    +0.000 OA
BRANCH  28  30
ATOM     30  O   UNL     1      -6.031  -3.886 124.255  0.00  0.00    +0.000 OA
ATOM     31  C   UNL     1      -4.930  -4.734 123.873  0.00  0.00    +0.000 C 
ENDBRANCH  28  30
ENDBRANCH   7  28
TORSDOF 10
ENDMDL
MODEL 4
REMARK VINA RESULT:      -6.3      4.027      7.212
REMARK  Name = Clevidipine
REMARK  14 active torsions:
REMARK  status: ('A' for Active; 'I' for Inactive)
REMARK    1  A    between atoms: C_1  and  C_2
REMARK    2  A    between atoms: C_2  and  C_3
REMARK    3  A    between atoms: C_3  and  C_4
REMARK    4  A    between atoms: C_4  and  O_6
REMARK    5  A    between atoms: O_6  and  C_7
REMARK    6  A    between atoms: C_7  and  O_8
REMARK    7  A    between atoms: O_8  and  C_9
REMARK    8  A    between atoms: C_9  and  C_11
REMARK    9  A    between atoms: C_12  and  C_13
REMARK   10  A    between atoms: C_15  and  C_16
REMARK   11  A    between atoms: C_17  and  C_27
REMARK   12  A    between atoms: C_18  and  C_19
REMARK   13  A    between atoms: C_27  and  O_29
REMARK   14  A    between atoms: O_29  and  C_30
REMARK                            x       y       z     vdW  Elec       q    Type
REMARK                         _______ _______ _______ _____ _____    ______ ____
ROOT
ATOM      1  C   UNL     1      -8.095   2.281 128.991  0.00  0.00    +0.000 C 
ATOM      2  C   UNL     1      -7.767   1.307 129.873  0.00  0.00    +0.000 C 
ATOM      3  C   UNL     1      -7.735   1.445 131.370  0.00  0.00    +0.000 C 
ATOM      4  N   UNL     1      -7.474   0.032 129.406  0.00  0.00    +0.000 N 
ATOM      5  C   UNL     1      -7.825  -0.448 128.152  0.00  0.00    +0.000 C 
ATOM      6  C   UNL     1      -7.796  -1.951 128.003  0.00  0.00    +0.000 C 
ATOM      7  C   UNL     1      -8.173   0.420 127.168  0.00  0.00    +0.000 C 
ATOM      8  C   UNL     1      -8.107   1.938 127.471  0.00  0.00    +0.000 C 
ATOM      9  H   UNL     1      -7.178  -0.656 130.096  0.00  0.00    +0.000 HD
ENDROOT
BRANCH   8  10
ATOM     10  C   UNL     1      -6.845   2.527 126.818  0.00  0.00    +0.000 A 
ATOM     11  C   UNL     1      -5.596   2.376 127.475  0.00  0.00    +0.000 A 
ATOM     12  C   UNL     1      -4.419   2.882 126.931  0.00  0.00    +0.000 A 
ATOM     13  C   UNL     1      -4.459   3.529 125.703  0.00  0.00    +0.000 A 
ATOM     14  C   UNL     1      -5.674   3.678 125.026  0.00  0.00    +0.000 A 
ATOM     15 CL   UNL     1      -5.622   4.462 123.482  0.00  0.00    +0.000 Cl
ATOM     16  C   UNL     1      -6.873   3.200 125.583  0.00  0.00    +0.000 A 
ATOM     17 CL   UNL     1      -8.373   3.454 124.749  0.00  0.00    +0.000 Cl
ENDBRANCH   8  10
BRANCH   1  18
ATOM     18  C   UNL     1      -8.540   3.656 129.396  0.00  0.00    +0.000 C 
ATOM     19  O   UNL     1      -7.737   4.561 129.601  0.00  0.00    +0.000 OA
BRANCH  18  20
ATOM     20  O   UNL     1      -9.893   3.783 129.513  0.00  0.00    +0.000 OA
BRANCH  20  21
ATOM     21  C   UNL     1     -10.372   5.010 130.138  0.00  0.00    +0.000 C 
BRANCH  21  22
ATOM     22  O   UNL     1     -10.926   5.924 129.145  0.00  0.00    +0.000 OA
BRANCH  22  23
ATOM     23  C   UNL     1     -10.264   7.119 129.044  0.00  0.00    +0.000 C 
ATOM     24  O   UNL     1      -9.377   7.473 129.812  0.00  0.00    +0.000 OA
BRANCH  23  25
ATOM     25  C   UNL     1     -10.753   7.961 127.866  0.00  0.00    +0.000 C 
BRANCH  25  27
ATOM     26  C   UNL     1     -12.533   8.986 129.393  0.00  0.00    +0.000 C 
ATOM     27  C   UNL     1     -12.230   8.364 128.035  0.00  0.00    +0.000 C 
ENDBRANCH  25  27
ENDBRANCH  23  25
ENDBRANCH  22  23
ENDBRANCH  21  22
ENDBRANCH  20  21
ENDBRANCH  18  20
ENDBRANCH   1  18
BRANCH   7  28
ATOM     28  C   UNL     1      -8.581  -0.097 125.815  0.00  0.00    +0.000 C 
ATOM     29  O   UNL     1      -9.741  -0.322 125.487  0.00  0.00    +0.000 OA
BRANCH  28  30
ATOM     30  O   UNL     1      -7.534  -0.294 124.974  0.00  0.00    +0.000 OA
ATOM     31  C   UNL     1      -7.821   0.029 123.599  0.00  0.00    +0.000 C 
ENDBRANCH  28  30
ENDBRANCH   7  28
TORSDOF 10
ENDMDL
MODEL 5
REMARK VINA RESULT:      -6.3      3.935      7.105
REMARK  Name = Clevidipine
REMARK  14 active torsions:
REMARK  status: ('A' for Active; 'I' for Inactive)
REMARK    1  A    between atoms: C_1  and  C_2
REMARK    2  A    between atoms: C_2  and  C_3
REMARK    3  A    between atoms: C_3  and  C_4
REMARK    4  A    between atoms: C_4  and  O_6
REMARK    5  A    between atoms: O_6  and  C_7
REMARK    6  A    between atoms: C_7  and  O_8
REMARK    7  A    between atoms: O_8  and  C_9
REMARK    8  A    between atoms: C_9  and  C_11
REMARK    9  A    between atoms: C_12  and  C_13
REMARK   10  A    between atoms: C_15  and  C_16
REMARK   11  A    between atoms: C_17  and  C_27
REMARK   12  A    between atoms: C_18  and  C_19
REMARK   13  A    between atoms: C_27  and  O_29
REMARK   14  A    between atoms: O_29  and  C_30
REMARK                            x       y       z     vdW  Elec       q    Type
REMARK                         _______ _______ _______ _____ _____    ______ ____
ROOT
ATOM      1  C   UNL     1      -7.999   1.754 128.153  0.00  0.00    +0.000 C 
ATOM      2  C   UNL     1      -7.029   1.148 128.879  0.00  0.00    +0.000 C 
ATOM      3  C   UNL     1      -6.508   1.606 130.214  0.00  0.00    +0.000 C 
ATOM      4  N   UNL     1      -6.466  -0.034 128.416  0.00  0.00    +0.000 N 
ATOM      5  C   UNL     1      -7.041  -0.858 127.458  0.00  0.00    +0.000 C 
ATOM      6  C   UNL     1      -6.500  -2.268 127.408  0.00  0.00    +0.000 C 
ATOM      7  C   UNL     1      -8.025  -0.378 126.655  0.00  0.00    +0.000 C 
ATOM      8  C   UNL     1      -8.434   1.109 126.803  0.00  0.00    +0.000 C 
ATOM      9  H   UNL     1      -5.703  -0.428 128.962  0.00  0.00    +0.000 HD
ENDROOT
BRANCH   8  10
ATOM     10  C   UNL     1      -7.822   1.917 125.646  0.00  0.00    +0.000 A 
ATOM     11  C   UNL     1      -6.492   2.399 125.770  0.00  0.00    +0.000 A 
ATOM     12  C   UNL     1      -5.883   3.130 124.755  0.00  0.00    +0.000 A 
ATOM     13  C   UNL     1      -6.580   3.375 123.579  0.00  0.00    +0.000 A 
ATOM     14  C   UNL     1      -7.887   2.899 123.423  0.00  0.00    +0.000 A 
ATOM     15 CL   UNL     1      -8.663   3.216 121.909  0.00  0.00    +0.000 Cl
ATOM     16  C   UNL     1      -8.522   2.188 124.456  0.00  0.00    +0.000 A 
ATOM     17 CL   UNL     1     -10.164   1.663 124.258  0.00  0.00    +0.000 Cl
ENDBRANCH   8  10
BRANCH   1  18
ATOM     18  C   UNL     1      -8.751   2.968 128.616  0.00  0.00    +0.000 C 
ATOM     19  O   UNL     1      -8.433   4.099 128.264  0.00  0.00    +0.000 OA
BRANCH  18  20
ATOM     20  O   UNL     1      -9.790   2.683 129.454  0.00  0.00    +0.000 OA
BRANCH  20  21
ATOM     21  C   UNL     1     -10.130   3.711 130.429  0.00  0.00    +0.000 C 
BRANCH  21  22
ATOM     22  O   UNL     1     -11.263   4.511 129.978  0.00  0.00    +0.000 OA
BRANCH  22  23
ATOM     23  C   UNL     1     -11.103   5.861 130.140  0.00  0.00    +0.000 C 
ATOM     24  O   UNL     1     -10.283   6.364 130.899  0.00  0.00    +0.000 OA
BRANCH  23  25
ATOM     25  C   UNL     1     -12.061   6.672 129.268  0.00  0.00    +0.000 C 
BRANCH  25  27
ATOM     26  C   UNL     1     -10.672   8.462 128.078  0.00  0.00    +0.000 C 
ATOM     27  C   UNL     1     -11.649   8.155 129.205  0.00  0.00    +0.000 C 
ENDBRANCH  25  27
ENDBRANCH  23  25
ENDBRANCH  22  23
ENDBRANCH  21  22
ENDBRANCH  20  21
ENDBRANCH  18  20
ENDBRANCH   1  18
BRANCH   7  28
ATOM     28  C   UNL     1      -8.669  -1.275 125.633  0.00  0.00    +0.000 C 
ATOM     29  O   UNL     1      -9.752  -1.829 125.791  0.00  0.00    +0.000 OA
BRANCH  28  30
ATOM     30  O   UNL     1      -7.935  -1.418 124.500  0.00  0.00    +0.000 OA
ATOM     31  C   UNL     1      -8.726  -1.488 123.297  0.00  0.00    +0.000 C 
ENDBRANCH  28  30
ENDBRANCH   7  28
TORSDOF 10
ENDMDL
MODEL 6
REMARK VINA RESULT:      -6.3      3.728      5.501
REMARK  Name = Clevidipine
REMARK  14 active torsions:
REMARK  status: ('A' for Active; 'I' for Inactive)
REMARK    1  A    between atoms: C_1  and  C_2
REMARK    2  A    between atoms: C_2  and  C_3
REMARK    3  A    between atoms: C_3  and  C_4
REMARK    4  A    between atoms: C_4  and  O_6
REMARK    5  A    between atoms: O_6  and  C_7
REMARK    6  A    between atoms: C_7  and  O_8
REMARK    7  A    between atoms: O_8  and  C_9
REMARK    8  A    between atoms: C_9  and  C_11
REMARK    9  A    between atoms: C_12  and  C_13
REMARK   10  A    between atoms: C_15  and  C_16
REMARK   11  A    between atoms: C_17  and  C_27
REMARK   12  A    between atoms: C_18  and  C_19
REMARK   13  A    between atoms: C_27  and  O_29
REMARK   14  A    between atoms: O_29  and  C_30
REMARK                            x       y       z     vdW  Elec       q    Type
REMARK                         _______ _______ _______ _____ _____    ______ ____
ROOT
ATOM      1  C   UNL     1      -7.540  -1.148 127.802  0.00  0.00    +0.000 C 
ATOM      2  C   UNL     1      -7.925  -2.447 127.794  0.00  0.00    +0.000 C 
ATOM      3  C   UNL     1      -8.743  -3.119 126.726  0.00  0.00    +0.000 C 
ATOM      4  N   UNL     1      -7.509  -3.290 128.816  0.00  0.00    +0.000 N 
ATOM      5  C   UNL     1      -6.443  -3.031 129.667  0.00  0.00    +0.000 C 
ATOM      6  C   UNL     1      -5.899  -4.230 130.408  0.00  0.00    +0.000 C 
ATOM      7  C   UNL     1      -5.957  -1.768 129.778  0.00  0.00    +0.000 C 
ATOM      8  C   UNL     1      -6.659  -0.639 128.982  0.00  0.00    +0.000 C 
ATOM      9  H   UNL     1      -7.864  -4.244 128.803  0.00  0.00    +0.000 HD
ENDROOT
BRANCH   8  10
ATOM     10  C   UNL     1      -7.538   0.181 129.941  0.00  0.00    +0.000 A 
ATOM     11  C   UNL     1      -8.356  -0.501 130.879  0.00  0.00    +0.000 A 
ATOM     12  C   UNL     1      -9.167   0.187 131.777  0.00  0.00    +0.000 A 
ATOM     13  C   UNL     1      -9.161   1.575 131.775  0.00  0.00    +0.000 A 
ATOM     14  C   UNL     1      -8.353   2.274 130.871  0.00  0.00    +0.000 A 
ATOM     15 CL   UNL     1      -8.379   4.002 130.969  0.00  0.00    +0.000 Cl
ATOM     16  C   UNL     1      -7.555   1.588 129.939  0.00  0.00    +0.000 A 
ATOM     17 CL   UNL     1      -6.610   2.482 128.791  0.00  0.00    +0.000 Cl
ENDBRANCH   8  10
BRANCH   1  18
ATOM     18  C   UNL     1      -7.837  -0.185 126.691  0.00  0.00    +0.000 C 
ATOM     19  O   UNL     1      -8.901   0.422 126.627  0.00  0.00    +0.000 OA
BRANCH  18  20
ATOM     20  O   UNL     1      -6.826  -0.067 125.781  0.00  0.00    +0.000 OA
BRANCH  20  21
ATOM     21  C   UNL     1      -7.226   0.037 124.384  0.00  0.00    +0.000 C 
BRANCH  21  22
ATOM     22  O   UNL     1      -6.451  -0.870 123.545  0.00  0.00    +0.000 OA
BRANCH  22  23
ATOM     23  C   UNL     1      -6.743  -2.196 123.724  0.00  0.00    +0.000 C 
ATOM     24  O   UNL     1      -7.790  -2.718 123.359  0.00  0.00    +0.000 OA
BRANCH  23  25
ATOM     25  C   UNL     1      -5.618  -2.953 124.430  0.00  0.00    +0.000 C 
BRANCH  25  27
ATOM     26  C   UNL     1      -4.313  -4.930 123.465  0.00  0.00    +0.000 C 
ATOM     27  C   UNL     1      -4.543  -3.425 123.433  0.00  0.00    +0.000 C 
ENDBRANCH  25  27
ENDBRANCH  23  25
ENDBRANCH  22  23
ENDBRANCH  21  22
ENDBRANCH  20  21
ENDBRANCH  18  20
ENDBRANCH   1  18
BRANCH   7  28
ATOM     28  C   UNL     1      -4.785  -1.487 130.678  0.00  0.00    +0.000 C 
ATOM     29  O   UNL     1      -3.618  -1.468 130.300  0.00  0.00    +0.000 OA
BRANCH  28  30
ATOM     30  O   UNL     1      -5.138  -1.250 131.966  0.00  0.00    +0.000 OA
ATOM     31  C   UNL     1      -4.304  -1.920 132.932  0.00  0.00    +0.000 C 
ENDBRANCH  28  30
ENDBRANCH   7  28
TORSDOF 10
ENDMDL
MODEL 7
REMARK VINA RESULT:      -6.3      5.058      7.119
REMARK  Name = Clevidipine
REMARK  14 active torsions:
REMARK  status: ('A' for Active; 'I' for Inactive)
REMARK    1  A    between atoms: C_1  and  C_2
REMARK    2  A    between atoms: C_2  and  C_3
REMARK    3  A    between atoms: C_3  and  C_4
REMARK    4  A    between atoms: C_4  and  O_6
REMARK    5  A    between atoms: O_6  and  C_7
REMARK    6  A    between atoms: C_7  and  O_8
REMARK    7  A    between atoms: O_8  and  C_9
REMARK    8  A    between atoms: C_9  and  C_11
REMARK    9  A    between atoms: C_12  and  C_13
REMARK   10  A    between atoms: C_15  and  C_16
REMARK   11  A    between atoms: C_17  and  C_27
REMARK   12  A    between atoms: C_18  and  C_19
REMARK   13  A    between atoms: C_27  and  O_29
REMARK   14  A    between atoms: O_29  and  C_30
REMARK                            x       y       z     vdW  Elec       q    Type
REMARK                         _______ _______ _______ _____ _____    ______ ____
ROOT
ATOM      1  C   UNL     1      -6.934   4.855 130.477  0.00  0.00    +0.000 C 
ATOM      2  C   UNL     1      -7.257   5.891 131.286  0.00  0.00    +0.000 C 
ATOM      3  C   UNL     1      -8.517   6.710 131.213  0.00  0.00    +0.000 C 
ATOM      4  N   UNL     1      -6.406   6.238 132.327  0.00  0.00    +0.000 N 
ATOM      5  C   UNL     1      -5.423   5.408 132.851  0.00  0.00    +0.000 C 
ATOM      6  C   UNL     1      -4.910   5.795 134.218  0.00  0.00    +0.000 C 
ATOM      7  C   UNL     1      -4.999   4.331 132.142  0.00  0.00    +0.000 C 
ATOM      8  C   UNL     1      -5.595   4.099 130.731  0.00  0.00    +0.000 C 
ATOM      9  H   UNL     1      -6.657   7.056 132.878  0.00  0.00    +0.000 HD
ENDROOT
BRANCH   8  10
ATOM     10  C   UNL     1      -4.568   4.537 129.672  0.00  0.00    +0.000 A 
ATOM     11  C   UNL     1      -4.370   5.922 129.438  0.00  0.00    +0.000 A 
ATOM     12  C   UNL     1      -3.451   6.379 128.497  0.00  0.00    +0.000 A 
ATOM     13  C   UNL     1      -2.689   5.461 127.787  0.00  0.00    +0.000 A 
ATOM     14  C   UNL     1      -2.853   4.089 128.009  0.00  0.00    +0.000 A 
ATOM     15 CL   UNL     1      -1.832   3.020 127.108  0.00  0.00    +0.000 Cl
ATOM     16  C   UNL     1      -3.802   3.617 128.933  0.00  0.00    +0.000 A 
ATOM     17 CL   UNL     1      -4.026   1.910 129.142  0.00  0.00    +0.000 Cl
ENDBRANCH   8  10
BRANCH   1  18
ATOM     18  C   UNL     1      -7.835   4.327 129.399  0.00  0.00    +0.000 C 
ATOM     19  O   UNL     1      -7.720   4.678 128.229  0.00  0.00    +0.000 OA
BRANCH  18  20
ATOM     20  O   UNL     1      -8.774   3.445 129.851  0.00  0.00    +0.000 OA
BRANCH  20  21
ATOM     21  C   UNL     1      -8.521   2.037 129.573  0.00  0.00    +0.000 C 
BRANCH  21  22
ATOM     22  O   UNL     1      -8.030   1.347 130.760  0.00  0.00    +0.000 OA
BRANCH  22  23
ATOM     23  C   UNL     1      -8.829   1.479 131.864  0.00  0.00    +0.000 C 
ATOM     24  O   UNL     1      -9.953   0.998 131.952  0.00  0.00    +0.000 OA
BRANCH  23  25
ATOM     25  C   UNL     1      -8.165   2.293 132.974  0.00  0.00    +0.000 C 
BRANCH  25  27
ATOM     26  C   UNL     1      -8.447   4.285 134.555  0.00  0.00    +0.000 C 
ATOM     27  C   UNL     1      -9.094   3.407 133.492  0.00  0.00    +0.000 C 
ENDBRANCH  25  27
ENDBRANCH  23  25
ENDBRANCH  22  23
ENDBRANCH  21  22
ENDBRANCH  20  21
ENDBRANCH  18  20
ENDBRANCH   1  18
BRANCH   7  28
ATOM     28  C   UNL     1      -3.953   3.414 132.716  0.00  0.00    +0.000 C 
ATOM     29  O   UNL     1      -2.746   3.570 132.566  0.00  0.00    +0.000 OA
BRANCH  28  30
ATOM     30  O   UNL     1      -4.472   2.381 133.427  0.00  0.00    +0.000 OA
ATOM     31  C   UNL     1      -3.896   2.229 134.740  0.00  0.00    +0.000 C 
ENDBRANCH  28  30
ENDBRANCH   7  28
TORSDOF 10
ENDMDL
MODEL 8
REMARK VINA RESULT:      -6.0      2.812      4.457
REMARK  Name = Clevidipine
REMARK  14 active torsions:
REMARK  status: ('A' for Active; 'I' for Inactive)
REMARK    1  A    between atoms: C_1  and  C_2
REMARK    2  A    between atoms: C_2  and  C_3
REMARK    3  A    between atoms: C_3  and  C_4
REMARK    4  A    between atoms: C_4  and  O_6
REMARK    5  A    between atoms: O_6  and  C_7
REMARK    6  A    between atoms: C_7  and  O_8
REMARK    7  A    between atoms: O_8  and  C_9
REMARK    8  A    between atoms: C_9  and  C_11
REMARK    9  A    between atoms: C_12  and  C_13
REMARK   10  A    between atoms: C_15  and  C_16
REMARK   11  A    between atoms: C_17  and  C_27
REMARK   12  A    between atoms: C_18  and  C_19
REMARK   13  A    between atoms: C_27  and  O_29
REMARK   14  A    between atoms: O_29  and  C_30
REMARK                            x       y       z     vdW  Elec       q    Type
REMARK                         _______ _______ _______ _____ _____    ______ ____
ROOT
ATOM      1  C   UNL     1      -6.124   2.034 127.640  0.00  0.00    +0.000 C 
ATOM      2  C   UNL     1      -5.228   1.406 126.842  0.00  0.00    +0.000 C 
ATOM      3  C   UNL     1      -5.538   0.320 125.850  0.00  0.00    +0.000 C 
ATOM      4  N   UNL     1      -3.896   1.799 126.868  0.00  0.00    +0.000 N 
ATOM      5  C   UNL     1      -3.442   3.012 127.368  0.00  0.00    +0.000 C 
ATOM      6  C   UNL     1      -2.055   3.417 126.926  0.00  0.00    +0.000 C 
ATOM      7  C   UNL     1      -4.237   3.747 128.187  0.00  0.00    +0.000 C 
ATOM      8  C   UNL     1      -5.619   3.167 128.583  0.00  0.00    +0.000 C 
ATOM      9  H   UNL     1      -3.245   1.266 126.295  0.00  0.00    +0.000 HD
ENDROOT
BRANCH   8  10
ATOM     10  C   UNL     1      -5.542   2.621 130.019  0.00  0.00    +0.000 A 
ATOM     11  C   UNL     1      -4.417   1.846 130.403  0.00  0.00    +0.000 A 
ATOM     12  C   UNL     1      -4.289   1.330 131.689  0.00  0.00    +0.000 A 
ATOM     13  C   UNL     1      -5.272   1.600 132.632  0.00  0.00    +0.000 A 
ATOM     14  C   UNL     1      -6.385   2.374 132.286  0.00  0.00    +0.000 A 
ATOM     15 CL   UNL     1      -7.540   2.693 133.536  0.00  0.00    +0.000 Cl
ATOM     16  C   UNL     1      -6.539   2.871 130.980  0.00  0.00    +0.000 A 
ATOM     17 CL   UNL     1      -7.960   3.777 130.564  0.00  0.00    +0.000 Cl
ENDBRANCH   8  10
BRANCH   1  18
ATOM     18  C   UNL     1      -7.600   1.767 127.606  0.00  0.00    +0.000 C 
ATOM     19  O   UNL     1      -8.113   0.881 128.282  0.00  0.00    +0.000 OA
BRANCH  18  20
ATOM     20  O   UNL     1      -8.288   2.587 126.759  0.00  0.00    +0.000 OA
BRANCH  20  21
ATOM     21  C   UNL     1      -8.696   2.003 125.488  0.00  0.00    +0.000 C 
BRANCH  21  22
ATOM     22  O   UNL     1      -9.069   3.037 124.530  0.00  0.00    +0.000 OA
BRANCH  22  23
ATOM     23  C   UNL     1      -8.310   3.054 123.390  0.00  0.00    +0.000 C 
ATOM     24  O   UNL     1      -8.739   3.384 122.291  0.00  0.00    +0.000 OA
BRANCH  23  25
ATOM     25  C   UNL     1      -6.867   2.616 123.641  0.00  0.00    +0.000 C 
BRANCH  25  27
ATOM     26  C   UNL     1      -5.985   4.645 124.926  0.00  0.00    +0.000 C 
ATOM     27  C   UNL     1      -5.905   3.818 123.649  0.00  0.00    +0.000 C 
ENDBRANCH  25  27
ENDBRANCH  23  25
ENDBRANCH  22  23
ENDBRANCH  21  22
ENDBRANCH  20  21
ENDBRANCH  18  20
ENDBRANCH   1  18
BRANCH   7  28
ATOM     28  C   UNL     1      -3.760   5.074 128.711  0.00  0.00    +0.000 C 
ATOM     29  O   UNL     1      -3.099   5.211 129.735  0.00  0.00    +0.000 OA
BRANCH  28  30
ATOM     30  O   UNL     1      -4.133   6.125 127.938  0.00  0.00    +0.000 OA
ATOM     31  C   UNL     1      -3.446   7.353 128.252  0.00  0.00    +0.000 C 
ENDBRANCH  28  30
ENDBRANCH   7  28
TORSDOF 10
ENDMDL
MODEL 9
REMARK VINA RESULT:      -6.0      3.742      5.640
REMARK  Name = Clevidipine
REMARK  14 active torsions:
REMARK  status: ('A' for Active; 'I' for Inactive)
REMARK    1  A    between atoms: C_1  and  C_2
REMARK    2  A    between atoms: C_2  and  C_3
REMARK    3  A    between atoms: C_3  and  C_4
REMARK    4  A    between atoms: C_4  and  O_6
REMARK    5  A    between atoms: O_6  and  C_7
REMARK    6  A    between atoms: C_7  and  O_8
REMARK    7  A    between atoms: O_8  and  C_9
REMARK    8  A    between atoms: C_9  and  C_11
REMARK    9  A    between atoms: C_12  and  C_13
REMARK   10  A    between atoms: C_15  and  C_16
REMARK   11  A    between atoms: C_17  and  C_27
REMARK   12  A    between atoms: C_18  and  C_19
REMARK   13  A    between atoms: C_27  and  O_29
REMARK   14  A    between atoms: O_29  and  C_30
REMARK                            x       y       z     vdW  Elec       q    Type
REMARK                         _______ _______ _______ _____ _____    ______ ____
ROOT
ATOM      1  C   UNL     1      -7.532  -1.732 128.566  0.00  0.00    +0.000 C 
ATOM      2  C   UNL     1      -8.027  -2.922 128.982  0.00  0.00    +0.000 C 
ATOM      3  C   UNL     1      -8.766  -3.917 128.130  0.00  0.00    +0.000 C 
ATOM      4  N   UNL     1      -7.816  -3.331 130.292  0.00  0.00    +0.000 N 
ATOM      5  C   UNL     1      -6.843  -2.809 131.134  0.00  0.00    +0.000 C 
ATOM      6  C   UNL     1      -6.503  -3.658 132.336  0.00  0.00    +0.000 C 
ATOM      7  C   UNL     1      -6.263  -1.617 130.840  0.00  0.00    +0.000 C 
ATOM      8  C   UNL     1      -6.759  -0.847 129.590  0.00  0.00    +0.000 C 
ATOM      9  H   UNL     1      -8.251  -4.205 130.580  0.00  0.00    +0.000 HD
ENDROOT
BRANCH   8  10
ATOM     10  C   UNL     1      -7.671   0.307 130.039  0.00  0.00    +0.000 A 
ATOM     11  C   UNL     1      -8.596   0.084 131.092  0.00  0.00    +0.000 A 
ATOM     12  C   UNL     1      -9.443   1.091 131.546  0.00  0.00    +0.000 A 
ATOM     13  C   UNL     1      -9.368   2.353 130.973  0.00  0.00    +0.000 A 
ATOM     14  C   UNL     1      -8.455   2.606 129.943  0.00  0.00    +0.000 A 
ATOM     15 CL   UNL     1      -8.403   4.220 129.318  0.00  0.00    +0.000 Cl
ATOM     16  C   UNL     1      -7.618   1.587 129.456  0.00  0.00    +0.000 A 
ATOM     17 CL   UNL     1      -6.540   1.913 128.137  0.00  0.00    +0.000 Cl
ENDBRANCH   8  10
BRANCH   1  18
ATOM     18  C   UNL     1      -7.603  -1.250 127.147  0.00  0.00    +0.000 C 
ATOM     19  O   UNL     1      -6.603  -1.167 126.440  0.00  0.00    +0.000 OA
BRANCH  18  20
ATOM     20  O   UNL     1      -8.863  -0.916 126.743  0.00  0.00    +0.000 OA
BRANCH  20  21
ATOM     21  C   UNL     1      -8.958   0.118 125.720  0.00  0.00    +0.000 C 
BRANCH  21  22
ATOM     22  O   UNL     1      -9.550  -0.406 124.495  0.00  0.00    +0.000 OA
BRANCH  22  23
ATOM     23  C   UNL     1      -8.641  -0.856 123.574  0.00  0.00    +0.000 C 
ATOM     24  O   UNL     1      -7.613  -0.257 123.283  0.00  0.00    +0.000 OA
BRANCH  23  25
ATOM     25  C   UNL     1      -9.052  -2.190 122.951  0.00  0.00    +0.000 C 
BRANCH  25  27
ATOM     26  C   UNL     1      -7.930  -3.847 124.545  0.00  0.00    +0.000 C 
ATOM     27  C   UNL     1      -9.243  -3.280 124.022  0.00  0.00    +0.000 C 
ENDBRANCH  25  27
ENDBRANCH  23  25
ENDBRANCH  22  23
ENDBRANCH  21  22
ENDBRANCH  20  21
ENDBRANCH  18  20
ENDBRANCH   1  18
BRANCH   7  28
ATOM     28  C   UNL     1      -5.189  -1.060 131.734  0.00  0.00    +0.000 C 
ATOM     29  O   UNL     1      -5.346  -0.099 132.479  0.00  0.00    +0.000 OA
BRANCH  28  30
ATOM     30  O   UNL     1      -4.010  -1.726 131.642  0.00  0.00    +0.000 OA
ATOM     31  C   UNL     1      -3.421  -1.691 130.327  0.00  0.00    +0.000 C 
ENDBRANCH  28  30
ENDBRANCH   7  28
TORSDOF 10
ENDMDL
