MODEL 1
REMARK VINA RESULT:      -8.0      0.000      0.000
REMARK  Name = Clidinium
REMARK  7 active torsions:
REMARK  status: ('A' for Active; 'I' for Inactive)
REMARK    1  A    between atoms: C_1  and  N_2
REMARK    2  A    between atoms: C_8  and  O_10
REMARK    3  A    between atoms: O_10  and  C_11
REMARK    4  A    between atoms: C_11  and  C_13
REMARK    5  A    between atoms: C_13  and  O_14
REMARK    6  A    between atoms: C_13  and  C_15
REMARK    7  A    between atoms: C_13  and  C_21
REMARK                            x       y       z     vdW  Elec       q    Type
REMARK                         _______ _______ _______ _____ _____    ______ ____
ROOT
ATOM      1  C   UNL     1      -8.585  -1.790 125.325  0.00  0.00    +0.000 C 
ENDROOT
BRANCH   1   2
ATOM      2  C   UNL     1      -7.306  -2.073 124.493  0.00  0.00    +0.000 A 
ATOM      3  C   UNL     1      -7.251  -1.771 123.133  0.00  0.00    +0.000 A 
ATOM      4  C   UNL     1      -6.120  -2.053 122.375  0.00  0.00    +0.000 A 
ATOM      5  C   UNL     1      -5.091  -2.817 122.909  0.00  0.00    +0.000 A 
ATOM      6  C   UNL     1      -5.154  -3.226 124.228  0.00  0.00    +0.000 A 
ATOM      7  C   UNL     1      -6.173  -2.727 125.036  0.00  0.00    +0.000 A 
ENDBRANCH   1   2
BRANCH   1   8
ATOM      8  C   UNL     1      -8.482  -2.358 126.738  0.00  0.00    +0.000 A 
ATOM      9  C   UNL     1      -8.986  -3.625 127.091  0.00  0.00    +0.000 A 
ATOM     10  C   UNL     1      -8.931  -4.058 128.413  0.00  0.00    +0.000 A 
ATOM     11  C   UNL     1      -8.288  -3.284 129.376  0.00  0.00    +0.000 A 
ATOM     12  C   UNL     1      -7.762  -2.050 129.040  0.00  0.00    +0.000 A 
ATOM     13  C   UNL     1      -7.908  -1.584 127.751  0.00  0.00    +0.000 A 
ENDBRANCH   1   8
BRANCH   1  14
ATOM     14  C   UNL     1      -8.977  -0.234 125.358  0.00  0.00    +0.000 C 
ATOM     15  O   UNL     1     -10.128   0.134 125.529  0.00  0.00    +0.000 OA
BRANCH  14  16
ATOM     16  O   UNL     1      -8.055   0.753 125.152  0.00  0.00    +0.000 OA
BRANCH  16  24
ATOM     17  C   UNL     1      -6.521   1.998 129.489  0.00  0.00    +0.000 C 
ATOM     18  N   UNL     1      -6.275   2.018 127.980  0.00  0.00    +0.000 N 
ATOM     19  C   UNL     1      -5.482   3.257 127.598  0.00  0.00    +0.000 C 
ATOM     20  C   UNL     1      -5.272   3.213 126.076  0.00  0.00    +0.000 C 
ATOM     21  C   UNL     1      -5.910   1.960 125.427  0.00  0.00    +0.000 C 
ATOM     22  C   UNL     1      -5.286   0.717 126.082  0.00  0.00    +0.000 C 
ATOM     23  C   UNL     1      -5.383   0.802 127.603  0.00  0.00    +0.000 C 
ATOM     24  C   UNL     1      -7.424   1.971 125.709  0.00  0.00    +0.000 C 
ATOM     25  C   UNL     1      -7.598   2.183 127.194  0.00  0.00    +0.000 C 
ENDBRANCH  16  24
ENDBRANCH  14  16
ENDBRANCH   1  14
BRANCH   1  26
ATOM     26  O   UNL     1      -9.653  -2.550 124.760  0.00  0.00    +0.000 OA
ATOM     27  H   UNL     1      -9.625  -2.303 123.845  0.00  0.00    +0.000 HD
ENDBRANCH   1  26
TORSDOF 6
ENDMDL
MODEL 2
REMARK VINA RESULT:      -7.9      2.862      6.937
REMARK  Name = Clidinium
REMARK  7 active torsions:
REMARK  status: ('A' for Active; 'I' for Inactive)
REMARK    1  A    between atoms: C_1  and  N_2
REMARK    2  A    between atoms: C_8  and  O_10
REMARK    3  A    between atoms: O_10  and  C_11
REMARK    4  A    between atoms: C_11  and  C_13
REMARK    5  A    between atoms: C_13  and  O_14
REMARK    6  A    between atoms: C_13  and  C_15
REMARK    7  A    between atoms: C_13  and  C_21
REMARK                            x       y       z     vdW  Elec       q    Type
REMARK                         _______ _______ _______ _____ _____    ______ ____
ROOT
ATOM      1  C   UNL     1      -6.239   4.557 125.090  0.00  0.00    +0.000 C 
ENDROOT
BRANCH   1   2
ATOM      2  C   UNL     1      -5.039   4.257 126.027  0.00  0.00    +0.000 A 
ATOM      3  C   UNL     1      -4.587   5.207 126.943  0.00  0.00    +0.000 A 
ATOM      4  C   UNL     1      -3.492   4.956 127.761  0.00  0.00    +0.000 A 
ATOM      5  C   UNL     1      -2.704   3.833 127.555  0.00  0.00    +0.000 A 
ATOM      6  C   UNL     1      -3.061   2.914 126.585  0.00  0.00    +0.000 A 
ATOM      7  C   UNL     1      -4.290   3.059 125.946  0.00  0.00    +0.000 A 
ENDBRANCH   1   2
BRANCH   1   8
ATOM      8  C   UNL     1      -5.961   4.122 123.653  0.00  0.00    +0.000 A 
ATOM      9  C   UNL     1      -4.989   4.741 122.842  0.00  0.00    +0.000 A 
ATOM     10  C   UNL     1      -4.832   4.351 121.514  0.00  0.00    +0.000 A 
ATOM     11  C   UNL     1      -5.568   3.281 121.009  0.00  0.00    +0.000 A 
ATOM     12  C   UNL     1      -6.506   2.644 121.801  0.00  0.00    +0.000 A 
ATOM     13  C   UNL     1      -6.725   3.099 123.083  0.00  0.00    +0.000 A 
ENDBRANCH   1   8
BRANCH   1  14
ATOM     14  C   UNL     1      -7.619   3.934 125.621  0.00  0.00    +0.000 C 
ATOM     15  O   UNL     1      -8.672   4.546 125.541  0.00  0.00    +0.000 OA
BRANCH  14  16
ATOM     16  O   UNL     1      -7.679   2.712 126.230  0.00  0.00    +0.000 OA
BRANCH  16  24
ATOM     17  C   UNL     1      -9.254  -0.484 123.066  0.00  0.00    +0.000 C 
ATOM     18  N   UNL     1      -8.601  -0.230 124.424  0.00  0.00    +0.000 N 
ATOM     19  C   UNL     1      -8.942  -1.357 125.384  0.00  0.00    +0.000 C 
ATOM     20  C   UNL     1      -8.257  -1.039 126.723  0.00  0.00    +0.000 C 
ATOM     21  C   UNL     1      -7.458   0.287 126.678  0.00  0.00    +0.000 C 
ATOM     22  C   UNL     1      -6.406   0.169 125.563  0.00  0.00    +0.000 C 
ATOM     23  C   UNL     1      -7.057  -0.262 124.250  0.00  0.00    +0.000 C 
ATOM     24  C   UNL     1      -8.424   1.437 126.340  0.00  0.00    +0.000 C 
ATOM     25  C   UNL     1      -9.200   1.020 125.114  0.00  0.00    +0.000 C 
ENDBRANCH  16  24
ENDBRANCH  14  16
ENDBRANCH   1  14
BRANCH   1  26
ATOM     26  O   UNL     1      -6.357   5.975 124.969  0.00  0.00    +0.000 OA
ATOM     27  H   UNL     1      -7.146   6.161 125.461  0.00  0.00    +0.000 HD
ENDBRANCH   1  26
TORSDOF 6
ENDMDL
MODEL 3
REMARK VINA RESULT:      -7.8      0.970      2.106
REMARK  Name = Clidinium
REMARK  7 active torsions:
REMARK  status: ('A' for Active; 'I' for Inactive)
REMARK    1  A    between atoms: C_1  and  N_2
REMARK    2  A    between atoms: C_8  and  O_10
REMARK    3  A    between atoms: O_10  and  C_11
REMARK    4  A    between atoms: C_11  and  C_13
REMARK    5  A    between atoms: C_13  and  O_14
REMARK    6  A    between atoms: C_13  and  C_15
REMARK    7  A    between atoms: C_13  and  C_21
REMARK                            x       y       z     vdW  Elec       q    Type
REMARK                         _______ _______ _______ _____ _____    ______ ____
ROOT
ATOM      1  C   UNL     1      -8.648  -1.917 125.117  0.00  0.00    +0.000 C 
ENDROOT
BRANCH   1   2
ATOM      2  C   UNL     1      -7.400  -2.326 124.290  0.00  0.00    +0.000 A 
ATOM      3  C   UNL     1      -6.398  -3.121 124.845  0.00  0.00    +0.000 A 
ATOM      4  C   UNL     1      -5.263  -3.463 124.120  0.00  0.00    +0.000 A 
ATOM      5  C   UNL     1      -5.006  -2.865 122.894  0.00  0.00    +0.000 A 
ATOM      6  C   UNL     1      -5.929  -1.989 122.353  0.00  0.00    +0.000 A 
ATOM      7  C   UNL     1      -7.167  -1.850 122.977  0.00  0.00    +0.000 A 
ENDBRANCH   1   2
BRANCH   1   8
ATOM      8  C   UNL     1      -8.542  -2.375 126.570  0.00  0.00    +0.000 A 
ATOM      9  C   UNL     1      -7.858  -1.636 127.556  0.00  0.00    +0.000 A 
ATOM     10  C   UNL     1      -7.730  -2.141 128.847  0.00  0.00    +0.000 A 
ATOM     11  C   UNL     1      -8.361  -3.333 129.197  0.00  0.00    +0.000 A 
ATOM     12  C   UNL     1      -9.060  -4.056 128.248  0.00  0.00    +0.000 A 
ATOM     13  C   UNL     1      -9.100  -3.600 126.948  0.00  0.00    +0.000 A 
ENDBRANCH   1   8
BRANCH   1  14
ATOM     14  C   UNL     1      -8.968  -0.347 125.031  0.00  0.00    +0.000 C 
ATOM     15  O   UNL     1     -10.016   0.069 124.562  0.00  0.00    +0.000 OA
BRANCH  14  16
ATOM     16  O   UNL     1      -8.071   0.602 125.433  0.00  0.00    +0.000 OA
BRANCH  16  24
ATOM     17  C   UNL     1      -6.418   5.065 125.199  0.00  0.00    +0.000 C 
ATOM     18  N   UNL     1      -6.198   3.634 125.687  0.00  0.00    +0.000 N 
ATOM     19  C   UNL     1      -4.710   3.334 125.766  0.00  0.00    +0.000 C 
ATOM     20  C   UNL     1      -4.562   1.887 126.262  0.00  0.00    +0.000 C 
ATOM     21  C   UNL     1      -5.930   1.207 126.520  0.00  0.00    +0.000 C 
ATOM     22  C   UNL     1      -6.687   2.046 127.561  0.00  0.00    +0.000 C 
ATOM     23  C   UNL     1      -6.741   3.512 127.139  0.00  0.00    +0.000 C 
ATOM     24  C   UNL     1      -6.732   1.192 125.205  0.00  0.00    +0.000 C 
ATOM     25  C   UNL     1      -6.717   2.600 124.659  0.00  0.00    +0.000 C 
ENDBRANCH  16  24
ENDBRANCH  14  16
ENDBRANCH   1  14
BRANCH   1  26
ATOM     26  O   UNL     1      -9.760  -2.670 124.634  0.00  0.00    +0.000 OA
ATOM     27  H   UNL     1     -10.495  -2.266 125.077  0.00  0.00    +0.000 HD
ENDBRANCH   1  26
TORSDOF 6
ENDMDL
MODEL 4
REMARK VINA RESULT:      -7.7      2.835      6.920
REMARK  Name = Clidinium
REMARK  7 active torsions:
REMARK  status: ('A' for Active; 'I' for Inactive)
REMARK    1  A    between atoms: C_1  and  N_2
REMARK    2  A    between atoms: C_8  and  O_10
REMARK    3  A    between atoms: O_10  and  C_11
REMARK    4  A    between atoms: C_11  and  C_13
REMARK    5  A    between atoms: C_13  and  O_14
REMARK    6  A    between atoms: C_13  and  C_15
REMARK    7  A    between atoms: C_13  and  C_21
REMARK                            x       y       z     vdW  Elec       q    Type
REMARK                         _______ _______ _______ _____ _____    ______ ____
ROOT
ATOM      1  C   UNL     1      -7.412   3.234 124.290  0.00  0.00    +0.000 C 
ENDROOT
BRANCH   1   2
ATOM      2  C   UNL     1      -6.238   3.423 125.286  0.00  0.00    +0.000 A 
ATOM      3  C   UNL     1      -5.893   4.689 125.761  0.00  0.00    +0.000 A 
ATOM      4  C   UNL     1      -4.822   4.868 126.628  0.00  0.00    +0.000 A 
ATOM      5  C   UNL     1      -3.949   3.821 126.891  0.00  0.00    +0.000 A 
ATOM      6  C   UNL     1      -4.198   2.570 126.355  0.00  0.00    +0.000 A 
ATOM      7  C   UNL     1      -5.405   2.353 125.694  0.00  0.00    +0.000 A 
ENDBRANCH   1   2
BRANCH   1   8
ATOM      8  C   UNL     1      -6.992   3.534 122.853  0.00  0.00    +0.000 A 
ATOM      9  C   UNL     1      -5.674   3.884 122.499  0.00  0.00    +0.000 A 
ATOM     10  C   UNL     1      -5.368   4.220 121.183  0.00  0.00    +0.000 A 
ATOM     11  C   UNL     1      -6.340   4.118 120.191  0.00  0.00    +0.000 A 
ATOM     12  C   UNL     1      -7.632   3.748 120.517  0.00  0.00    +0.000 A 
ATOM     13  C   UNL     1      -7.952   3.512 121.836  0.00  0.00    +0.000 A 
ENDBRANCH   1   8
BRANCH   1  14
ATOM     14  C   UNL     1      -8.097   1.788 124.398  0.00  0.00    +0.000 C 
ATOM     15  O   UNL     1      -9.147   1.619 124.999  0.00  0.00    +0.000 OA
BRANCH  14  16
ATOM     16  O   UNL     1      -7.523   0.668 123.867  0.00  0.00    +0.000 OA
BRANCH  16  24
ATOM     17  C   UNL     1      -8.435  -3.580 125.824  0.00  0.00    +0.000 C 
ATOM     18  N   UNL     1      -7.719  -2.795 124.726  0.00  0.00    +0.000 N 
ATOM     19  C   UNL     1      -6.446  -3.516 124.316  0.00  0.00    +0.000 C 
ATOM     20  C   UNL     1      -5.779  -2.676 123.214  0.00  0.00    +0.000 C 
ATOM     21  C   UNL     1      -6.587  -1.399 122.875  0.00  0.00    +0.000 C 
ATOM     22  C   UNL     1      -7.994  -1.831 122.430  0.00  0.00    +0.000 C 
ATOM     23  C   UNL     1      -8.624  -2.764 123.462  0.00  0.00    +0.000 C 
ATOM     24  C   UNL     1      -6.704  -0.534 124.143  0.00  0.00    +0.000 C 
ATOM     25  C   UNL     1      -7.204  -1.432 125.249  0.00  0.00    +0.000 C 
ENDBRANCH  16  24
ENDBRANCH  14  16
ENDBRANCH   1  14
BRANCH   1  26
ATOM     26  O   UNL     1      -8.377   4.253 124.552  0.00  0.00    +0.000 OA
ATOM     27  H   UNL     1      -8.901   3.872 125.244  0.00  0.00    +0.000 HD
ENDBRANCH   1  26
TORSDOF 6
ENDMDL
MODEL 5
REMARK VINA RESULT:      -7.6      7.011      9.208
REMARK  Name = Clidinium
REMARK  7 active torsions:
REMARK  status: ('A' for Active; 'I' for Inactive)
REMARK    1  A    between atoms: C_1  and  N_2
REMARK    2  A    between atoms: C_8  and  O_10
REMARK    3  A    between atoms: O_10  and  C_11
REMARK    4  A    between atoms: C_11  and  C_13
REMARK    5  A    between atoms: C_13  and  O_14
REMARK    6  A    between atoms: C_13  and  C_15
REMARK    7  A    between atoms: C_13  and  C_21
REMARK                            x       y       z     vdW  Elec       q    Type
REMARK                         _______ _______ _______ _____ _____    ______ ____
ROOT
ATOM      1  C   UNL     1      -9.834   4.993 130.323  0.00  0.00    +0.000 C 
ENDROOT
BRANCH   1   2
ATOM      2  C   UNL     1      -9.350   4.826 131.788  0.00  0.00    +0.000 A 
ATOM      3  C   UNL     1      -8.889   5.920 132.522  0.00  0.00    +0.000 A 
ATOM      4  C   UNL     1      -8.424   5.771 133.823  0.00  0.00    +0.000 A 
ATOM      5  C   UNL     1      -8.227   4.506 134.358  0.00  0.00    +0.000 A 
ATOM      6  C   UNL     1      -8.576   3.388 133.622  0.00  0.00    +0.000 A 
ATOM      7  C   UNL     1      -9.266   3.565 132.424  0.00  0.00    +0.000 A 
ENDBRANCH   1   2
BRANCH   1   8
ATOM      8  C   UNL     1     -10.783   6.178 130.168  0.00  0.00    +0.000 A 
ATOM      9  C   UNL     1     -10.523   7.257 129.300  0.00  0.00    +0.000 A 
ATOM     10  C   UNL     1     -11.388   8.347 129.258  0.00  0.00    +0.000 A 
ATOM     11  C   UNL     1     -12.567   8.333 130.000  0.00  0.00    +0.000 A 
ATOM     12  C   UNL     1     -12.851   7.268 130.836  0.00  0.00    +0.000 A 
ATOM     13  C   UNL     1     -11.942   6.238 130.948  0.00  0.00    +0.000 A 
ENDBRANCH   1   8
BRANCH   1  14
ATOM     14  C   UNL     1      -8.624   5.083 129.273  0.00  0.00    +0.000 C 
ATOM     15  O   UNL     1      -8.791   4.868 128.082  0.00  0.00    +0.000 OA
BRANCH  14  16
ATOM     16  O   UNL     1      -7.343   5.359 129.659  0.00  0.00    +0.000 OA
BRANCH  16  24
ATOM     17  C   UNL     1      -2.901   6.480 128.348  0.00  0.00    +0.000 C 
ATOM     18  N   UNL     1      -3.839   6.031 129.468  0.00  0.00    +0.000 N 
ATOM     19  C   UNL     1      -3.080   5.181 130.473  0.00  0.00    +0.000 C 
ATOM     20  C   UNL     1      -4.078   4.765 131.566  0.00  0.00    +0.000 C 
ATOM     21  C   UNL     1      -5.499   5.326 131.312  0.00  0.00    +0.000 C 
ATOM     22  C   UNL     1      -5.400   6.859 131.243  0.00  0.00    +0.000 C 
ATOM     23  C   UNL     1      -4.327   7.286 130.244  0.00  0.00    +0.000 C 
ATOM     24  C   UNL     1      -6.008   4.793 129.960  0.00  0.00    +0.000 C 
ATOM     25  C   UNL     1      -4.930   5.069 128.939  0.00  0.00    +0.000 C 
ENDBRANCH  16  24
ENDBRANCH  14  16
ENDBRANCH   1  14
BRANCH   1  26
ATOM     26  O   UNL     1     -10.671   3.880 130.009  0.00  0.00    +0.000 OA
ATOM     27  H   UNL     1     -10.046   3.210 129.762  0.00  0.00    +0.000 HD
ENDBRANCH   1  26
TORSDOF 6
ENDMDL
MODEL 6
REMARK VINA RESULT:      -7.6      2.857      4.657
REMARK  Name = Clidinium
REMARK  7 active torsions:
REMARK  status: ('A' for Active; 'I' for Inactive)
REMARK    1  A    between atoms: C_1  and  N_2
REMARK    2  A    between atoms: C_8  and  O_10
REMARK    3  A    between atoms: O_10  and  C_11
REMARK    4  A    between atoms: C_11  and  C_13
REMARK    5  A    between atoms: C_13  and  O_14
REMARK    6  A    between atoms: C_13  and  C_15
REMARK    7  A    between atoms: C_13  and  C_21
REMARK                            x       y       z     vdW  Elec       q    Type
REMARK                         _______ _______ _______ _____ _____    ______ ____
ROOT
ATOM      1  C   UNL     1      -8.272   2.809 124.192  0.00  0.00    +0.000 C 
ENDROOT
BRANCH   1   2
ATOM      2  C   UNL     1      -7.612   3.188 122.840  0.00  0.00    +0.000 A 
ATOM      3  C   UNL     1      -6.267   3.556 122.774  0.00  0.00    +0.000 A 
ATOM      4  C   UNL     1      -5.679   3.928 121.571  0.00  0.00    +0.000 A 
ATOM      5  C   UNL     1      -6.459   4.129 120.440  0.00  0.00    +0.000 A 
ATOM      6  C   UNL     1      -7.817   3.874 120.491  0.00  0.00    +0.000 A 
ATOM      7  C   UNL     1      -8.343   3.269 121.630  0.00  0.00    +0.000 A 
ENDBRANCH   1   2
BRANCH   1   8
ATOM      8  C   UNL     1      -7.887   1.401 124.638  0.00  0.00    +0.000 A 
ATOM      9  C   UNL     1      -6.968   0.600 123.933  0.00  0.00    +0.000 A 
ATOM     10  C   UNL     1      -6.713  -0.705 124.346  0.00  0.00    +0.000 A 
ATOM     11  C   UNL     1      -7.291  -1.193 125.516  0.00  0.00    +0.000 A 
ATOM     12  C   UNL     1      -8.174  -0.409 126.236  0.00  0.00    +0.000 A 
ATOM     13  C   UNL     1      -8.498   0.846 125.767  0.00  0.00    +0.000 A 
ENDBRANCH   1   8
BRANCH   1  14
ATOM     14  C   UNL     1      -7.981   3.880 125.351  0.00  0.00    +0.000 C 
ATOM     15  O   UNL     1      -8.696   4.856 125.517  0.00  0.00    +0.000 OA
BRANCH  14  16
ATOM     16  O   UNL     1      -6.899   3.780 126.179  0.00  0.00    +0.000 OA
BRANCH  16  24
ATOM     17  C   UNL     1      -4.056   3.828 130.003  0.00  0.00    +0.000 C 
ATOM     18  N   UNL     1      -4.197   3.554 128.506  0.00  0.00    +0.000 N 
ATOM     19  C   UNL     1      -2.871   3.796 127.805  0.00  0.00    +0.000 C 
ATOM     20  C   UNL     1      -3.084   3.503 126.311  0.00  0.00    +0.000 C 
ATOM     21  C   UNL     1      -4.535   3.064 125.996  0.00  0.00    +0.000 C 
ATOM     22  C   UNL     1      -4.843   1.809 126.829  0.00  0.00    +0.000 C 
ATOM     23  C   UNL     1      -4.524   2.048 128.303  0.00  0.00    +0.000 C 
ATOM     24  C   UNL     1      -5.496   4.193 126.413  0.00  0.00    +0.000 C 
ATOM     25  C   UNL     1      -5.149   4.572 127.833  0.00  0.00    +0.000 C 
ENDBRANCH  16  24
ENDBRANCH  14  16
ENDBRANCH   1  14
BRANCH   1  26
ATOM     26  O   UNL     1      -9.679   2.694 123.975  0.00  0.00    +0.000 OA
ATOM     27  H   UNL     1     -10.044   3.137 124.730  0.00  0.00    +0.000 HD
ENDBRANCH   1  26
TORSDOF 6
ENDMDL
MODEL 7
REMARK VINA RESULT:      -7.3      2.232      4.422
REMARK  Name = Clidinium
REMARK  7 active torsions:
REMARK  status: ('A' for Active; 'I' for Inactive)
REMARK    1  A    between atoms: C_1  and  N_2
REMARK    2  A    between atoms: C_8  and  O_10
REMARK    3  A    between atoms: O_10  and  C_11
REMARK    4  A    between atoms: C_11  and  C_13
REMARK    5  A    between atoms: C_13  and  O_14
REMARK    6  A    between atoms: C_13  and  C_15
REMARK    7  A    between atoms: C_13  and  C_21
REMARK                            x       y       z     vdW  Elec       q    Type
REMARK                         _______ _______ _______ _____ _____    ______ ____
ROOT
ATOM      1  C   UNL     1      -8.721  -2.408 124.277  0.00  0.00    +0.000 C 
ENDROOT
BRANCH   1   2
ATOM      2  C   UNL     1      -9.017  -0.947 123.848  0.00  0.00    +0.000 A 
ATOM      3  C   UNL     1      -8.744   0.123 124.701  0.00  0.00    +0.000 A 
ATOM      4  C   UNL     1      -9.037   1.431 124.336  0.00  0.00    +0.000 A 
ATOM      5  C   UNL     1      -9.784   1.691 123.195  0.00  0.00    +0.000 A 
ATOM      6  C   UNL     1     -10.164   0.645 122.372  0.00  0.00    +0.000 A 
ATOM      7  C   UNL     1      -9.652  -0.625 122.625  0.00  0.00    +0.000 A 
ENDBRANCH   1   2
BRANCH   1   8
ATOM      8  C   UNL     1      -7.274  -2.803 123.992  0.00  0.00    +0.000 A 
ATOM      9  C   UNL     1      -6.379  -1.973 123.289  0.00  0.00    +0.000 A 
ATOM     10  C   UNL     1      -5.094  -2.418 122.994  0.00  0.00    +0.000 A 
ATOM     11  C   UNL     1      -4.652  -3.648 123.477  0.00  0.00    +0.000 A 
ATOM     12  C   UNL     1      -5.510  -4.464 124.193  0.00  0.00    +0.000 A 
ATOM     13  C   UNL     1      -6.811  -4.059 124.397  0.00  0.00    +0.000 A 
ENDBRANCH   1   8
BRANCH   1  14
ATOM     14  C   UNL     1      -9.106  -2.701 125.806  0.00  0.00    +0.000 C 
ATOM     15  O   UNL     1     -10.212  -3.112 126.122  0.00  0.00    +0.000 OA
BRANCH  14  16
ATOM     16  O   UNL     1      -8.238  -2.462 126.834  0.00  0.00    +0.000 OA
BRANCH  16  24
ATOM     17  C   UNL     1      -5.794  -2.686 130.919  0.00  0.00    +0.000 C 
ATOM     18  N   UNL     1      -5.984  -1.998 129.568  0.00  0.00    +0.000 N 
ATOM     19  C   UNL     1      -5.554  -0.543 129.659  0.00  0.00    +0.000 C 
ATOM     20  C   UNL     1      -5.771   0.086 128.273  0.00  0.00    +0.000 C 
ATOM     21  C   UNL     1      -6.340  -0.926 127.248  0.00  0.00    +0.000 C 
ATOM     22  C   UNL     1      -5.356  -2.103 127.145  0.00  0.00    +0.000 C 
ATOM     23  C   UNL     1      -5.039  -2.664 128.530  0.00  0.00    +0.000 C 
ATOM     24  C   UNL     1      -7.695  -1.446 127.764  0.00  0.00    +0.000 C 
ATOM     25  C   UNL     1      -7.482  -1.903 129.188  0.00  0.00    +0.000 C 
ENDBRANCH  16  24
ENDBRANCH  14  16
ENDBRANCH   1  14
BRANCH   1  26
ATOM     26  O   UNL     1      -9.456  -3.276 123.414  0.00  0.00    +0.000 OA
ATOM     27  H   UNL     1      -9.423  -2.822 122.582  0.00  0.00    +0.000 HD
ENDBRANCH   1  26
TORSDOF 6
ENDMDL
MODEL 8
REMARK VINA RESULT:      -7.3      6.603      9.092
REMARK  Name = Clidinium
REMARK  7 active torsions:
REMARK  status: ('A' for Active; 'I' for Inactive)
REMARK    1  A    between atoms: C_1  and  N_2
REMARK    2  A    between atoms: C_8  and  O_10
REMARK    3  A    between atoms: O_10  and  C_11
REMARK    4  A    between atoms: C_11  and  C_13
REMARK    5  A    between atoms: C_13  and  O_14
REMARK    6  A    between atoms: C_13  and  C_15
REMARK    7  A    between atoms: C_13  and  C_21
REMARK                            x       y       z     vdW  Elec       q    Type
REMARK                         _______ _______ _______ _____ _____    ______ ____
ROOT
ATOM      1  C   UNL     1      -8.957   6.130 130.658  0.00  0.00    +0.000 C 
ENDROOT
BRANCH   1   2
ATOM      2  C   UNL     1     -10.364   6.764 130.493  0.00  0.00    +0.000 A 
ATOM      3  C   UNL     1     -10.615   7.709 129.498  0.00  0.00    +0.000 A 
ATOM      4  C   UNL     1     -11.863   8.306 129.367  0.00  0.00    +0.000 A 
ATOM      5  C   UNL     1     -12.835   8.120 130.340  0.00  0.00    +0.000 A 
ATOM      6  C   UNL     1     -12.588   7.268 131.402  0.00  0.00    +0.000 A 
ATOM      7  C   UNL     1     -11.430   6.494 131.384  0.00  0.00    +0.000 A 
ENDBRANCH   1   2
BRANCH   1   8
ATOM      8  C   UNL     1      -8.807   5.422 132.002  0.00  0.00    +0.000 A 
ATOM      9  C   UNL     1      -8.240   6.041 133.133  0.00  0.00    +0.000 A 
ATOM     10  C   UNL     1      -8.060   5.321 134.310  0.00  0.00    +0.000 A 
ATOM     11  C   UNL     1      -8.528   4.012 134.408  0.00  0.00    +0.000 A 
ATOM     12  C   UNL     1      -9.112   3.398 133.315  0.00  0.00    +0.000 A 
ATOM     13  C   UNL     1      -9.198   4.085 132.123  0.00  0.00    +0.000 A 
ENDBRANCH   1   8
BRANCH   1  14
ATOM     14  C   UNL     1      -8.567   5.153 129.446  0.00  0.00    +0.000 C 
ATOM     15  O   UNL     1      -9.395   4.433 128.910  0.00  0.00    +0.000 OA
BRANCH  14  16
ATOM     16  O   UNL     1      -7.285   5.042 128.985  0.00  0.00    +0.000 OA
BRANCH  16  24
ATOM     17  C   UNL     1      -2.712   6.036 128.090  0.00  0.00    +0.000 C 
ATOM     18  N   UNL     1      -3.723   5.321 128.985  0.00  0.00    +0.000 N 
ATOM     19  C   UNL     1      -3.094   4.080 129.595  0.00  0.00    +0.000 C 
ATOM     20  C   UNL     1      -4.160   3.414 130.479  0.00  0.00    +0.000 C 
ATOM     21  C   UNL     1      -5.500   4.191 130.475  0.00  0.00    +0.000 C 
ATOM     22  C   UNL     1      -5.222   5.620 130.969  0.00  0.00    +0.000 C 
ATOM     23  C   UNL     1      -4.082   6.254 130.176  0.00  0.00    +0.000 C 
ATOM     24  C   UNL     1      -6.034   4.253 129.032  0.00  0.00    +0.000 C 
ATOM     25  C   UNL     1      -4.906   4.755 128.162  0.00  0.00    +0.000 C 
ENDBRANCH  16  24
ENDBRANCH  14  16
ENDBRANCH   1  14
BRANCH   1  26
ATOM     26  O   UNL     1      -8.007   7.191 130.756  0.00  0.00    +0.000 OA
ATOM     27  H   UNL     1      -8.555   7.963 130.767  0.00  0.00    +0.000 HD
ENDBRANCH   1  26
TORSDOF 6
ENDMDL
MODEL 9
REMARK VINA RESULT:      -7.1      2.229      4.562
REMARK  Name = Clidinium
REMARK  7 active torsions:
REMARK  status: ('A' for Active; 'I' for Inactive)
REMARK    1  A    between atoms: C_1  and  N_2
REMARK    2  A    between atoms: C_8  and  O_10
REMARK    3  A    between atoms: O_10  and  C_11
REMARK    4  A    between atoms: C_11  and  C_13
REMARK    5  A    between atoms: C_13  and  O_14
REMARK    6  A    between atoms: C_13  and  C_15
REMARK    7  A    between atoms: C_13  and  C_21
REMARK                            x       y       z     vdW  Elec       q    Type
REMARK                         _______ _______ _______ _____ _____    ______ ____
ROOT
ATOM      1  C   UNL     1      -8.787   0.465 124.931  0.00  0.00    +0.000 C 
ENDROOT
BRANCH   1   2
ATOM      2  C   UNL     1      -8.286   1.591 123.987  0.00  0.00    +0.000 A 
ATOM      3  C   UNL     1      -9.062   2.026 122.912  0.00  0.00    +0.000 A 
ATOM      4  C   UNL     1      -8.605   3.010 122.044  0.00  0.00    +0.000 A 
ATOM      5  C   UNL     1      -7.289   3.448 122.110  0.00  0.00    +0.000 A 
ATOM      6  C   UNL     1      -6.454   2.964 123.101  0.00  0.00    +0.000 A 
ATOM      7  C   UNL     1      -6.999   2.168 124.105  0.00  0.00    +0.000 A 
ENDBRANCH   1   2
BRANCH   1   8
ATOM      8  C   UNL     1      -8.129  -0.876 124.615  0.00  0.00    +0.000 A 
ATOM      9  C   UNL     1      -6.773  -0.997 124.257  0.00  0.00    +0.000 A 
ATOM     10  C   UNL     1      -6.248  -2.238 123.905  0.00  0.00    +0.000 A 
ATOM     11  C   UNL     1      -7.036  -3.382 124.001  0.00  0.00    +0.000 A 
ATOM     12  C   UNL     1      -8.363  -3.285 124.379  0.00  0.00    +0.000 A 
ATOM     13  C   UNL     1      -8.902  -2.042 124.629  0.00  0.00    +0.000 A 
ENDBRANCH   1   8
BRANCH   1  14
ATOM     14  C   UNL     1      -8.624   0.833 126.484  0.00  0.00    +0.000 C 
ATOM     15  O   UNL     1      -8.888   1.946 126.911  0.00  0.00    +0.000 OA
BRANCH  14  16
ATOM     16  O   UNL     1      -8.139  -0.061 127.397  0.00  0.00    +0.000 OA
BRANCH  16  24
ATOM     17  C   UNL     1      -7.388  -1.822 131.761  0.00  0.00    +0.000 C 
ATOM     18  N   UNL     1      -7.070  -1.900 130.268  0.00  0.00    +0.000 N 
ATOM     19  C   UNL     1      -5.663  -2.434 130.062  0.00  0.00    +0.000 C 
ATOM     20  C   UNL     1      -5.411  -2.487 128.547  0.00  0.00    +0.000 C 
ATOM     21  C   UNL     1      -6.631  -1.997 127.728  0.00  0.00    +0.000 C 
ATOM     22  C   UNL     1      -7.835  -2.881 128.094  0.00  0.00    +0.000 C 
ATOM     23  C   UNL     1      -8.026  -2.933 129.607  0.00  0.00    +0.000 C 
ATOM     24  C   UNL     1      -6.939  -0.540 128.120  0.00  0.00    +0.000 C 
ATOM     25  C   UNL     1      -7.015  -0.492 129.627  0.00  0.00    +0.000 C 
ENDBRANCH  16  24
ENDBRANCH  14  16
ENDBRANCH   1  14
BRANCH   1  26
ATOM     26  O   UNL     1     -10.160   0.218 124.629  0.00  0.00    +0.000 OA
ATOM     27  H   UNL     1     -10.233   0.513 123.731  0.00  0.00    +0.000 HD
ENDBRANCH   1  26
TORSDOF 6
ENDMDL
