MODEL 1
REMARK VINA RESULT:      -5.9      0.000      0.000
REMARK  Name = Clioquinol
REMARK  1 active torsions:
REMARK  status: ('A' for Active; 'I' for Inactive)
REMARK    1  A    between atoms: O_1  and  C_2
REMARK                            x       y       z     vdW  Elec       q    Type
REMARK                         _______ _______ _______ _____ _____    ______ ____
ROOT
ATOM      1  C   UNL     1      -9.247   5.968 129.944  0.00  0.00    +0.000 A 
ATOM      2  C   UNL     1      -9.521   5.955 131.316  0.00  0.00    +0.000 A 
ATOM      3  I   UNL     1      -8.146   5.225 132.708  0.00  0.00    +0.000 I 
ATOM      4  C   UNL     1     -10.729   6.459 131.789  0.00  0.00    +0.000 A 
ATOM      5  C   UNL     1     -11.655   6.971 130.888  0.00  0.00    +0.000 A 
ATOM      6 CL   UNL     1     -13.121   7.616 131.557  0.00  0.00    +0.000 Cl
ATOM      7  C   UNL     1     -11.377   7.028 129.506  0.00  0.00    +0.000 A 
ATOM      8  C   UNL     1     -10.150   6.509 129.017  0.00  0.00    +0.000 A 
ATOM      9  N   UNL     1      -9.836   6.578 127.706  0.00  0.00    +0.000 NA
ATOM     10  C   UNL     1     -10.642   7.267 126.872  0.00  0.00    +0.000 A 
ATOM     11  C   UNL     1     -11.815   7.864 127.273  0.00  0.00    +0.000 A 
ATOM     12  C   UNL     1     -12.232   7.648 128.575  0.00  0.00    +0.000 A 
ENDROOT
BRANCH   1  13
ATOM     13  O   UNL     1      -8.046   5.482 129.468  0.00  0.00    +0.000 OA
ATOM     14  H   UNL     1      -7.347   6.128 129.664  0.00  0.00    +0.000 HD
ENDBRANCH   1  13
TORSDOF 1
ENDMDL
MODEL 2
REMARK VINA RESULT:      -5.6      2.672      3.049
REMARK  Name = Clioquinol
REMARK  1 active torsions:
REMARK  status: ('A' for Active; 'I' for Inactive)
REMARK    1  A    between atoms: O_1  and  C_2
REMARK                            x       y       z     vdW  Elec       q    Type
REMARK                         _______ _______ _______ _____ _____    ______ ____
ROOT
ATOM      1  C   UNL     1     -10.657   4.356 130.499  0.00  0.00    +0.000 A 
ATOM      2  C   UNL     1      -9.526   3.931 131.203  0.00  0.00    +0.000 A 
ATOM      3  I   UNL     1      -9.365   1.993 131.965  0.00  0.00    +0.000 I 
ATOM      4  C   UNL     1      -8.457   4.801 131.393  0.00  0.00    +0.000 A 
ATOM      5  C   UNL     1      -8.526   6.091 130.879  0.00  0.00    +0.000 A 
ATOM      6 CL   UNL     1      -7.139   7.105 131.124  0.00  0.00    +0.000 Cl
ATOM      7  C   UNL     1      -9.643   6.522 130.132  0.00  0.00    +0.000 A 
ATOM      8  C   UNL     1     -10.739   5.640 129.941  0.00  0.00    +0.000 A 
ATOM      9  N   UNL     1     -11.809   6.007 129.204  0.00  0.00    +0.000 NA
ATOM     10  C   UNL     1     -11.775   7.176 128.532  0.00  0.00    +0.000 A 
ATOM     11  C   UNL     1     -10.722   8.060 128.602  0.00  0.00    +0.000 A 
ATOM     12  C   UNL     1      -9.702   7.774 129.492  0.00  0.00    +0.000 A 
ENDROOT
BRANCH   1  13
ATOM     13  O   UNL     1     -11.717   3.495 130.295  0.00  0.00    +0.000 OA
ATOM     14  H   UNL     1     -12.544   4.002 130.337  0.00  0.00    +0.000 HD
ENDBRANCH   1  13
TORSDOF 1
ENDMDL
MODEL 3
REMARK VINA RESULT:      -5.6      3.480      4.949
REMARK  Name = Clioquinol
REMARK  1 active torsions:
REMARK  status: ('A' for Active; 'I' for Inactive)
REMARK    1  A    between atoms: O_1  and  C_2
REMARK                            x       y       z     vdW  Elec       q    Type
REMARK                         _______ _______ _______ _____ _____    ______ ____
ROOT
ATOM      1  C   UNL     1      -8.932   7.021 130.763  0.00  0.00    +0.000 A 
ATOM      2  C   UNL     1     -10.028   6.446 131.416  0.00  0.00    +0.000 A 
ATOM      3  I   UNL     1     -11.975   6.650 130.689  0.00  0.00    +0.000 I 
ATOM      4  C   UNL     1      -9.834   5.694 132.571  0.00  0.00    +0.000 A 
ATOM      5  C   UNL     1      -8.546   5.523 133.066  0.00  0.00    +0.000 A 
ATOM      6 CL   UNL     1      -8.381   4.541 134.488  0.00  0.00    +0.000 Cl
ATOM      7  C   UNL     1      -7.427   6.063 132.397  0.00  0.00    +0.000 A 
ATOM      8  C   UNL     1      -7.620   6.836 131.223  0.00  0.00    +0.000 A 
ATOM      9  N   UNL     1      -6.571   7.339 130.539  0.00  0.00    +0.000 NA
ATOM     10  C   UNL     1      -5.320   6.990 130.903  0.00  0.00    +0.000 A 
ATOM     11  C   UNL     1      -5.042   6.186 131.985  0.00  0.00    +0.000 A 
ATOM     12  C   UNL     1      -6.100   5.812 132.795  0.00  0.00    +0.000 A 
ENDROOT
BRANCH   1  13
ATOM     13  O   UNL     1      -9.115   7.757 129.610  0.00  0.00    +0.000 OA
ATOM     14  H   UNL     1      -8.480   7.453 128.941  0.00  0.00    +0.000 HD
ENDBRANCH   1  13
TORSDOF 1
ENDMDL
MODEL 4
REMARK VINA RESULT:      -5.2      3.271      4.295
REMARK  Name = Clioquinol
REMARK  1 active torsions:
REMARK  status: ('A' for Active; 'I' for Inactive)
REMARK    1  A    between atoms: O_1  and  C_2
REMARK                            x       y       z     vdW  Elec       q    Type
REMARK                         _______ _______ _______ _____ _____    ______ ____
ROOT
ATOM      1  C   UNL     1      -6.521   6.810 131.281  0.00  0.00    +0.000 A 
ATOM      2  C   UNL     1      -5.723   6.304 132.312  0.00  0.00    +0.000 A 
ATOM      3  I   UNL     1      -3.663   6.647 132.383  0.00  0.00    +0.000 I 
ATOM      4  C   UNL     1      -6.300   5.567 133.341  0.00  0.00    +0.000 A 
ATOM      5  C   UNL     1      -7.672   5.341 133.333  0.00  0.00    +0.000 A 
ATOM      6 CL   UNL     1      -8.325   4.446 134.669  0.00  0.00    +0.000 Cl
ATOM      7  C   UNL     1      -8.496   5.878 132.321  0.00  0.00    +0.000 A 
ATOM      8  C   UNL     1      -7.911   6.625 131.265  0.00  0.00    +0.000 A 
ATOM      9  N   UNL     1      -8.672   7.182 130.300  0.00  0.00    +0.000 NA
ATOM     10  C   UNL     1     -10.015   7.140 130.415  0.00  0.00    +0.000 A 
ATOM     11  C   UNL     1     -10.668   6.500 131.444  0.00  0.00    +0.000 A 
ATOM     12  C   UNL     1      -9.900   5.777 132.339  0.00  0.00    +0.000 A 
ENDROOT
BRANCH   1  13
ATOM     13  O   UNL     1      -5.956   7.553 130.263  0.00  0.00    +0.000 OA
ATOM     14  H   UNL     1      -5.290   7.008 129.812  0.00  0.00    +0.000 HD
ENDBRANCH   1  13
TORSDOF 1
ENDMDL
MODEL 5
REMARK VINA RESULT:      -5.2      2.489      3.890
REMARK  Name = Clioquinol
REMARK  1 active torsions:
REMARK  status: ('A' for Active; 'I' for Inactive)
REMARK    1  A    between atoms: O_1  and  C_2
REMARK                            x       y       z     vdW  Elec       q    Type
REMARK                         _______ _______ _______ _____ _____    ______ ____
ROOT
ATOM      1  C   UNL     1     -10.061   6.380 128.821  0.00  0.00    +0.000 A 
ATOM      2  C   UNL     1     -11.183   7.117 128.427  0.00  0.00    +0.000 A 
ATOM      3  I   UNL     1     -11.585   7.523 126.418  0.00  0.00    +0.000 I 
ATOM      4  C   UNL     1     -12.081   7.582 129.382  0.00  0.00    +0.000 A 
ATOM      5  C   UNL     1     -11.851   7.308 130.726  0.00  0.00    +0.000 A 
ATOM      6 CL   UNL     1     -13.035   7.889 131.855  0.00  0.00    +0.000 Cl
ATOM      7  C   UNL     1     -10.746   6.533 131.136  0.00  0.00    +0.000 A 
ATOM      8  C   UNL     1      -9.823   6.062 130.165  0.00  0.00    +0.000 A 
ATOM      9  N   UNL     1      -8.774   5.289 130.518  0.00  0.00    +0.000 NA
ATOM     10  C   UNL     1      -8.678   4.851 131.789  0.00  0.00    +0.000 A 
ATOM     11  C   UNL     1      -9.567   5.199 132.781  0.00  0.00    +0.000 A 
ATOM     12  C   UNL     1     -10.542   6.130 132.469  0.00  0.00    +0.000 A 
ENDROOT
BRANCH   1  13
ATOM     13  O   UNL     1      -9.173   5.905 127.877  0.00  0.00    +0.000 OA
ATOM     14  H   UNL     1      -9.570   6.004 126.996  0.00  0.00    +0.000 HD
ENDBRANCH   1  13
TORSDOF 1
ENDMDL
MODEL 6
REMARK VINA RESULT:      -5.1      9.237     10.179
REMARK  Name = Clioquinol
REMARK  1 active torsions:
REMARK  status: ('A' for Active; 'I' for Inactive)
REMARK    1  A    between atoms: O_1  and  C_2
REMARK                            x       y       z     vdW  Elec       q    Type
REMARK                         _______ _______ _______ _____ _____    ______ ____
ROOT
ATOM      1  C   UNL     1      -7.748  -0.060 125.923  0.00  0.00    +0.000 A 
ATOM      2  C   UNL     1      -7.951   0.054 124.543  0.00  0.00    +0.000 A 
ATOM      3  I   UNL     1      -7.348   1.745 123.477  0.00  0.00    +0.000 I 
ATOM      4  C   UNL     1      -8.549  -0.987 123.840  0.00  0.00    +0.000 A 
ATOM      5  C   UNL     1      -8.941  -2.135 124.520  0.00  0.00    +0.000 A 
ATOM      6 CL   UNL     1      -9.645  -3.404 123.568  0.00  0.00    +0.000 Cl
ATOM      7  C   UNL     1      -8.707  -2.281 125.904  0.00  0.00    +0.000 A 
ATOM      8  C   UNL     1      -8.104  -1.219 126.627  0.00  0.00    +0.000 A 
ATOM      9  N   UNL     1      -7.834  -1.338 127.945  0.00  0.00    +0.000 NA
ATOM     10  C   UNL     1      -8.020  -2.529 128.549  0.00  0.00    +0.000 A 
ATOM     11  C   UNL     1      -8.533  -3.633 127.907  0.00  0.00    +0.000 A 
ATOM     12  C   UNL     1      -8.976  -3.470 126.607  0.00  0.00    +0.000 A 
ENDROOT
BRANCH   1  13
ATOM     13  O   UNL     1      -7.144   0.963 126.626  0.00  0.00    +0.000 OA
ATOM     14  H   UNL     1      -7.825   1.446 127.123  0.00  0.00    +0.000 HD
ENDBRANCH   1  13
TORSDOF 1
ENDMDL
MODEL 7
REMARK VINA RESULT:      -5.1     10.532     10.959
REMARK  Name = Clioquinol
REMARK  1 active torsions:
REMARK  status: ('A' for Active; 'I' for Inactive)
REMARK    1  A    between atoms: O_1  and  C_2
REMARK                            x       y       z     vdW  Elec       q    Type
REMARK                         _______ _______ _______ _____ _____    ______ ____
ROOT
ATOM      1  C   UNL     1      -6.949  -1.997 125.775  0.00  0.00    +0.000 A 
ATOM      2  C   UNL     1      -8.156  -2.474 125.252  0.00  0.00    +0.000 A 
ATOM      3  I   UNL     1      -8.670  -2.204 123.245  0.00  0.00    +0.000 I 
ATOM      4  C   UNL     1      -9.043  -3.169 126.068  0.00  0.00    +0.000 A 
ATOM      5  C   UNL     1      -8.718  -3.382 127.403  0.00  0.00    +0.000 A 
ATOM      6 CL   UNL     1      -9.856  -4.290 128.348  0.00  0.00    +0.000 Cl
ATOM      7  C   UNL     1      -7.487  -2.943 127.936  0.00  0.00    +0.000 A 
ATOM      8  C   UNL     1      -6.583  -2.227 127.109  0.00  0.00    +0.000 A 
ATOM      9  N   UNL     1      -5.382  -1.822 127.576  0.00  0.00    +0.000 NA
ATOM     10  C   UNL     1      -4.986  -2.218 128.802  0.00  0.00    +0.000 A 
ATOM     11  C   UNL     1      -5.769  -2.974 129.645  0.00  0.00    +0.000 A 
ATOM     12  C   UNL     1      -7.066  -3.244 129.245  0.00  0.00    +0.000 A 
ENDROOT
BRANCH   1  13
ATOM     13  O   UNL     1      -6.059  -1.317 124.968  0.00  0.00    +0.000 OA
ATOM     14  H   UNL     1      -5.990  -0.400 125.282  0.00  0.00    +0.000 HD
ENDBRANCH   1  13
TORSDOF 1
ENDMDL
MODEL 8
REMARK VINA RESULT:      -5.0      3.783      4.804
REMARK  Name = Clioquinol
REMARK  1 active torsions:
REMARK  status: ('A' for Active; 'I' for Inactive)
REMARK    1  A    between atoms: O_1  and  C_2
REMARK                            x       y       z     vdW  Elec       q    Type
REMARK                         _______ _______ _______ _____ _____    ______ ____
ROOT
ATOM      1  C   UNL     1      -8.081   5.254 133.815  0.00  0.00    +0.000 A 
ATOM      2  C   UNL     1      -6.684   5.212 133.886  0.00  0.00    +0.000 A 
ATOM      3  I   UNL     1      -5.688   4.208 135.423  0.00  0.00    +0.000 I 
ATOM      4  C   UNL     1      -5.919   5.831 132.903  0.00  0.00    +0.000 A 
ATOM      5  C   UNL     1      -6.554   6.489 131.855  0.00  0.00    +0.000 A 
ATOM      6 CL   UNL     1      -5.533   7.205 130.648  0.00  0.00    +0.000 Cl
ATOM      7  C   UNL     1      -7.961   6.506 131.749  0.00  0.00    +0.000 A 
ATOM      8  C   UNL     1      -8.746   5.882 132.752  0.00  0.00    +0.000 A 
ATOM      9  N   UNL     1     -10.093   5.849 132.665  0.00  0.00    +0.000 NA
ATOM     10  C   UNL     1     -10.690   6.299 131.542  0.00  0.00    +0.000 A 
ATOM     11  C   UNL     1     -10.001   6.855 130.488  0.00  0.00    +0.000 A 
ATOM     12  C   UNL     1      -8.641   7.053 130.644  0.00  0.00    +0.000 A 
ENDROOT
BRANCH   1  13
ATOM     13  O   UNL     1      -8.847   4.631 134.780  0.00  0.00    +0.000 OA
ATOM     14  H   UNL     1      -9.708   5.078 134.831  0.00  0.00    +0.000 HD
ENDBRANCH   1  13
TORSDOF 1
ENDMDL
MODEL 9
REMARK VINA RESULT:      -5.0      2.596      3.370
REMARK  Name = Clioquinol
REMARK  1 active torsions:
REMARK  status: ('A' for Active; 'I' for Inactive)
REMARK    1  A    between atoms: O_1  and  C_2
REMARK                            x       y       z     vdW  Elec       q    Type
REMARK                         _______ _______ _______ _____ _____    ______ ____
ROOT
ATOM      1  C   UNL     1     -10.390   5.415 130.913  0.00  0.00    +0.000 A 
ATOM      2  C   UNL     1      -9.585   5.080 129.819  0.00  0.00    +0.000 A 
ATOM      3  I   UNL     1      -8.351   3.394 129.835  0.00  0.00    +0.000 I 
ATOM      4  C   UNL     1      -9.608   5.864 128.671  0.00  0.00    +0.000 A 
ATOM      5  C   UNL     1     -10.436   6.981 128.624  0.00  0.00    +0.000 A 
ATOM      6 CL   UNL     1     -10.440   7.888 127.144  0.00  0.00    +0.000 Cl
ATOM      7  C   UNL     1     -11.283   7.309 129.703  0.00  0.00    +0.000 A 
ATOM      8  C   UNL     1     -11.258   6.516 130.879  0.00  0.00    +0.000 A 
ATOM      9  N   UNL     1     -12.079   6.781 131.918  0.00  0.00    +0.000 NA
ATOM     10  C   UNL     1     -13.026   7.731 131.781  0.00  0.00    +0.000 A 
ATOM     11  C   UNL     1     -13.171   8.500 130.648  0.00  0.00    +0.000 A 
ATOM     12  C   UNL     1     -12.223   8.356 129.650  0.00  0.00    +0.000 A 
ENDROOT
BRANCH   1  13
ATOM     13  O   UNL     1     -10.381   4.634 132.051  0.00  0.00    +0.000 OA
ATOM     14  H   UNL     1     -10.176   5.198 132.816  0.00  0.00    +0.000 HD
ENDBRANCH   1  13
TORSDOF 1
ENDMDL
