MODEL 1
REMARK VINA RESULT:      -9.3      0.000      0.000
REMARK  Name = Clobetasol propionate
REMARK  10 active torsions:
REMARK  status: ('A' for Active; 'I' for Inactive)
REMARK    1  A    between atoms: C_4  and  C_5
REMARK    2  A    between atoms: C_6  and  O_7
REMARK    3  A    between atoms: C_6  and  C_12
REMARK    4  A    between atoms: O_7  and  C_8
REMARK    5  A    between atoms: C_8  and  C_10
REMARK    6  A    between atoms: C_10  and  C_11
REMARK    7  A    between atoms: C_12  and  C_14
REMARK    8  A    between atoms: C_16  and  C_17
REMARK    9  A    between atoms: C_19  and  O_20
REMARK   10  A    between atoms: C_33  and  C_34
REMARK                            x       y       z     vdW  Elec       q    Type
REMARK                         _______ _______ _______ _____ _____    ______ ____
ROOT
ATOM      1  C   UNL     1      -8.079   2.522 127.649  0.00  0.00    +0.000 C 
ATOM      2  C   UNL     1      -8.774   1.930 128.730  0.00  0.00    +0.000 C 
ATOM      3  C   UNL     1      -7.354   1.550 128.706  0.00  0.00    +0.000 C 
ATOM      4  C   UNL     1      -7.819   0.444 130.115  0.00  0.00    +0.000 C 
ATOM      5  C   UNL     1      -6.261   2.710 127.370  0.00  0.00    +0.000 C 
ATOM      6  C   UNL     1      -6.561   2.917 128.668  0.00  0.00    +0.000 C 
ATOM      7  C   UNL     1      -6.661   4.216 129.375  0.00  0.00    +0.000 C 
ATOM      8  C   UNL     1      -5.227   1.665 128.798  0.00  0.00    +0.000 C 
ATOM      9  C   UNL     1      -5.309   0.505 127.381  0.00  0.00    +0.000 C 
ATOM     10  C   UNL     1      -6.838   0.104 126.599  0.00  0.00    +0.000 C 
ATOM     11  F   UNL     1      -7.793  -0.091 127.609  0.00  0.00    +0.000 F 
ATOM     12  C   UNL     1      -7.763   1.327 126.234  0.00  0.00    +0.000 C 
ATOM     13  C   UNL     1      -9.191   0.812 125.923  0.00  0.00    +0.000 C 
ATOM     14  C   UNL     1      -9.127  -0.351 125.001  0.00  0.00    +0.000 C 
ATOM     15  C   UNL     1      -8.576  -1.471 125.837  0.00  0.00    +0.000 C 
ATOM     16  C   UNL     1      -9.114  -2.708 125.922  0.00  0.00    +0.000 C 
ATOM     17  C   UNL     1      -8.997  -3.003 124.510  0.00  0.00    +0.000 C 
ATOM     18  O   UNL     1      -9.887  -2.858 123.698  0.00  0.00    +0.000 OA
ATOM     19  C   UNL     1      -7.524  -3.287 124.320  0.00  0.00    +0.000 C 
ATOM     20  C   UNL     1      -6.601  -2.487 125.013  0.00  0.00    +0.000 C 
ATOM     21  C   UNL     1      -7.096  -1.435 126.179  0.00  0.00    +0.000 C 
ATOM     22  C   UNL     1      -7.166  -2.063 127.717  0.00  0.00    +0.000 C 
ENDROOT
BRANCH   5  23
ATOM     23  C   UNL     1      -4.675   3.700 127.361  0.00  0.00    +0.000 C 
ATOM     24  O   UNL     1      -3.875   3.622 126.411  0.00  0.00    +0.000 OA
BRANCH  23  25
ATOM     25  C   UNL     1      -4.130   4.656 128.530  0.00  0.00    +0.000 C 
ATOM     26 CL   UNL     1      -3.795   6.374 127.735  0.00  0.00    +0.000 Cl
ENDBRANCH  23  25
ENDBRANCH   5  23
BRANCH   9  27
ATOM     27  O   UNL     1      -4.373   0.985 126.399  0.00  0.00    +0.000 OA
ATOM     28  H   UNL     1      -4.830   1.228 125.579  0.00  0.00    +0.000 HD
ENDBRANCH   9  27
BRANCH   5  29
ATOM     29  O   UNL     1      -6.938   4.121 126.573  0.00  0.00    +0.000 OA
BRANCH  29  30
ATOM     30  C   UNL     1      -6.680   4.634 125.314  0.00  0.00    +0.000 C 
ATOM     31  O   UNL     1      -6.327   5.788 125.110  0.00  0.00    +0.000 OA
BRANCH  30  32
ATOM     32  C   UNL     1      -6.676   3.807 124.059  0.00  0.00    +0.000 C 
ATOM     33  C   UNL     1      -5.437   4.312 123.237  0.00  0.00    +0.000 C 
ENDBRANCH  30  32
ENDBRANCH  29  30
ENDBRANCH   5  29
TORSDOF 6
ENDMDL
MODEL 2
REMARK VINA RESULT:      -9.1      2.915      6.671
REMARK  Name = Clobetasol propionate
REMARK  10 active torsions:
REMARK  status: ('A' for Active; 'I' for Inactive)
REMARK    1  A    between atoms: C_4  and  C_5
REMARK    2  A    between atoms: C_6  and  O_7
REMARK    3  A    between atoms: C_6  and  C_12
REMARK    4  A    between atoms: O_7  and  C_8
REMARK    5  A    between atoms: C_8  and  C_10
REMARK    6  A    between atoms: C_10  and  C_11
REMARK    7  A    between atoms: C_12  and  C_14
REMARK    8  A    between atoms: C_16  and  C_17
REMARK    9  A    between atoms: C_19  and  O_20
REMARK   10  A    between atoms: C_33  and  C_34
REMARK                            x       y       z     vdW  Elec       q    Type
REMARK                         _______ _______ _______ _____ _____    ______ ____
ROOT
ATOM      1  C   UNL     1      -5.105   1.996 126.246  0.00  0.00    +0.000 C 
ATOM      2  C   UNL     1      -4.714   0.987 127.157  0.00  0.00    +0.000 C 
ATOM      3  C   UNL     1      -5.971   1.638 127.555  0.00  0.00    +0.000 C 
ATOM      4  C   UNL     1      -5.819   0.586 129.070  0.00  0.00    +0.000 C 
ATOM      5  C   UNL     1      -6.740   2.833 126.037  0.00  0.00    +0.000 C 
ATOM      6  C   UNL     1      -6.914   1.521 126.292  0.00  0.00    +0.000 C 
ATOM      7  C   UNL     1      -7.255   0.451 125.323  0.00  0.00    +0.000 C 
ATOM      8  C   UNL     1      -8.002   2.284 127.556  0.00  0.00    +0.000 C 
ATOM      9  C   UNL     1      -7.283   3.867 128.136  0.00  0.00    +0.000 C 
ATOM     10  C   UNL     1      -5.540   4.132 128.180  0.00  0.00    +0.000 C 
ATOM     11  F   UNL     1      -4.946   2.965 128.686  0.00  0.00    +0.000 F 
ATOM     12  C   UNL     1      -4.753   3.731 126.876  0.00  0.00    +0.000 C 
ATOM     13  C   UNL     1      -3.238   3.656 127.195  0.00  0.00    +0.000 C 
ATOM     14  C   UNL     1      -2.815   4.858 127.959  0.00  0.00    +0.000 C 
ATOM     15  C   UNL     1      -3.423   4.678 129.322  0.00  0.00    +0.000 C 
ATOM     16  C   UNL     1      -2.753   4.803 130.489  0.00  0.00    +0.000 C 
ATOM     17  C   UNL     1      -2.359   6.178 130.270  0.00  0.00    +0.000 C 
ATOM     18  O   UNL     1      -1.288   6.525 129.816  0.00  0.00    +0.000 OA
ATOM     19  C   UNL     1      -3.625   6.964 130.521  0.00  0.00    +0.000 C 
ATOM     20  C   UNL     1      -4.838   6.433 130.050  0.00  0.00    +0.000 C 
ATOM     21  C   UNL     1      -4.920   4.897 129.462  0.00  0.00    +0.000 C 
ATOM     22  C   UNL     1      -5.255   3.722 130.589  0.00  0.00    +0.000 C 
ENDROOT
BRANCH   5  23
ATOM     23  C   UNL     1      -8.374   3.095 125.165  0.00  0.00    +0.000 C 
ATOM     24  O   UNL     1      -8.869   4.232 125.059  0.00  0.00    +0.000 OA
BRANCH  23  25
ATOM     25  C   UNL     1      -9.329   1.962 124.549  0.00  0.00    +0.000 C 
ATOM     26 CL   UNL     1      -9.211   2.114 122.636  0.00  0.00    +0.000 Cl
ENDBRANCH  23  25
ENDBRANCH   5  23
BRANCH   9  27
ATOM     27  O   UNL     1      -7.914   4.911 127.374  0.00  0.00    +0.000 OA
ATOM     28  H   UNL     1      -8.072   4.623 126.461  0.00  0.00    +0.000 HD
ENDBRANCH   9  27
BRANCH   5  29
ATOM     29  O   UNL     1      -6.074   2.842 124.413  0.00  0.00    +0.000 OA
BRANCH  29  30
ATOM     30  C   UNL     1      -5.952   3.885 123.512  0.00  0.00    +0.000 C 
ATOM     31  O   UNL     1      -5.686   5.035 123.835  0.00  0.00    +0.000 OA
BRANCH  30  32
ATOM     32  C   UNL     1      -6.003   3.711 122.020  0.00  0.00    +0.000 C 
ATOM     33  C   UNL     1      -4.808   4.565 121.465  0.00  0.00    +0.000 C 
ENDBRANCH  30  32
ENDBRANCH  29  30
ENDBRANCH   5  29
TORSDOF 6
ENDMDL
MODEL 3
REMARK VINA RESULT:      -8.6      2.681      5.188
REMARK  Name = Clobetasol propionate
REMARK  10 active torsions:
REMARK  status: ('A' for Active; 'I' for Inactive)
REMARK    1  A    between atoms: C_4  and  C_5
REMARK    2  A    between atoms: C_6  and  O_7
REMARK    3  A    between atoms: C_6  and  C_12
REMARK    4  A    between atoms: O_7  and  C_8
REMARK    5  A    between atoms: C_8  and  C_10
REMARK    6  A    between atoms: C_10  and  C_11
REMARK    7  A    between atoms: C_12  and  C_14
REMARK    8  A    between atoms: C_16  and  C_17
REMARK    9  A    between atoms: C_19  and  O_20
REMARK   10  A    between atoms: C_33  and  C_34
REMARK                            x       y       z     vdW  Elec       q    Type
REMARK                         _______ _______ _______ _____ _____    ______ ____
ROOT
ATOM      1  C   UNL     1      -5.742  -1.018 125.404  0.00  0.00    +0.000 C 
ATOM      2  C   UNL     1      -5.869  -2.339 124.913  0.00  0.00    +0.000 C 
ATOM      3  C   UNL     1      -7.171  -1.739 125.238  0.00  0.00    +0.000 C 
ATOM      4  C   UNL     1      -7.836  -3.418 124.829  0.00  0.00    +0.000 C 
ATOM      5  C   UNL     1      -7.019   0.306 125.584  0.00  0.00    +0.000 C 
ATOM      6  C   UNL     1      -7.209  -0.377 124.436  0.00  0.00    +0.000 C 
ATOM      7  C   UNL     1      -6.853   0.051 123.062  0.00  0.00    +0.000 C 
ATOM      8  C   UNL     1      -8.878  -0.464 125.192  0.00  0.00    +0.000 C 
ATOM      9  C   UNL     1      -8.742  -0.559 127.017  0.00  0.00    +0.000 C 
ATOM     10  C   UNL     1      -7.364  -1.327 127.804  0.00  0.00    +0.000 C 
ATOM     11  F   UNL     1      -7.081  -2.511 127.105  0.00  0.00    +0.000 F 
ATOM     12  C   UNL     1      -5.944  -0.904 127.268  0.00  0.00    +0.000 C 
ATOM     13  C   UNL     1      -4.885  -1.919 127.769  0.00  0.00    +0.000 C 
ATOM     14  C   UNL     1      -5.067  -2.174 129.221  0.00  0.00    +0.000 C 
ATOM     15  C   UNL     1      -6.330  -2.984 129.311  0.00  0.00    +0.000 C 
ATOM     16  C   UNL     1      -6.460  -4.136 130.004  0.00  0.00    +0.000 C 
ATOM     17  C   UNL     1      -6.116  -3.561 131.287  0.00  0.00    +0.000 C 
ATOM     18  O   UNL     1      -5.007  -3.590 131.781  0.00  0.00    +0.000 OA
ATOM     19  C   UNL     1      -7.352  -2.787 131.682  0.00  0.00    +0.000 C 
ATOM     20  C   UNL     1      -8.033  -2.072 130.682  0.00  0.00    +0.000 C 
ATOM     21  C   UNL     1      -7.648  -2.262 129.093  0.00  0.00    +0.000 C 
ATOM     22  C   UNL     1      -8.480  -3.464 128.300  0.00  0.00    +0.000 C 
ENDROOT
BRANCH   5  23
ATOM     23  C   UNL     1      -7.873   1.877 125.036  0.00  0.00    +0.000 C 
ATOM     24  O   UNL     1      -8.238   2.731 125.864  0.00  0.00    +0.000 OA
BRANCH  23  25
ATOM     25  C   UNL     1      -8.293   2.272 123.538  0.00  0.00    +0.000 C 
ATOM     26 CL   UNL     1      -6.996   3.547 122.914  0.00  0.00    +0.000 Cl
ENDBRANCH  23  25
ENDBRANCH   5  23
BRANCH   9  27
ATOM     27  O   UNL     1      -8.898   0.782 127.514  0.00  0.00    +0.000 OA
ATOM     28  H   UNL     1      -9.603   0.823 128.179  0.00  0.00    +0.000 HD
ENDBRANCH   9  27
BRANCH   5  29
ATOM     29  O   UNL     1      -5.546   1.209 125.274  0.00  0.00    +0.000 OA
BRANCH  29  30
ATOM     30  C   UNL     1      -4.927   2.181 126.039  0.00  0.00    +0.000 C 
ATOM     31  O   UNL     1      -4.416   1.965 127.129  0.00  0.00    +0.000 OA
BRANCH  30  32
ATOM     32  C   UNL     1      -4.691   3.589 125.570  0.00  0.00    +0.000 C 
ATOM     33  C   UNL     1      -5.251   4.504 126.717  0.00  0.00    +0.000 C 
ENDBRANCH  30  32
ENDBRANCH  29  30
ENDBRANCH   5  29
TORSDOF 6
ENDMDL
MODEL 4
REMARK VINA RESULT:      -8.6      4.161      7.919
REMARK  Name = Clobetasol propionate
REMARK  10 active torsions:
REMARK  status: ('A' for Active; 'I' for Inactive)
REMARK    1  A    between atoms: C_4  and  C_5
REMARK    2  A    between atoms: C_6  and  O_7
REMARK    3  A    between atoms: C_6  and  C_12
REMARK    4  A    between atoms: O_7  and  C_8
REMARK    5  A    between atoms: C_8  and  C_10
REMARK    6  A    between atoms: C_10  and  C_11
REMARK    7  A    between atoms: C_12  and  C_14
REMARK    8  A    between atoms: C_16  and  C_17
REMARK    9  A    between atoms: C_19  and  O_20
REMARK   10  A    between atoms: C_33  and  C_34
REMARK                            x       y       z     vdW  Elec       q    Type
REMARK                         _______ _______ _______ _____ _____    ______ ____
ROOT
ATOM      1  C   UNL     1      -8.244   3.276 130.822  0.00  0.00    +0.000 C 
ATOM      2  C   UNL     1      -8.481   2.661 132.073  0.00  0.00    +0.000 C 
ATOM      3  C   UNL     1      -8.724   4.110 132.112  0.00  0.00    +0.000 C 
ATOM      4  C   UNL     1      -8.990   3.828 133.922  0.00  0.00    +0.000 C 
ATOM      5  C   UNL     1      -8.756   4.943 130.207  0.00  0.00    +0.000 C 
ATOM      6  C   UNL     1      -9.745   4.388 130.937  0.00  0.00    +0.000 C 
ATOM      7  C   UNL     1     -10.982   3.743 130.437  0.00  0.00    +0.000 C 
ATOM      8  C   UNL     1      -9.576   6.029 131.740  0.00  0.00    +0.000 C 
ATOM      9  C   UNL     1      -7.825   6.571 131.707  0.00  0.00    +0.000 C 
ATOM     10  C   UNL     1      -6.495   5.413 131.751  0.00  0.00    +0.000 C 
ATOM     11  F   UNL     1      -6.818   4.433 132.704  0.00  0.00    +0.000 F 
ATOM     12  C   UNL     1      -6.610   4.200 130.753  0.00  0.00    +0.000 C 
ATOM     13  C   UNL     1      -5.601   3.099 131.169  0.00  0.00    +0.000 C 
ATOM     14  C   UNL     1      -4.268   3.699 131.434  0.00  0.00    +0.000 C 
ATOM     15  C   UNL     1      -4.439   4.456 132.721  0.00  0.00    +0.000 C 
ATOM     16  C   UNL     1      -3.615   4.362 133.787  0.00  0.00    +0.000 C 
ATOM     17  C   UNL     1      -2.430   4.796 133.079  0.00  0.00    +0.000 C 
ATOM     18  O   UNL     1      -1.604   4.050 132.592  0.00  0.00    +0.000 OA
ATOM     19  C   UNL     1      -2.621   6.288 132.931  0.00  0.00    +0.000 C 
ATOM     20  C   UNL     1      -3.908   6.763 132.628  0.00  0.00    +0.000 C 
ATOM     21  C   UNL     1      -5.215   5.762 132.674  0.00  0.00    +0.000 C 
ATOM     22  C   UNL     1      -5.983   5.665 134.145  0.00  0.00    +0.000 C 
ENDROOT
BRANCH   5  23
ATOM     23  C   UNL     1      -9.850   6.080 129.203  0.00  0.00    +0.000 C 
ATOM     24  O   UNL     1      -9.670   6.229 127.981  0.00  0.00    +0.000 OA
BRANCH  23  25
ATOM     25  C   UNL     1     -11.034   7.013 129.756  0.00  0.00    +0.000 C 
ATOM     26 CL   UNL     1     -12.639   6.474 128.845  0.00  0.00    +0.000 Cl
ENDBRANCH  23  25
ENDBRANCH   5  23
BRANCH   9  27
ATOM     27  O   UNL     1      -7.680   7.433 130.565  0.00  0.00    +0.000 OA
ATOM     28  H   UNL     1      -6.915   7.168 130.029  0.00  0.00    +0.000 HD
ENDBRANCH   9  27
BRANCH   5  29
ATOM     29  O   UNL     1      -8.738   3.965 128.749  0.00  0.00    +0.000 OA
BRANCH  29  30
ATOM     30  C   UNL     1      -7.710   3.733 127.852  0.00  0.00    +0.000 C 
ATOM     31  O   UNL     1      -7.012   4.617 127.374  0.00  0.00    +0.000 OA
BRANCH  30  32
ATOM     32  C   UNL     1      -7.241   2.362 127.456  0.00  0.00    +0.000 C 
ATOM     33  C   UNL     1      -8.487   1.427 127.652  0.00  0.00    +0.000 C 
ENDBRANCH  30  32
ENDBRANCH  29  30
ENDBRANCH   5  29
TORSDOF 6
ENDMDL
MODEL 5
REMARK VINA RESULT:      -8.5      2.500      4.531
REMARK  Name = Clobetasol propionate
REMARK  10 active torsions:
REMARK  status: ('A' for Active; 'I' for Inactive)
REMARK    1  A    between atoms: C_4  and  C_5
REMARK    2  A    between atoms: C_6  and  O_7
REMARK    3  A    between atoms: C_6  and  C_12
REMARK    4  A    between atoms: O_7  and  C_8
REMARK    5  A    between atoms: C_8  and  C_10
REMARK    6  A    between atoms: C_10  and  C_11
REMARK    7  A    between atoms: C_12  and  C_14
REMARK    8  A    between atoms: C_16  and  C_17
REMARK    9  A    between atoms: C_19  and  O_20
REMARK   10  A    between atoms: C_33  and  C_34
REMARK                            x       y       z     vdW  Elec       q    Type
REMARK                         _______ _______ _______ _____ _____    ______ ____
ROOT
ATOM      1  C   UNL     1      -6.693   1.634 128.824  0.00  0.00    +0.000 C 
ATOM      2  C   UNL     1      -5.468   1.107 128.351  0.00  0.00    +0.000 C 
ATOM      3  C   UNL     1      -5.708   2.474 127.868  0.00  0.00    +0.000 C 
ATOM      4  C   UNL     1      -4.162   2.199 126.888  0.00  0.00    +0.000 C 
ATOM      5  C   UNL     1      -7.294   3.382 128.861  0.00  0.00    +0.000 C 
ATOM      6  C   UNL     1      -5.982   3.330 129.169  0.00  0.00    +0.000 C 
ATOM      7  C   UNL     1      -5.366   3.435 130.513  0.00  0.00    +0.000 C 
ATOM      8  C   UNL     1      -5.993   4.586 127.833  0.00  0.00    +0.000 C 
ATOM      9  C   UNL     1      -7.286   4.184 126.597  0.00  0.00    +0.000 C 
ATOM     10  C   UNL     1      -7.761   2.519 126.262  0.00  0.00    +0.000 C 
ATOM     11  F   UNL     1      -6.589   1.748 126.199  0.00  0.00    +0.000 F 
ATOM     12  C   UNL     1      -8.049   1.621 127.524  0.00  0.00    +0.000 C 
ATOM     13  C   UNL     1      -8.071   0.132 127.096  0.00  0.00    +0.000 C 
ATOM     14  C   UNL     1      -8.903  -0.039 125.877  0.00  0.00    +0.000 C 
ATOM     15  C   UNL     1      -8.094   0.581 124.773  0.00  0.00    +0.000 C 
ATOM     16  C   UNL     1      -7.827  -0.008 123.587  0.00  0.00    +0.000 C 
ATOM     17  C   UNL     1      -9.213  -0.160 123.198  0.00  0.00    +0.000 C 
ATOM     18  O   UNL     1      -9.867  -1.170 123.357  0.00  0.00    +0.000 OA
ATOM     19  C   UNL     1      -9.632   1.235 122.795  0.00  0.00    +0.000 C 
ATOM     20  C   UNL     1      -9.170   2.314 123.568  0.00  0.00    +0.000 C 
ATOM     21  C   UNL     1      -8.016   2.098 124.722  0.00  0.00    +0.000 C 
ATOM     22  C   UNL     1      -6.447   2.264 124.197  0.00  0.00    +0.000 C 
ENDROOT
BRANCH   5  23
ATOM     23  C   UNL     1      -7.649   4.999 129.731  0.00  0.00    +0.000 C 
ATOM     24  O   UNL     1      -8.594   5.725 129.373  0.00  0.00    +0.000 OA
BRANCH  23  25
ATOM     25  C   UNL     1      -6.796   5.661 130.918  0.00  0.00    +0.000 C 
ATOM     26 CL   UNL     1      -8.040   6.115 132.312  0.00  0.00    +0.000 Cl
ENDBRANCH  23  25
ENDBRANCH   5  23
BRANCH   9  27
ATOM     27  O   UNL     1      -8.446   4.959 126.946  0.00  0.00    +0.000 OA
ATOM     28  H   UNL     1      -8.224   5.901 127.011  0.00  0.00    +0.000 HD
ENDBRANCH   9  27
BRANCH   5  29
ATOM     29  O   UNL     1      -8.064   2.662 130.265  0.00  0.00    +0.000 OA
BRANCH  29  30
ATOM     30  C   UNL     1      -9.405   2.584 130.596  0.00  0.00    +0.000 C 
ATOM     31  O   UNL     1     -10.304   3.041 129.903  0.00  0.00    +0.000 OA
BRANCH  30  32
ATOM     32  C   UNL     1      -9.931   1.820 131.778  0.00  0.00    +0.000 C 
ATOM     33  C   UNL     1      -9.150   0.458 131.769  0.00  0.00    +0.000 C 
ENDBRANCH  30  32
ENDBRANCH  29  30
ENDBRANCH   5  29
TORSDOF 6
ENDMDL
MODEL 6
REMARK VINA RESULT:      -8.3      3.850      5.660
REMARK  Name = Clobetasol propionate
REMARK  10 active torsions:
REMARK  status: ('A' for Active; 'I' for Inactive)
REMARK    1  A    between atoms: C_4  and  C_5
REMARK    2  A    between atoms: C_6  and  O_7
REMARK    3  A    between atoms: C_6  and  C_12
REMARK    4  A    between atoms: O_7  and  C_8
REMARK    5  A    between atoms: C_8  and  C_10
REMARK    6  A    between atoms: C_10  and  C_11
REMARK    7  A    between atoms: C_12  and  C_14
REMARK    8  A    between atoms: C_16  and  C_17
REMARK    9  A    between atoms: C_19  and  O_20
REMARK   10  A    between atoms: C_33  and  C_34
REMARK                            x       y       z     vdW  Elec       q    Type
REMARK                         _______ _______ _______ _____ _____    ______ ____
ROOT
ATOM      1  C   UNL     1      -5.618   0.152 128.947  0.00  0.00    +0.000 C 
ATOM      2  C   UNL     1      -6.205   1.379 128.558  0.00  0.00    +0.000 C 
ATOM      3  C   UNL     1      -7.205   0.407 129.024  0.00  0.00    +0.000 C 
ATOM      4  C   UNL     1      -8.426   1.697 128.503  0.00  0.00    +0.000 C 
ATOM      5  C   UNL     1      -6.323  -1.232 129.950  0.00  0.00    +0.000 C 
ATOM      6  C   UNL     1      -6.708  -0.042 130.456  0.00  0.00    +0.000 C 
ATOM      7  C   UNL     1      -6.167   0.647 131.652  0.00  0.00    +0.000 C 
ATOM      8  C   UNL     1      -8.318  -0.903 130.284  0.00  0.00    +0.000 C 
ATOM      9  C   UNL     1      -8.295  -2.000 128.815  0.00  0.00    +0.000 C 
ATOM     10  C   UNL     1      -7.328  -1.620 127.390  0.00  0.00    +0.000 C 
ATOM     11  F   UNL     1      -7.477  -0.248 127.130  0.00  0.00    +0.000 F 
ATOM     12  C   UNL     1      -5.834  -1.205 127.666  0.00  0.00    +0.000 C 
ATOM     13  C   UNL     1      -5.244  -0.544 126.395  0.00  0.00    +0.000 C 
ATOM     14  C   UNL     1      -5.562  -1.363 125.197  0.00  0.00    +0.000 C 
ATOM     15  C   UNL     1      -7.036  -1.170 124.982  0.00  0.00    +0.000 C 
ATOM     16  C   UNL     1      -7.609  -0.841 123.804  0.00  0.00    +0.000 C 
ATOM     17  C   UNL     1      -7.125  -2.004 123.091  0.00  0.00    +0.000 C 
ATOM     18  O   UNL     1      -6.125  -2.025 122.403  0.00  0.00    +0.000 OA
ATOM     19  C   UNL     1      -8.003  -3.129 123.591  0.00  0.00    +0.000 C 
ATOM     20  C   UNL     1      -8.333  -3.153 124.956  0.00  0.00    +0.000 C 
ATOM     21  C   UNL     1      -7.986  -1.876 125.936  0.00  0.00    +0.000 C 
ATOM     22  C   UNL     1      -9.172  -0.715 126.035  0.00  0.00    +0.000 C 
ENDROOT
BRANCH   5  23
ATOM     23  C   UNL     1      -6.515  -2.205 131.536  0.00  0.00    +0.000 C 
ATOM     24  O   UNL     1      -6.505  -3.449 131.530  0.00  0.00    +0.000 OA
BRANCH  23  25
ATOM     25  C   UNL     1      -6.779  -1.611 133.004  0.00  0.00    +0.000 C 
ATOM     26 CL   UNL     1      -8.137  -2.706 133.812  0.00  0.00    +0.000 Cl
ENDBRANCH  23  25
ENDBRANCH   5  23
BRANCH   9  27
ATOM     27  O   UNL     1      -7.964  -3.317 129.289  0.00  0.00    +0.000 OA
ATOM     28  H   UNL     1      -7.101  -3.317 129.733  0.00  0.00    +0.000 HD
ENDBRANCH   9  27
BRANCH   5  29
ATOM     29  O   UNL     1      -4.609  -1.293 130.330  0.00  0.00    +0.000 OA
BRANCH  29  30
ATOM     30  C   UNL     1      -3.663  -2.245 129.997  0.00  0.00    +0.000 C 
ATOM     31  O   UNL     1      -2.473  -2.145 130.265  0.00  0.00    +0.000 OA
BRANCH  30  32
ATOM     32  C   UNL     1      -3.997  -3.576 129.383  0.00  0.00    +0.000 C 
ATOM     33  C   UNL     1      -2.663  -4.069 128.718  0.00  0.00    +0.000 C 
ENDBRANCH  30  32
ENDBRANCH  29  30
ENDBRANCH   5  29
TORSDOF 6
ENDMDL
MODEL 7
REMARK VINA RESULT:      -8.1      3.406      6.825
REMARK  Name = Clobetasol propionate
REMARK  10 active torsions:
REMARK  status: ('A' for Active; 'I' for Inactive)
REMARK    1  A    between atoms: C_4  and  C_5
REMARK    2  A    between atoms: C_6  and  O_7
REMARK    3  A    between atoms: C_6  and  C_12
REMARK    4  A    between atoms: O_7  and  C_8
REMARK    5  A    between atoms: C_8  and  C_10
REMARK    6  A    between atoms: C_10  and  C_11
REMARK    7  A    between atoms: C_12  and  C_14
REMARK    8  A    between atoms: C_16  and  C_17
REMARK    9  A    between atoms: C_19  and  O_20
REMARK   10  A    between atoms: C_33  and  C_34
REMARK                            x       y       z     vdW  Elec       q    Type
REMARK                         _______ _______ _______ _____ _____    ______ ____
ROOT
ATOM      1  C   UNL     1      -4.950   2.757 128.866  0.00  0.00    +0.000 C 
ATOM      2  C   UNL     1      -5.093   1.492 129.483  0.00  0.00    +0.000 C 
ATOM      3  C   UNL     1      -6.338   1.943 128.845  0.00  0.00    +0.000 C 
ATOM      4  C   UNL     1      -7.060   0.418 129.605  0.00  0.00    +0.000 C 
ATOM      5  C   UNL     1      -6.029   3.596 127.622  0.00  0.00    +0.000 C 
ATOM      6  C   UNL     1      -5.939   2.278 127.352  0.00  0.00    +0.000 C 
ATOM      7  C   UNL     1      -5.115   1.625 126.307  0.00  0.00    +0.000 C 
ATOM      8  C   UNL     1      -7.756   2.524 127.363  0.00  0.00    +0.000 C 
ATOM      9  C   UNL     1      -8.214   3.800 128.597  0.00  0.00    +0.000 C 
ATOM     10  C   UNL     1      -7.270   4.050 130.065  0.00  0.00    +0.000 C 
ATOM     11  F   UNL     1      -6.944   2.785 130.581  0.00  0.00    +0.000 F 
ATOM     12  C   UNL     1      -5.710   4.153 129.868  0.00  0.00    +0.000 C 
ATOM     13  C   UNL     1      -5.009   3.984 131.239  0.00  0.00    +0.000 C 
ATOM     14  C   UNL     1      -5.671   4.835 132.262  0.00  0.00    +0.000 C 
ATOM     15  C   UNL     1      -6.995   4.170 132.514  0.00  0.00    +0.000 C 
ATOM     16  C   UNL     1      -7.490   3.875 133.735  0.00  0.00    +0.000 C 
ATOM     17  C   UNL     1      -7.492   5.241 134.213  0.00  0.00    +0.000 C 
ATOM     18  O   UNL     1      -6.609   5.739 134.881  0.00  0.00    +0.000 OA
ATOM     19  C   UNL     1      -8.674   5.870 133.512  0.00  0.00    +0.000 C 
ATOM     20  C   UNL     1      -8.903   5.531 132.168  0.00  0.00    +0.000 C 
ATOM     21  C   UNL     1      -8.068   4.309 131.447  0.00  0.00    +0.000 C 
ATOM     22  C   UNL     1      -8.762   2.804 131.574  0.00  0.00    +0.000 C 
ENDROOT
BRANCH   5  23
ATOM     23  C   UNL     1      -6.447   4.137 125.881  0.00  0.00    +0.000 C 
ATOM     24  O   UNL     1      -6.842   5.294 125.646  0.00  0.00    +0.000 OA
BRANCH  23  25
ATOM     25  C   UNL     1      -6.432   3.226 124.560  0.00  0.00    +0.000 C 
ATOM     26 CL   UNL     1      -8.224   3.224 123.864  0.00  0.00    +0.000 Cl
ENDBRANCH  23  25
ENDBRANCH   5  23
BRANCH   9  27
ATOM     27  O   UNL     1      -8.337   5.041 127.881  0.00  0.00    +0.000 OA
ATOM     28  H   UNL     1      -9.068   5.572 128.236  0.00  0.00    +0.000 HD
ENDBRANCH   9  27
BRANCH   5  29
ATOM     29  O   UNL     1      -4.425   4.195 127.232  0.00  0.00    +0.000 OA
BRANCH  29  30
ATOM     30  C   UNL     1      -3.817   5.388 127.582  0.00  0.00    +0.000 C 
ATOM     31  O   UNL     1      -4.367   6.479 127.508  0.00  0.00    +0.000 OA
BRANCH  30  32
ATOM     32  C   UNL     1      -2.458   5.478 128.216  0.00  0.00    +0.000 C 
ATOM     33  C   UNL     1      -2.661   6.353 129.504  0.00  0.00    +0.000 C 
ENDBRANCH  30  32
ENDBRANCH  29  30
ENDBRANCH   5  29
TORSDOF 6
ENDMDL
MODEL 8
REMARK VINA RESULT:      -8.0      2.392      4.420
REMARK  Name = Clobetasol propionate
REMARK  10 active torsions:
REMARK  status: ('A' for Active; 'I' for Inactive)
REMARK    1  A    between atoms: C_4  and  C_5
REMARK    2  A    between atoms: C_6  and  O_7
REMARK    3  A    between atoms: C_6  and  C_12
REMARK    4  A    between atoms: O_7  and  C_8
REMARK    5  A    between atoms: C_8  and  C_10
REMARK    6  A    between atoms: C_10  and  C_11
REMARK    7  A    between atoms: C_12  and  C_14
REMARK    8  A    between atoms: C_16  and  C_17
REMARK    9  A    between atoms: C_19  and  O_20
REMARK   10  A    between atoms: C_33  and  C_34
REMARK                            x       y       z     vdW  Elec       q    Type
REMARK                         _______ _______ _______ _____ _____    ______ ____
ROOT
ATOM      1  C   UNL     1      -5.188   2.052 127.353  0.00  0.00    +0.000 C 
ATOM      2  C   UNL     1      -4.467   2.542 126.239  0.00  0.00    +0.000 C 
ATOM      3  C   UNL     1      -5.899   2.864 126.159  0.00  0.00    +0.000 C 
ATOM      4  C   UNL     1      -5.465   3.530 124.488  0.00  0.00    +0.000 C 
ATOM      5  C   UNL     1      -6.880   2.493 127.955  0.00  0.00    +0.000 C 
ATOM      6  C   UNL     1      -6.234   3.595 127.520  0.00  0.00    +0.000 C 
ATOM      7  C   UNL     1      -5.588   4.645 128.343  0.00  0.00    +0.000 C 
ATOM      8  C   UNL     1      -7.810   3.704 126.589  0.00  0.00    +0.000 C 
ATOM      9  C   UNL     1      -8.414   2.026 126.168  0.00  0.00    +0.000 C 
ATOM     10  C   UNL     1      -7.304   0.684 125.890  0.00  0.00    +0.000 C 
ATOM     11  F   UNL     1      -6.240   1.168 125.111  0.00  0.00    +0.000 F 
ATOM     12  C   UNL     1      -6.170   0.498 126.968  0.00  0.00    +0.000 C 
ATOM     13  C   UNL     1      -5.076  -0.442 126.403  0.00  0.00    +0.000 C 
ATOM     14  C   UNL     1      -5.699  -1.643 125.788  0.00  0.00    +0.000 C 
ATOM     15  C   UNL     1      -6.345  -1.136 124.529  0.00  0.00    +0.000 C 
ATOM     16  C   UNL     1      -6.195  -1.692 123.307  0.00  0.00    +0.000 C 
ATOM     17  C   UNL     1      -6.725  -2.985 123.682  0.00  0.00    +0.000 C 
ATOM     18  O   UNL     1      -6.050  -3.940 124.010  0.00  0.00    +0.000 OA
ATOM     19  C   UNL     1      -8.216  -2.756 123.768  0.00  0.00    +0.000 C 
ATOM     20  C   UNL     1      -8.669  -1.552 124.334  0.00  0.00    +0.000 C 
ATOM     21  C   UNL     1      -7.622  -0.325 124.668  0.00  0.00    +0.000 C 
ATOM     22  C   UNL     1      -7.382   0.760 123.432  0.00  0.00    +0.000 C 
ENDROOT
BRANCH   5  23
ATOM     23  C   UNL     1      -8.054   3.381 129.108  0.00  0.00    +0.000 C 
ATOM     24  O   UNL     1      -9.173   2.905 129.375  0.00  0.00    +0.000 OA
BRANCH  23  25
ATOM     25  C   UNL     1      -7.829   4.812 129.798  0.00  0.00    +0.000 C 
ATOM     26 CL   UNL     1      -9.403   5.857 129.442  0.00  0.00    +0.000 Cl
ENDBRANCH  23  25
ENDBRANCH   5  23
BRANCH   9  27
ATOM     27  O   UNL     1      -9.369   1.664 127.181  0.00  0.00    +0.000 OA
ATOM     28  H   UNL     1      -8.949   1.640 128.056  0.00  0.00    +0.000 HD
ENDBRANCH   9  27
BRANCH   5  29
ATOM     29  O   UNL     1      -6.022   2.083 129.431  0.00  0.00    +0.000 OA
BRANCH  29  30
ATOM     30  C   UNL     1      -6.381   1.221 130.452  0.00  0.00    +0.000 C 
ATOM     31  O   UNL     1      -6.785   1.593 131.546  0.00  0.00    +0.000 OA
BRANCH  30  32
ATOM     32  C   UNL     1      -6.441  -0.273 130.302  0.00  0.00    +0.000 C 
ATOM     33  C   UNL     1      -7.950  -0.597 130.012  0.00  0.00    +0.000 C 
ENDBRANCH  30  32
ENDBRANCH  29  30
ENDBRANCH   5  29
TORSDOF 6
ENDMDL
MODEL 9
REMARK VINA RESULT:      -8.0      5.317      9.927
REMARK  Name = Clobetasol propionate
REMARK  10 active torsions:
REMARK  status: ('A' for Active; 'I' for Inactive)
REMARK    1  A    between atoms: C_4  and  C_5
REMARK    2  A    between atoms: C_6  and  O_7
REMARK    3  A    between atoms: C_6  and  C_12
REMARK    4  A    between atoms: O_7  and  C_8
REMARK    5  A    between atoms: C_8  and  C_10
REMARK    6  A    between atoms: C_10  and  C_11
REMARK    7  A    between atoms: C_12  and  C_14
REMARK    8  A    between atoms: C_16  and  C_17
REMARK    9  A    between atoms: C_19  and  O_20
REMARK   10  A    between atoms: C_33  and  C_34
REMARK                            x       y       z     vdW  Elec       q    Type
REMARK                         _______ _______ _______ _____ _____    ______ ____
ROOT
ATOM      1  C   UNL     1      -2.569   4.001 131.646  0.00  0.00    +0.000 C 
ATOM      2  C   UNL     1      -2.480   3.497 132.965  0.00  0.00    +0.000 C 
ATOM      3  C   UNL     1      -3.710   4.273 132.748  0.00  0.00    +0.000 C 
ATOM      4  C   UNL     1      -3.976   4.002 134.560  0.00  0.00    +0.000 C 
ATOM      5  C   UNL     1      -4.028   4.678 130.733  0.00  0.00    +0.000 C 
ATOM      6  C   UNL     1      -4.393   3.617 131.482  0.00  0.00    +0.000 C 
ATOM      7  C   UNL     1      -4.653   2.233 131.020  0.00  0.00    +0.000 C 
ATOM      8  C   UNL     1      -5.617   4.876 132.012  0.00  0.00    +0.000 C 
ATOM      9  C   UNL     1      -4.855   6.543 132.000  0.00  0.00    +0.000 C 
ATOM     10  C   UNL     1      -3.136   6.779 132.317  0.00  0.00    +0.000 C 
ATOM     11  F   UNL     1      -2.787   5.951 133.396  0.00  0.00    +0.000 F 
ATOM     12  C   UNL     1      -2.157   5.830 131.528  0.00  0.00    +0.000 C 
ATOM     13  C   UNL     1      -0.753   5.886 132.181  0.00  0.00    +0.000 C 
ATOM     14  C   UNL     1      -0.358   7.298 132.426  0.00  0.00    +0.000 C 
ATOM     15  C   UNL     1      -1.238   7.750 133.557  0.00  0.00    +0.000 C 
ATOM     16  C   UNL     1      -0.802   8.373 134.674  0.00  0.00    +0.000 C 
ATOM     17  C   UNL     1      -0.222   9.502 133.979  0.00  0.00    +0.000 C 
ATOM     18  O   UNL     1       0.950   9.598 133.674  0.00  0.00    +0.000 OA
ATOM     19  C   UNL     1      -1.418  10.333 133.575  0.00  0.00    +0.000 C 
ATOM     20  C   UNL     1      -2.565   9.663 133.118  0.00  0.00    +0.000 C 
ATOM     21  C   UNL     1      -2.700   8.027 133.247  0.00  0.00    +0.000 C 
ATOM     22  C   UNL     1      -3.378   7.480 134.663  0.00  0.00    +0.000 C 
ENDROOT
BRANCH   5  23
ATOM     23  C   UNL     1      -5.418   4.544 129.490  0.00  0.00    +0.000 C 
ATOM     24  O   UNL     1      -5.646   5.463 128.681  0.00  0.00    +0.000 OA
BRANCH  23  25
ATOM     25  C   UNL     1      -6.481   3.349 129.358  0.00  0.00    +0.000 C 
ATOM     26 CL   UNL     1      -8.225   4.128 129.570  0.00  0.00    +0.000 Cl
ENDBRANCH  23  25
ENDBRANCH   5  23
BRANCH   9  27
ATOM     27  O   UNL     1      -5.204   7.147 130.742  0.00  0.00    +0.000 OA
ATOM     28  H   UNL     1      -4.420   7.526 130.313  0.00  0.00    +0.000 HD
ENDBRANCH   9  27
BRANCH   5  29
ATOM     29  O   UNL     1      -3.058   3.955 129.461  0.00  0.00    +0.000 OA
BRANCH  29  30
ATOM     30  C   UNL     1      -2.603   4.504 128.276  0.00  0.00    +0.000 C 
ATOM     31  O   UNL     1      -2.300   5.682 128.144  0.00  0.00    +0.000 OA
BRANCH  30  32
ATOM     32  C   UNL     1      -2.303   3.699 127.043  0.00  0.00    +0.000 C 
ATOM     33  C   UNL     1      -3.509   2.704 126.896  0.00  0.00    +0.000 C 
ENDBRANCH  30  32
ENDBRANCH  29  30
ENDBRANCH   5  29
TORSDOF 6
ENDMDL
