MODEL 1
REMARK VINA RESULT:      -7.6      0.000      0.000
REMARK  Name = Clobazam
REMARK  2 active torsions:
REMARK  status: ('A' for Active; 'I' for Inactive)
REMARK    1  A    between atoms: C_1  and  N_2
REMARK    2  A    between atoms: N_10  and  C_11
REMARK                            x       y       z     vdW  Elec       q    Type
REMARK                         _______ _______ _______ _____ _____    ______ ____
ROOT
ATOM      1  C   UNL     1      -7.220   3.274 122.724  0.00  0.00    +0.000 C 
ATOM      2  N   UNL     1      -7.225   3.277 124.172  0.00  0.00    +0.000 N 
ATOM      3  C   UNL     1      -6.029   3.047 124.874  0.00  0.00    +0.000 A 
ATOM      4  C   UNL     1      -5.756   1.803 125.495  0.00  0.00    +0.000 A 
ATOM      5  C   UNL     1      -4.618   1.746 126.317  0.00  0.00    +0.000 A 
ATOM      6  C   UNL     1      -3.802   2.881 126.496  0.00  0.00    +0.000 A 
ATOM      7 CL   UNL     1      -2.433   2.810 127.542  0.00  0.00    +0.000 Cl
ATOM      8  C   UNL     1      -4.090   4.090 125.868  0.00  0.00    +0.000 A 
ATOM      9  C   UNL     1      -5.202   4.168 125.045  0.00  0.00    +0.000 A 
ATOM     10  N   UNL     1      -6.715   0.729 125.387  0.00  0.00    +0.000 N 
ATOM     11  C   UNL     1      -7.993   0.959 125.917  0.00  0.00    +0.000 C 
ATOM     12  O   UNL     1      -8.363   0.472 126.989  0.00  0.00    +0.000 OA
ATOM     13  C   UNL     1      -8.917   1.850 125.124  0.00  0.00    +0.000 C 
ATOM     14  C   UNL     1      -8.391   3.226 124.894  0.00  0.00    +0.000 C 
ATOM     15  O   UNL     1      -8.952   4.246 125.309  0.00  0.00    +0.000 OA
ENDROOT
BRANCH  10  16
ATOM     16  C   UNL     1      -6.369  -0.528 124.741  0.00  0.00    +0.000 A 
ATOM     17  C   UNL     1      -5.775  -1.589 125.468  0.00  0.00    +0.000 A 
ATOM     18  C   UNL     1      -5.392  -2.805 124.850  0.00  0.00    +0.000 A 
ATOM     19  C   UNL     1      -5.634  -3.017 123.500  0.00  0.00    +0.000 A 
ATOM     20  C   UNL     1      -6.278  -2.019 122.780  0.00  0.00    +0.000 A 
ATOM     21  C   UNL     1      -6.610  -0.786 123.386  0.00  0.00    +0.000 A 
ENDBRANCH  10  16
TORSDOF 1
ENDMDL
MODEL 2
REMARK VINA RESULT:      -7.6      2.532      5.095
REMARK  Name = Clobazam
REMARK  2 active torsions:
REMARK  status: ('A' for Active; 'I' for Inactive)
REMARK    1  A    between atoms: C_1  and  N_2
REMARK    2  A    between atoms: N_10  and  C_11
REMARK                            x       y       z     vdW  Elec       q    Type
REMARK                         _______ _______ _______ _____ _____    ______ ____
ROOT
ATOM      1  C   UNL     1      -3.942   2.679 126.320  0.00  0.00    +0.000 C 
ATOM      2  N   UNL     1      -5.330   2.268 126.385  0.00  0.00    +0.000 N 
ATOM      3  C   UNL     1      -5.796   1.248 125.539  0.00  0.00    +0.000 A 
ATOM      4  C   UNL     1      -6.577   1.528 124.392  0.00  0.00    +0.000 A 
ATOM      5  C   UNL     1      -7.138   0.426 123.726  0.00  0.00    +0.000 A 
ATOM      6  C   UNL     1      -6.915  -0.886 124.193  0.00  0.00    +0.000 A 
ATOM      7 CL   UNL     1      -7.643  -2.228 123.392  0.00  0.00    +0.000 Cl
ATOM      8  C   UNL     1      -6.137  -1.134 125.319  0.00  0.00    +0.000 A 
ATOM      9  C   UNL     1      -5.566  -0.062 125.988  0.00  0.00    +0.000 A 
ATOM     10  N   UNL     1      -6.885   2.900 124.059  0.00  0.00    +0.000 N 
ATOM     11  C   UNL     1      -7.616   3.636 125.004  0.00  0.00    +0.000 C 
ATOM     12  O   UNL     1      -8.817   3.888 124.863  0.00  0.00    +0.000 OA
ATOM     13  C   UNL     1      -6.876   4.110 126.231  0.00  0.00    +0.000 C 
ATOM     14  C   UNL     1      -6.276   3.014 127.043  0.00  0.00    +0.000 C 
ATOM     15  O   UNL     1      -6.591   2.787 128.217  0.00  0.00    +0.000 OA
ENDROOT
BRANCH  10  16
ATOM     16  C   UNL     1      -6.441   3.491 122.807  0.00  0.00    +0.000 A 
ATOM     17  C   UNL     1      -7.246   3.435 121.642  0.00  0.00    +0.000 A 
ATOM     18  C   UNL     1      -6.814   3.967 120.401  0.00  0.00    +0.000 A 
ATOM     19  C   UNL     1      -5.588   4.610 120.298  0.00  0.00    +0.000 A 
ATOM     20  C   UNL     1      -4.811   4.737 121.442  0.00  0.00    +0.000 A 
ATOM     21  C   UNL     1      -5.219   4.160 122.665  0.00  0.00    +0.000 A 
ENDBRANCH  10  16
TORSDOF 1
ENDMDL
MODEL 3
REMARK VINA RESULT:      -7.5      3.187      3.830
REMARK  Name = Clobazam
REMARK  2 active torsions:
REMARK  status: ('A' for Active; 'I' for Inactive)
REMARK    1  A    between atoms: C_1  and  N_2
REMARK    2  A    between atoms: N_10  and  C_11
REMARK                            x       y       z     vdW  Elec       q    Type
REMARK                         _______ _______ _______ _____ _____    ______ ____
ROOT
ATOM      1  C   UNL     1      -7.409   1.448 123.208  0.00  0.00    +0.000 C 
ATOM      2  N   UNL     1      -8.412   0.736 123.972  0.00  0.00    +0.000 N 
ATOM      3  C   UNL     1      -8.113   0.291 125.271  0.00  0.00    +0.000 A 
ATOM      4  C   UNL     1      -7.828  -1.069 125.547  0.00  0.00    +0.000 A 
ATOM      5  C   UNL     1      -7.724  -1.428 126.902  0.00  0.00    +0.000 A 
ATOM      6  C   UNL     1      -7.893  -0.465 127.917  0.00  0.00    +0.000 A 
ATOM      7 CL   UNL     1      -7.804  -0.927 129.576  0.00  0.00    +0.000 Cl
ATOM      8  C   UNL     1      -8.165   0.867 127.617  0.00  0.00    +0.000 A 
ATOM      9  C   UNL     1      -8.264   1.247 126.288  0.00  0.00    +0.000 A 
ATOM     10  N   UNL     1      -7.817  -2.026 124.466  0.00  0.00    +0.000 N 
ATOM     11  C   UNL     1      -9.012  -2.197 123.752  0.00  0.00    +0.000 C 
ATOM     12  O   UNL     1      -9.744  -3.178 123.909  0.00  0.00    +0.000 OA
ATOM     13  C   UNL     1      -9.391  -1.112 122.774  0.00  0.00    +0.000 C 
ATOM     14  C   UNL     1      -9.550   0.237 123.389  0.00  0.00    +0.000 C 
ATOM     15  O   UNL     1     -10.612   0.868 123.376  0.00  0.00    +0.000 OA
ENDROOT
BRANCH  10  16
ATOM     16  C   UNL     1      -6.612  -2.767 124.128  0.00  0.00    +0.000 A 
ATOM     17  C   UNL     1      -6.521  -4.164 124.347  0.00  0.00    +0.000 A 
ATOM     18  C   UNL     1      -5.342  -4.897 124.064  0.00  0.00    +0.000 A 
ATOM     19  C   UNL     1      -4.236  -4.266 123.510  0.00  0.00    +0.000 A 
ATOM     20  C   UNL     1      -4.324  -2.911 123.222  0.00  0.00    +0.000 A 
ATOM     21  C   UNL     1      -5.481  -2.171 123.555  0.00  0.00    +0.000 A 
ENDBRANCH  10  16
TORSDOF 1
ENDMDL
MODEL 4
REMARK VINA RESULT:      -7.5      3.255      4.908
REMARK  Name = Clobazam
REMARK  2 active torsions:
REMARK  status: ('A' for Active; 'I' for Inactive)
REMARK    1  A    between atoms: C_1  and  N_2
REMARK    2  A    between atoms: N_10  and  C_11
REMARK                            x       y       z     vdW  Elec       q    Type
REMARK                         _______ _______ _______ _____ _____    ______ ____
ROOT
ATOM      1  C   UNL     1      -9.134  -0.342 123.611  0.00  0.00    +0.000 C 
ATOM      2  N   UNL     1      -7.713  -0.172 123.830  0.00  0.00    +0.000 N 
ATOM      3  C   UNL     1      -6.866  -1.294 123.816  0.00  0.00    +0.000 A 
ATOM      4  C   UNL     1      -6.354  -1.858 125.010  0.00  0.00    +0.000 A 
ATOM      5  C   UNL     1      -5.378  -2.859 124.866  0.00  0.00    +0.000 A 
ATOM      6  C   UNL     1      -4.949  -3.267 123.587  0.00  0.00    +0.000 A 
ATOM      7 CL   UNL     1      -3.721  -4.466 123.424  0.00  0.00    +0.000 Cl
ATOM      8  C   UNL     1      -5.475  -2.701 122.429  0.00  0.00    +0.000 A 
ATOM      9  C   UNL     1      -6.446  -1.718 122.546  0.00  0.00    +0.000 A 
ATOM     10  N   UNL     1      -6.728  -1.288 126.283  0.00  0.00    +0.000 N 
ATOM     11  C   UNL     1      -6.378   0.052 126.509  0.00  0.00    +0.000 C 
ATOM     12  O   UNL     1      -5.437   0.376 127.239  0.00  0.00    +0.000 OA
ATOM     13  C   UNL     1      -7.198   1.106 125.807  0.00  0.00    +0.000 C 
ATOM     14  C   UNL     1      -7.189   0.998 124.320  0.00  0.00    +0.000 C 
ATOM     15  O   UNL     1      -6.754   1.884 123.577  0.00  0.00    +0.000 OA
ENDROOT
BRANCH  10  16
ATOM     16  C   UNL     1      -7.449  -2.068 127.276  0.00  0.00    +0.000 A 
ATOM     17  C   UNL     1      -7.331  -1.788 128.660  0.00  0.00    +0.000 A 
ATOM     18  C   UNL     1      -7.991  -2.562 129.646  0.00  0.00    +0.000 A 
ATOM     19  C   UNL     1      -8.826  -3.609 129.278  0.00  0.00    +0.000 A 
ATOM     20  C   UNL     1      -9.012  -3.860 127.925  0.00  0.00    +0.000 A 
ATOM     21  C   UNL     1      -8.311  -3.122 126.945  0.00  0.00    +0.000 A 
ENDBRANCH  10  16
TORSDOF 1
ENDMDL
MODEL 5
REMARK VINA RESULT:      -7.3      2.742      5.091
REMARK  Name = Clobazam
REMARK  2 active torsions:
REMARK  status: ('A' for Active; 'I' for Inactive)
REMARK    1  A    between atoms: C_1  and  N_2
REMARK    2  A    between atoms: N_10  and  C_11
REMARK                            x       y       z     vdW  Elec       q    Type
REMARK                         _______ _______ _______ _____ _____    ______ ____
ROOT
ATOM      1  C   UNL     1      -7.960   1.603 126.979  0.00  0.00    +0.000 C 
ATOM      2  N   UNL     1      -8.449   0.715 125.943  0.00  0.00    +0.000 N 
ATOM      3  C   UNL     1      -7.545  -0.097 125.238  0.00  0.00    +0.000 A 
ATOM      4  C   UNL     1      -7.137   0.212 123.917  0.00  0.00    +0.000 A 
ATOM      5  C   UNL     1      -6.377  -0.762 123.248  0.00  0.00    +0.000 A 
ATOM      6  C   UNL     1      -6.045  -1.976 123.882  0.00  0.00    +0.000 A 
ATOM      7 CL   UNL     1      -5.148  -3.181 123.035  0.00  0.00    +0.000 Cl
ATOM      8  C   UNL     1      -6.452  -2.252 125.184  0.00  0.00    +0.000 A 
ATOM      9  C   UNL     1      -7.196  -1.302 125.867  0.00  0.00    +0.000 A 
ATOM     10  N   UNL     1      -7.639   1.407 123.280  0.00  0.00    +0.000 N 
ATOM     11  C   UNL     1      -9.028   1.502 123.106  0.00  0.00    +0.000 C 
ATOM     12  O   UNL     1      -9.572   1.327 122.011  0.00  0.00    +0.000 OA
ATOM     13  C   UNL     1      -9.856   1.818 124.327  0.00  0.00    +0.000 C 
ATOM     14  C   UNL     1      -9.717   0.826 125.432  0.00  0.00    +0.000 C 
ATOM     15  O   UNL     1     -10.661   0.156 125.866  0.00  0.00    +0.000 OA
ENDROOT
BRANCH  10  16
ATOM     16  C   UNL     1      -6.741   2.469 122.854  0.00  0.00    +0.000 A 
ATOM     17  C   UNL     1      -6.338   2.593 121.501  0.00  0.00    +0.000 A 
ATOM     18  C   UNL     1      -5.431   3.593 121.073  0.00  0.00    +0.000 A 
ATOM     19  C   UNL     1      -4.936   4.528 121.973  0.00  0.00    +0.000 A 
ATOM     20  C   UNL     1      -5.369   4.469 123.291  0.00  0.00    +0.000 A 
ATOM     21  C   UNL     1      -6.231   3.438 123.727  0.00  0.00    +0.000 A 
ENDBRANCH  10  16
TORSDOF 1
ENDMDL
MODEL 6
REMARK VINA RESULT:      -7.1      7.209      9.226
REMARK  Name = Clobazam
REMARK  2 active torsions:
REMARK  status: ('A' for Active; 'I' for Inactive)
REMARK    1  A    between atoms: C_1  and  N_2
REMARK    2  A    between atoms: N_10  and  C_11
REMARK                            x       y       z     vdW  Elec       q    Type
REMARK                         _______ _______ _______ _____ _____    ______ ____
ROOT
ATOM      1  C   UNL     1      -9.030   4.223 134.299  0.00  0.00    +0.000 C 
ATOM      2  N   UNL     1      -8.278   3.974 133.086  0.00  0.00    +0.000 N 
ATOM      3  C   UNL     1      -7.563   5.021 132.481  0.00  0.00    +0.000 A 
ATOM      4  C   UNL     1      -8.036   5.674 131.317  0.00  0.00    +0.000 A 
ATOM      5  C   UNL     1      -7.156   6.577 130.699  0.00  0.00    +0.000 A 
ATOM      6  C   UNL     1      -5.872   6.810 131.232  0.00  0.00    +0.000 A 
ATOM      7 CL   UNL     1      -4.785   7.890 130.441  0.00  0.00    +0.000 Cl
ATOM      8  C   UNL     1      -5.434   6.161 132.383  0.00  0.00    +0.000 A 
ATOM      9  C   UNL     1      -6.289   5.271 133.015  0.00  0.00    +0.000 A 
ATOM     10  N   UNL     1      -9.301   5.276 130.744  0.00  0.00    +0.000 N 
ATOM     11  C   UNL     1      -9.414   3.947 130.308  0.00  0.00    +0.000 C 
ATOM     12  O   UNL     1      -9.377   3.636 129.115  0.00  0.00    +0.000 OA
ATOM     13  C   UNL     1      -9.572   2.886 131.369  0.00  0.00    +0.000 C 
ATOM     14  C   UNL     1      -8.450   2.829 132.349  0.00  0.00    +0.000 C 
ATOM     15  O   UNL     1      -7.729   1.837 132.500  0.00  0.00    +0.000 OA
ENDROOT
BRANCH  10  16
ATOM     16  C   UNL     1     -10.409   6.212 130.640  0.00  0.00    +0.000 A 
ATOM     17  C   UNL     1     -10.524   7.097 129.540  0.00  0.00    +0.000 A 
ATOM     18  C   UNL     1     -11.572   8.045 129.440  0.00  0.00    +0.000 A 
ATOM     19  C   UNL     1     -12.562   8.106 130.411  0.00  0.00    +0.000 A 
ATOM     20  C   UNL     1     -12.510   7.202 131.465  0.00  0.00    +0.000 A 
ATOM     21  C   UNL     1     -11.435   6.294 131.590  0.00  0.00    +0.000 A 
ENDBRANCH  10  16
TORSDOF 1
ENDMDL
MODEL 7
REMARK VINA RESULT:      -6.8      2.449      3.014
REMARK  Name = Clobazam
REMARK  2 active torsions:
REMARK  status: ('A' for Active; 'I' for Inactive)
REMARK    1  A    between atoms: C_1  and  N_2
REMARK    2  A    between atoms: N_10  and  C_11
REMARK                            x       y       z     vdW  Elec       q    Type
REMARK                         _______ _______ _______ _____ _____    ______ ____
ROOT
ATOM      1  C   UNL     1      -5.823   3.050 125.138  0.00  0.00    +0.000 C 
ATOM      2  N   UNL     1      -7.115   2.890 125.772  0.00  0.00    +0.000 N 
ATOM      3  C   UNL     1      -7.230   2.103 126.931  0.00  0.00    +0.000 A 
ATOM      4  C   UNL     1      -7.777   0.797 126.895  0.00  0.00    +0.000 A 
ATOM      5  C   UNL     1      -8.010   0.177 128.135  0.00  0.00    +0.000 A 
ATOM      6  C   UNL     1      -7.702   0.841 129.340  0.00  0.00    +0.000 A 
ATOM      7 CL   UNL     1      -8.032   0.086 130.855  0.00  0.00    +0.000 Cl
ATOM      8  C   UNL     1      -7.158   2.122 129.346  0.00  0.00    +0.000 A 
ATOM      9  C   UNL     1      -6.911   2.750 128.135  0.00  0.00    +0.000 A 
ATOM     10  N   UNL     1      -8.206   0.240 125.634  0.00  0.00    +0.000 N 
ATOM     11  C   UNL     1      -9.225   0.920 124.950  0.00  0.00    +0.000 C 
ATOM     12  O   UNL     1     -10.390   0.513 124.922  0.00  0.00    +0.000 OA
ATOM     13  C   UNL     1      -8.847   2.200 124.245  0.00  0.00    +0.000 C 
ATOM     14  C   UNL     1      -8.281   3.247 125.142  0.00  0.00    +0.000 C 
ATOM     15  O   UNL     1      -8.805   4.353 125.311  0.00  0.00    +0.000 OA
ENDROOT
BRANCH  10  16
ATOM     16  C   UNL     1      -7.594  -0.964 125.093  0.00  0.00    +0.000 A 
ATOM     17  C   UNL     1      -8.255  -2.215 125.154  0.00  0.00    +0.000 A 
ATOM     18  C   UNL     1      -7.658  -3.407 124.672  0.00  0.00    +0.000 A 
ATOM     19  C   UNL     1      -6.406  -3.377 124.074  0.00  0.00    +0.000 A 
ATOM     20  C   UNL     1      -5.767  -2.151 123.941  0.00  0.00    +0.000 A 
ATOM     21  C   UNL     1      -6.340  -0.972 124.470  0.00  0.00    +0.000 A 
ENDBRANCH  10  16
TORSDOF 1
ENDMDL
MODEL 8
REMARK VINA RESULT:      -6.8      3.462      4.740
REMARK  Name = Clobazam
REMARK  2 active torsions:
REMARK  status: ('A' for Active; 'I' for Inactive)
REMARK    1  A    between atoms: C_1  and  N_2
REMARK    2  A    between atoms: N_10  and  C_11
REMARK                            x       y       z     vdW  Elec       q    Type
REMARK                         _______ _______ _______ _____ _____    ______ ____
ROOT
ATOM      1  C   UNL     1      -7.436   2.704 127.801  0.00  0.00    +0.000 C 
ATOM      2  N   UNL     1      -6.970   2.241 126.510  0.00  0.00    +0.000 N 
ATOM      3  C   UNL     1      -7.883   1.681 125.600  0.00  0.00    +0.000 A 
ATOM      4  C   UNL     1      -7.957   0.284 125.382  0.00  0.00    +0.000 A 
ATOM      5  C   UNL     1      -8.774  -0.147 124.323  0.00  0.00    +0.000 A 
ATOM      6  C   UNL     1      -9.479   0.785 123.534  0.00  0.00    +0.000 A 
ATOM      7 CL   UNL     1     -10.445   0.247 122.211  0.00  0.00    +0.000 Cl
ATOM      8  C   UNL     1      -9.394   2.153 123.775  0.00  0.00    +0.000 A 
ATOM      9  C   UNL     1      -8.601   2.601 124.820  0.00  0.00    +0.000 A 
ATOM     10  N   UNL     1      -7.093  -0.599 126.131  0.00  0.00    +0.000 N 
ATOM     11  C   UNL     1      -5.710  -0.428 125.968  0.00  0.00    +0.000 C 
ATOM     12  O   UNL     1      -5.023  -1.196 125.288  0.00  0.00    +0.000 OA
ATOM     13  C   UNL     1      -5.078   0.757 126.655  0.00  0.00    +0.000 C 
ATOM     14  C   UNL     1      -5.636   2.075 126.238  0.00  0.00    +0.000 C 
ATOM     15  O   UNL     1      -4.962   2.957 125.694  0.00  0.00    +0.000 OA
ENDROOT
BRANCH  10  16
ATOM     16  C   UNL     1      -7.639  -1.609 127.024  0.00  0.00    +0.000 A 
ATOM     17  C   UNL     1      -7.553  -1.469 128.432  0.00  0.00    +0.000 A 
ATOM     18  C   UNL     1      -8.040  -2.461 129.319  0.00  0.00    +0.000 A 
ATOM     19  C   UNL     1      -8.668  -3.597 128.830  0.00  0.00    +0.000 A 
ATOM     20  C   UNL     1      -8.826  -3.725 127.456  0.00  0.00    +0.000 A 
ATOM     21  C   UNL     1      -8.292  -2.762 126.571  0.00  0.00    +0.000 A 
ENDBRANCH  10  16
TORSDOF 1
ENDMDL
MODEL 9
REMARK VINA RESULT:      -6.7      2.980      4.266
REMARK  Name = Clobazam
REMARK  2 active torsions:
REMARK  status: ('A' for Active; 'I' for Inactive)
REMARK    1  A    between atoms: C_1  and  N_2
REMARK    2  A    between atoms: N_10  and  C_11
REMARK                            x       y       z     vdW  Elec       q    Type
REMARK                         _______ _______ _______ _____ _____    ______ ____
ROOT
ATOM      1  C   UNL     1      -6.012   1.966 127.209  0.00  0.00    +0.000 C 
ATOM      2  N   UNL     1      -7.110   1.137 127.663  0.00  0.00    +0.000 N 
ATOM      3  C   UNL     1      -6.849  -0.139 128.190  0.00  0.00    +0.000 A 
ATOM      4  C   UNL     1      -7.082  -1.319 127.441  0.00  0.00    +0.000 A 
ATOM      5  C   UNL     1      -6.958  -2.537 128.129  0.00  0.00    +0.000 A 
ATOM      6  C   UNL     1      -6.613  -2.560 129.495  0.00  0.00    +0.000 A 
ATOM      7 CL   UNL     1      -6.505  -4.060 130.339  0.00  0.00    +0.000 Cl
ATOM      8  C   UNL     1      -6.381  -1.386 130.206  0.00  0.00    +0.000 A 
ATOM      9  C   UNL     1      -6.489  -0.172 129.546  0.00  0.00    +0.000 A 
ATOM     10  N   UNL     1      -7.578  -1.215 126.089  0.00  0.00    +0.000 N 
ATOM     11  C   UNL     1      -8.824  -0.595 125.911  0.00  0.00    +0.000 C 
ATOM     12  O   UNL     1      -9.854  -1.234 125.676  0.00  0.00    +0.000 OA
ATOM     13  C   UNL     1      -8.869   0.908 126.033  0.00  0.00    +0.000 C 
ATOM     14  C   UNL     1      -8.415   1.428 127.354  0.00  0.00    +0.000 C 
ATOM     15  O   UNL     1      -9.141   2.076 128.116  0.00  0.00    +0.000 OA
ENDROOT
BRANCH  10  16
ATOM     16  C   UNL     1      -6.807  -1.718 124.962  0.00  0.00    +0.000 A 
ATOM     17  C   UNL     1      -7.082  -1.299 123.637  0.00  0.00    +0.000 A 
ATOM     18  C   UNL     1      -6.372  -1.809 122.522  0.00  0.00    +0.000 A 
ATOM     19  C   UNL     1      -5.335  -2.715 122.701  0.00  0.00    +0.000 A 
ATOM     20  C   UNL     1      -5.001  -3.089 123.996  0.00  0.00    +0.000 A 
ATOM     21  C   UNL     1      -5.745  -2.621 125.102  0.00  0.00    +0.000 A 
ENDBRANCH  10  16
TORSDOF 1
ENDMDL
