MODEL 1
REMARK VINA RESULT:      -8.7      0.000      0.000
REMARK  Name = Clobetasol
REMARK  7 active torsions:
REMARK  status: ('A' for Active; 'I' for Inactive)
REMARK    1  A    between atoms: C_4  and  C_5
REMARK    2  A    between atoms: C_6  and  O_7
REMARK    3  A    between atoms: C_6  and  C_8
REMARK    4  A    between atoms: C_8  and  C_10
REMARK    5  A    between atoms: C_12  and  C_13
REMARK    6  A    between atoms: C_15  and  O_16
REMARK    7  A    between atoms: C_29  and  C_30
REMARK                            x       y       z     vdW  Elec       q    Type
REMARK                         _______ _______ _______ _____ _____    ______ ____
ROOT
ATOM      1  C   UNL     1      -6.866  -3.493 130.695  0.00  0.00    +0.000 C 
ATOM      2  C   UNL     1      -5.789  -4.220 130.136  0.00  0.00    +0.000 C 
ATOM      3  C   UNL     1      -5.449  -2.772 130.107  0.00  0.00    +0.000 C 
ATOM      4  C   UNL     1      -3.927  -3.287 129.188  0.00  0.00    +0.000 C 
ATOM      5  C   UNL     1      -6.737  -1.621 131.264  0.00  0.00    +0.000 C 
ATOM      6  C   UNL     1      -5.657  -2.344 131.603  0.00  0.00    +0.000 C 
ATOM      7  C   UNL     1      -5.254  -2.858 132.930  0.00  0.00    +0.000 C 
ATOM      8  C   UNL     1      -5.009  -0.818 130.759  0.00  0.00    +0.000 C 
ATOM      9  C   UNL     1      -6.149  -0.340 129.389  0.00  0.00    +0.000 C 
ATOM     10  C   UNL     1      -7.111  -1.553 128.520  0.00  0.00    +0.000 C 
ATOM     11  F   UNL     1      -6.253  -2.648 128.254  0.00  0.00    +0.000 F 
ATOM     12  C   UNL     1      -7.913  -2.655 129.430  0.00  0.00    +0.000 C 
ATOM     13  C   UNL     1      -8.290  -3.817 128.487  0.00  0.00    +0.000 C 
ATOM     14  C   UNL     1      -8.868  -3.298 127.210  0.00  0.00    +0.000 C 
ATOM     15  C   UNL     1      -7.730  -2.704 126.415  0.00  0.00    +0.000 C 
ATOM     16  C   UNL     1      -7.509  -2.934 125.102  0.00  0.00    +0.000 C 
ATOM     17  C   UNL     1      -8.803  -2.435 124.676  0.00  0.00    +0.000 C 
ATOM     18  O   UNL     1      -9.762  -3.130 124.412  0.00  0.00    +0.000 OA
ATOM     19  C   UNL     1      -8.703  -0.938 124.744  0.00  0.00    +0.000 C 
ATOM     20  C   UNL     1      -7.964  -0.417 125.824  0.00  0.00    +0.000 C 
ATOM     21  C   UNL     1      -7.158  -1.379 126.887  0.00  0.00    +0.000 C 
ATOM     22  C   UNL     1      -5.557  -1.642 126.545  0.00  0.00    +0.000 C 
ENDROOT
BRANCH   5  23
ATOM     23  O   UNL     1      -7.887  -2.265 132.085  0.00  0.00    +0.000 OA
ATOM     24  H   UNL     1      -8.054  -3.207 131.970  0.00  0.00    +0.000 HD
ENDBRANCH   5  23
BRANCH   5  25
ATOM     25  C   UNL     1      -6.668  -0.345 132.619  0.00  0.00    +0.000 C 
ATOM     26  O   UNL     1      -7.678   0.280 132.972  0.00  0.00    +0.000 OA
BRANCH  25  27
ATOM     27  C   UNL     1      -5.324   0.143 133.372  0.00  0.00    +0.000 C 
ATOM     28 CL   UNL     1      -5.638   0.022 135.213  0.00  0.00    +0.000 Cl
ENDBRANCH  25  27
ENDBRANCH   5  25
BRANCH   9  29
ATOM     29  O   UNL     1      -7.036   0.668 129.911  0.00  0.00    +0.000 OA
ATOM     30  H   UNL     1      -7.941   0.507 129.605  0.00  0.00    +0.000 HD
ENDBRANCH   9  29
TORSDOF 4
ENDMDL
MODEL 2
REMARK VINA RESULT:      -8.6      3.289      6.606
REMARK  Name = Clobetasol
REMARK  7 active torsions:
REMARK  status: ('A' for Active; 'I' for Inactive)
REMARK    1  A    between atoms: C_4  and  C_5
REMARK    2  A    between atoms: C_6  and  O_7
REMARK    3  A    between atoms: C_6  and  C_8
REMARK    4  A    between atoms: C_8  and  C_10
REMARK    5  A    between atoms: C_12  and  C_13
REMARK    6  A    between atoms: C_15  and  O_16
REMARK    7  A    between atoms: C_29  and  C_30
REMARK                            x       y       z     vdW  Elec       q    Type
REMARK                         _______ _______ _______ _____ _____    ______ ____
ROOT
ATOM      1  C   UNL     1      -5.654  -1.559 125.208  0.00  0.00    +0.000 C 
ATOM      2  C   UNL     1      -5.940  -2.900 124.860  0.00  0.00    +0.000 C 
ATOM      3  C   UNL     1      -7.223  -2.199 125.136  0.00  0.00    +0.000 C 
ATOM      4  C   UNL     1      -8.020  -3.852 124.900  0.00  0.00    +0.000 C 
ATOM      5  C   UNL     1      -7.000  -0.134 125.250  0.00  0.00    +0.000 C 
ATOM      6  C   UNL     1      -7.136  -0.948 124.191  0.00  0.00    +0.000 C 
ATOM      7  C   UNL     1      -6.803  -0.701 122.771  0.00  0.00    +0.000 C 
ATOM      8  C   UNL     1      -8.821  -0.836 124.972  0.00  0.00    +0.000 C 
ATOM      9  C   UNL     1      -8.645  -0.747 126.807  0.00  0.00    +0.000 C 
ATOM     10  C   UNL     1      -7.274  -1.504 127.642  0.00  0.00    +0.000 C 
ATOM     11  F   UNL     1      -7.096  -2.787 127.069  0.00  0.00    +0.000 F 
ATOM     12  C   UNL     1      -5.783  -1.234 127.018  0.00  0.00    +0.000 C 
ATOM     13  C   UNL     1      -4.851  -2.308 127.617  0.00  0.00    +0.000 C 
ATOM     14  C   UNL     1      -5.063  -2.432 129.091  0.00  0.00    +0.000 C 
ATOM     15  C   UNL     1      -6.389  -3.125 129.294  0.00  0.00    +0.000 C 
ATOM     16  C   UNL     1      -6.596  -4.153 130.146  0.00  0.00    +0.000 C 
ATOM     17  C   UNL     1      -6.169  -3.417 131.323  0.00  0.00    +0.000 C 
ATOM     18  O   UNL     1      -5.072  -3.500 131.834  0.00  0.00    +0.000 OA
ATOM     19  C   UNL     1      -7.311  -2.502 131.664  0.00  0.00    +0.000 C 
ATOM     20  C   UNL     1      -7.995  -1.934 130.572  0.00  0.00    +0.000 C 
ATOM     21  C   UNL     1      -7.650  -2.328 129.013  0.00  0.00    +0.000 C 
ATOM     22  C   UNL     1      -8.584  -3.528 128.353  0.00  0.00    +0.000 C 
ENDROOT
BRANCH   5  23
ATOM     23  O   UNL     1      -5.625   0.550 125.019  0.00  0.00    +0.000 OA
ATOM     24  H   UNL     1      -5.503   1.060 124.210  0.00  0.00    +0.000 HD
ENDBRANCH   5  23
BRANCH   5  25
ATOM     25  C   UNL     1      -7.738   1.413 124.523  0.00  0.00    +0.000 C 
ATOM     26  O   UNL     1      -7.455   2.536 124.966  0.00  0.00    +0.000 OA
BRANCH  25  27
ATOM     27  C   UNL     1      -8.861   1.453 123.361  0.00  0.00    +0.000 C 
ATOM     28 CL   UNL     1      -8.578   3.010 122.362  0.00  0.00    +0.000 Cl
ENDBRANCH  25  27
ENDBRANCH   5  25
BRANCH   9  29
ATOM     29  O   UNL     1      -8.696   0.647 127.167  0.00  0.00    +0.000 OA
ATOM     30  H   UNL     1      -9.195   1.145 126.502  0.00  0.00    +0.000 HD
ENDBRANCH   9  29
TORSDOF 4
ENDMDL
MODEL 3
REMARK VINA RESULT:      -8.4      3.683      5.178
REMARK  Name = Clobetasol
REMARK  7 active torsions:
REMARK  status: ('A' for Active; 'I' for Inactive)
REMARK    1  A    between atoms: C_4  and  C_5
REMARK    2  A    between atoms: C_6  and  O_7
REMARK    3  A    between atoms: C_6  and  C_8
REMARK    4  A    between atoms: C_8  and  C_10
REMARK    5  A    between atoms: C_12  and  C_13
REMARK    6  A    between atoms: C_15  and  O_16
REMARK    7  A    between atoms: C_29  and  C_30
REMARK                            x       y       z     vdW  Elec       q    Type
REMARK                         _______ _______ _______ _____ _____    ______ ____
ROOT
ATOM      1  C   UNL     1      -8.093   2.412 127.447  0.00  0.00    +0.000 C 
ATOM      2  C   UNL     1      -8.719   1.844 128.581  0.00  0.00    +0.000 C 
ATOM      3  C   UNL     1      -7.289   1.431 128.572  0.00  0.00    +0.000 C 
ATOM      4  C   UNL     1      -7.721   0.390 130.040  0.00  0.00    +0.000 C 
ATOM      5  C   UNL     1      -6.149   2.516 127.213  0.00  0.00    +0.000 C 
ATOM      6  C   UNL     1      -6.539   2.807 128.465  0.00  0.00    +0.000 C 
ATOM      7  C   UNL     1      -6.608   4.119 129.144  0.00  0.00    +0.000 C 
ATOM      8  C   UNL     1      -5.186   1.541 128.629  0.00  0.00    +0.000 C 
ATOM      9  C   UNL     1      -5.305   0.328 127.244  0.00  0.00    +0.000 C 
ATOM     10  C   UNL     1      -6.861  -0.059 126.484  0.00  0.00    +0.000 C 
ATOM     11  F   UNL     1      -7.802  -0.226 127.529  0.00  0.00    +0.000 F 
ATOM     12  C   UNL     1      -7.826   1.203 126.082  0.00  0.00    +0.000 C 
ATOM     13  C   UNL     1      -9.241   0.628 125.864  0.00  0.00    +0.000 C 
ATOM     14  C   UNL     1      -9.188  -0.606 125.022  0.00  0.00    +0.000 C 
ATOM     15  C   UNL     1      -8.611  -1.707 125.881  0.00  0.00    +0.000 C 
ATOM     16  C   UNL     1      -9.124  -2.953 125.978  0.00  0.00    +0.000 C 
ATOM     17  C   UNL     1      -9.010  -3.238 124.560  0.00  0.00    +0.000 C 
ATOM     18  O   UNL     1      -9.919  -3.163 123.761  0.00  0.00    +0.000 OA
ATOM     19  C   UNL     1      -7.555  -3.525 124.320  0.00  0.00    +0.000 C 
ATOM     20  C   UNL     1      -6.642  -2.741 125.052  0.00  0.00    +0.000 C 
ATOM     21  C   UNL     1      -7.125  -1.654 126.188  0.00  0.00    +0.000 C 
ATOM     22  C   UNL     1      -7.155  -2.212 127.748  0.00  0.00    +0.000 C 
ENDROOT
BRANCH   5  23
ATOM     23  O   UNL     1      -6.769   3.655 126.358  0.00  0.00    +0.000 OA
ATOM     24  H   UNL     1      -6.437   4.551 126.486  0.00  0.00    +0.000 HD
ENDBRANCH   5  23
BRANCH   5  25
ATOM     25  C   UNL     1      -4.580   3.517 127.160  0.00  0.00    +0.000 C 
ATOM     26  O   UNL     1      -4.398   4.392 126.301  0.00  0.00    +0.000 OA
BRANCH  25  27
ATOM     27  C   UNL     1      -3.297   3.290 128.116  0.00  0.00    +0.000 C 
ATOM     28 CL   UNL     1      -1.809   3.042 127.009  0.00  0.00    +0.000 Cl
ENDBRANCH  25  27
ENDBRANCH   5  25
BRANCH   9  29
ATOM     29  O   UNL     1      -4.386   0.764 126.223  0.00  0.00    +0.000 OA
ATOM     30  H   UNL     1      -4.165   0.025 125.636  0.00  0.00    +0.000 HD
ENDBRANCH   9  29
TORSDOF 4
ENDMDL
MODEL 4
REMARK VINA RESULT:      -8.3      6.640      9.304
REMARK  Name = Clobetasol
REMARK  7 active torsions:
REMARK  status: ('A' for Active; 'I' for Inactive)
REMARK    1  A    between atoms: C_4  and  C_5
REMARK    2  A    between atoms: C_6  and  O_7
REMARK    3  A    between atoms: C_6  and  C_8
REMARK    4  A    between atoms: C_8  and  C_10
REMARK    5  A    between atoms: C_12  and  C_13
REMARK    6  A    between atoms: C_15  and  O_16
REMARK    7  A    between atoms: C_29  and  C_30
REMARK                            x       y       z     vdW  Elec       q    Type
REMARK                         _______ _______ _______ _____ _____    ______ ____
ROOT
ATOM      1  C   UNL     1      -8.215   3.207 130.735  0.00  0.00    +0.000 C 
ATOM      2  C   UNL     1      -8.480   2.641 132.005  0.00  0.00    +0.000 C 
ATOM      3  C   UNL     1      -8.738   4.104 132.076  0.00  0.00    +0.000 C 
ATOM      4  C   UNL     1      -9.034   3.826 133.882  0.00  0.00    +0.000 C 
ATOM      5  C   UNL     1      -8.797   5.001 130.201  0.00  0.00    +0.000 C 
ATOM      6  C   UNL     1      -9.738   4.331 130.887  0.00  0.00    +0.000 C 
ATOM      7  C   UNL     1     -10.980   3.696 130.397  0.00  0.00    +0.000 C 
ATOM      8  C   UNL     1      -9.590   5.995 131.707  0.00  0.00    +0.000 C 
ATOM      9  C   UNL     1      -7.828   6.540 131.681  0.00  0.00    +0.000 C 
ATOM     10  C   UNL     1      -6.496   5.368 131.697  0.00  0.00    +0.000 C 
ATOM     11  F   UNL     1      -6.821   4.385 132.664  0.00  0.00    +0.000 F 
ATOM     12  C   UNL     1      -6.607   4.104 130.661  0.00  0.00    +0.000 C 
ATOM     13  C   UNL     1      -5.606   3.037 131.154  0.00  0.00    +0.000 C 
ATOM     14  C   UNL     1      -4.287   3.658 131.481  0.00  0.00    +0.000 C 
ATOM     15  C   UNL     1      -4.465   4.432 132.765  0.00  0.00    +0.000 C 
ATOM     16  C   UNL     1      -3.618   4.380 133.816  0.00  0.00    +0.000 C 
ATOM     17  C   UNL     1      -2.461   4.821 133.058  0.00  0.00    +0.000 C 
ATOM     18  O   UNL     1      -1.604   4.089 132.611  0.00  0.00    +0.000 OA
ATOM     19  C   UNL     1      -2.636   6.302 132.880  0.00  0.00    +0.000 C 
ATOM     20  C   UNL     1      -3.953   6.747 132.657  0.00  0.00    +0.000 C 
ATOM     21  C   UNL     1      -5.246   5.732 132.700  0.00  0.00    +0.000 C 
ATOM     22  C   UNL     1      -6.037   5.641 134.154  0.00  0.00    +0.000 C 
ENDROOT
BRANCH   5  23
ATOM     23  O   UNL     1      -8.629   4.173 128.898  0.00  0.00    +0.000 OA
ATOM     24  H   UNL     1      -7.785   3.731 128.747  0.00  0.00    +0.000 HD
ENDBRANCH   5  23
BRANCH   5  25
ATOM     25  C   UNL     1      -9.907   6.106 129.193  0.00  0.00    +0.000 C 
ATOM     26  O   UNL     1      -9.736   6.259 127.975  0.00  0.00    +0.000 OA
BRANCH  25  27
ATOM     27  C   UNL     1     -11.092   7.030 129.788  0.00  0.00    +0.000 C 
ATOM     28 CL   UNL     1     -12.679   6.524 128.936  0.00  0.00    +0.000 Cl
ENDBRANCH  25  27
ENDBRANCH   5  25
BRANCH   9  29
ATOM     29  O   UNL     1      -7.672   7.405 130.539  0.00  0.00    +0.000 OA
ATOM     30  H   UNL     1      -8.493   7.429 130.024  0.00  0.00    +0.000 HD
ENDBRANCH   9  29
TORSDOF 4
ENDMDL
MODEL 5
REMARK VINA RESULT:      -8.1      2.359      3.666
REMARK  Name = Clobetasol
REMARK  7 active torsions:
REMARK  status: ('A' for Active; 'I' for Inactive)
REMARK    1  A    between atoms: C_4  and  C_5
REMARK    2  A    between atoms: C_6  and  O_7
REMARK    3  A    between atoms: C_6  and  C_8
REMARK    4  A    between atoms: C_8  and  C_10
REMARK    5  A    between atoms: C_12  and  C_13
REMARK    6  A    between atoms: C_15  and  O_16
REMARK    7  A    between atoms: C_29  and  C_30
REMARK                            x       y       z     vdW  Elec       q    Type
REMARK                         _______ _______ _______ _____ _____    ______ ____
ROOT
ATOM      1  C   UNL     1      -5.127  -1.202 128.221  0.00  0.00    +0.000 C 
ATOM      2  C   UNL     1      -5.535   0.151 128.156  0.00  0.00    +0.000 C 
ATOM      3  C   UNL     1      -6.652  -0.654 128.720  0.00  0.00    +0.000 C 
ATOM      4  C   UNL     1      -7.630   0.917 128.668  0.00  0.00    +0.000 C 
ATOM      5  C   UNL     1      -6.064  -2.573 129.264  0.00  0.00    +0.000 C 
ATOM      6  C   UNL     1      -5.961  -1.402 129.915  0.00  0.00    +0.000 C 
ATOM      7  C   UNL     1      -5.080  -1.033 131.043  0.00  0.00    +0.000 C 
ATOM      8  C   UNL     1      -7.753  -1.893 130.019  0.00  0.00    +0.000 C 
ATOM      9  C   UNL     1      -8.258  -2.719 128.449  0.00  0.00    +0.000 C 
ATOM     10  C   UNL     1      -7.487  -2.316 126.902  0.00  0.00    +0.000 C 
ATOM     11  F   UNL     1      -7.380  -0.905 126.848  0.00  0.00    +0.000 F 
ATOM     12  C   UNL     1      -5.850  -2.244 126.884  0.00  0.00    +0.000 C 
ATOM     13  C   UNL     1      -5.454  -1.473 125.608  0.00  0.00    +0.000 C 
ATOM     14  C   UNL     1      -6.221  -1.973 124.426  0.00  0.00    +0.000 C 
ATOM     15  C   UNL     1      -7.640  -1.478 124.575  0.00  0.00    +0.000 C 
ATOM     16  C   UNL     1      -8.358  -0.900 123.587  0.00  0.00    +0.000 C 
ATOM     17  C   UNL     1      -8.257  -2.035 122.688  0.00  0.00    +0.000 C 
ATOM     18  O   UNL     1      -7.473  -2.124 121.767  0.00  0.00    +0.000 OA
ATOM     19  C   UNL     1      -9.226  -3.055 123.214  0.00  0.00    +0.000 C 
ATOM     20  C   UNL     1      -9.321  -3.154 124.616  0.00  0.00    +0.000 C 
ATOM     21  C   UNL     1      -8.510  -2.142 125.628  0.00  0.00    +0.000 C 
ATOM     22  C   UNL     1      -9.359  -0.816 126.147  0.00  0.00    +0.000 C 
ENDROOT
BRANCH   5  23
ATOM     23  O   UNL     1      -4.592  -3.045 129.115  0.00  0.00    +0.000 OA
ATOM     24  H   UNL     1      -4.320  -3.426 128.272  0.00  0.00    +0.000 HD
ENDBRANCH   5  23
BRANCH   5  25
ATOM     25  C   UNL     1      -6.138  -3.715 130.732  0.00  0.00    +0.000 C 
ATOM     26  O   UNL     1      -5.811  -4.907 130.643  0.00  0.00    +0.000 OA
BRANCH  25  27
ATOM     27  C   UNL     1      -6.715  -3.322 132.190  0.00  0.00    +0.000 C 
ATOM     28 CL   UNL     1      -6.068  -4.587 133.408  0.00  0.00    +0.000 Cl
ENDBRANCH  25  27
ENDBRANCH   5  25
BRANCH   9  29
ATOM     29  O   UNL     1      -8.149  -4.139 128.666  0.00  0.00    +0.000 OA
ATOM     30  H   UNL     1      -9.028  -4.547 128.650  0.00  0.00    +0.000 HD
ENDBRANCH   9  29
TORSDOF 4
ENDMDL
MODEL 6
REMARK VINA RESULT:      -8.0      6.695      8.620
REMARK  Name = Clobetasol
REMARK  7 active torsions:
REMARK  status: ('A' for Active; 'I' for Inactive)
REMARK    1  A    between atoms: C_4  and  C_5
REMARK    2  A    between atoms: C_6  and  O_7
REMARK    3  A    between atoms: C_6  and  C_8
REMARK    4  A    between atoms: C_8  and  C_10
REMARK    5  A    between atoms: C_12  and  C_13
REMARK    6  A    between atoms: C_15  and  O_16
REMARK    7  A    between atoms: C_29  and  C_30
REMARK                            x       y       z     vdW  Elec       q    Type
REMARK                         _______ _______ _______ _____ _____    ______ ____
ROOT
ATOM      1  C   UNL     1      -6.336   4.484 133.341  0.00  0.00    +0.000 C 
ATOM      2  C   UNL     1      -6.701   3.200 132.872  0.00  0.00    +0.000 C 
ATOM      3  C   UNL     1      -6.096   3.961 131.746  0.00  0.00    +0.000 C 
ATOM      4  C   UNL     1      -6.543   2.501 130.699  0.00  0.00    +0.000 C 
ATOM      5  C   UNL     1      -5.136   5.695 132.373  0.00  0.00    +0.000 C 
ATOM      6  C   UNL     1      -4.720   4.419 132.346  0.00  0.00    +0.000 C 
ATOM      7  C   UNL     1      -3.609   3.781 133.086  0.00  0.00    +0.000 C 
ATOM      8  C   UNL     1      -4.686   5.007 130.582  0.00  0.00    +0.000 C 
ATOM      9  C   UNL     1      -6.105   6.149 130.286  0.00  0.00    +0.000 C 
ATOM     10  C   UNL     1      -7.623   5.992 131.192  0.00  0.00    +0.000 C 
ATOM     11  F   UNL     1      -7.942   4.612 131.230  0.00  0.00    +0.000 F 
ATOM     12  C   UNL     1      -7.504   5.809 132.815  0.00  0.00    +0.000 C 
ATOM     13  C   UNL     1      -8.865   5.267 133.302  0.00  0.00    +0.000 C 
ATOM     14  C   UNL     1      -9.991   6.034 132.689  0.00  0.00    +0.000 C 
ATOM     15  C   UNL     1     -10.073   5.623 131.238  0.00  0.00    +0.000 C 
ATOM     16  C   UNL     1     -11.216   5.294 130.597  0.00  0.00    +0.000 C 
ATOM     17  C   UNL     1     -11.863   6.569 130.849  0.00  0.00    +0.000 C 
ATOM     18  O   UNL     1     -12.673   6.774 131.729  0.00  0.00    +0.000 OA
ATOM     19  C   UNL     1     -11.240   7.537 129.885  0.00  0.00    +0.000 C 
ATOM     20  C   UNL     1      -9.860   7.375 129.651  0.00  0.00    +0.000 C 
ATOM     21  C   UNL     1      -8.995   6.135 130.299  0.00  0.00    +0.000 C 
ATOM     22  C   UNL     1      -8.825   4.799 129.333  0.00  0.00    +0.000 C 
ENDROOT
BRANCH   5  23
ATOM     23  O   UNL     1      -5.053   6.081 133.875  0.00  0.00    +0.000 OA
ATOM     24  H   UNL     1      -5.476   5.499 134.517  0.00  0.00    +0.000 HD
ENDBRANCH   5  23
BRANCH   5  25
ATOM     25  C   UNL     1      -3.486   6.541 132.206  0.00  0.00    +0.000 C 
ATOM     26  O   UNL     1      -3.306   7.697 132.615  0.00  0.00    +0.000 OA
BRANCH  25  27
ATOM     27  C   UNL     1      -2.197   5.930 131.446  0.00  0.00    +0.000 C 
ATOM     28 CL   UNL     1      -0.729   6.119 132.590  0.00  0.00    +0.000 Cl
ENDBRANCH  25  27
ENDBRANCH   5  25
BRANCH   9  29
ATOM     29  O   UNL     1      -5.606   7.491 130.446  0.00  0.00    +0.000 OA
ATOM     30  H   UNL     1      -5.058   7.735 129.684  0.00  0.00    +0.000 HD
ENDBRANCH   9  29
TORSDOF 4
ENDMDL
MODEL 7
REMARK VINA RESULT:      -7.9      5.365      7.695
REMARK  Name = Clobetasol
REMARK  7 active torsions:
REMARK  status: ('A' for Active; 'I' for Inactive)
REMARK    1  A    between atoms: C_4  and  C_5
REMARK    2  A    between atoms: C_6  and  O_7
REMARK    3  A    between atoms: C_6  and  C_8
REMARK    4  A    between atoms: C_8  and  C_10
REMARK    5  A    between atoms: C_12  and  C_13
REMARK    6  A    between atoms: C_15  and  O_16
REMARK    7  A    between atoms: C_29  and  C_30
REMARK                            x       y       z     vdW  Elec       q    Type
REMARK                         _______ _______ _______ _____ _____    ______ ____
ROOT
ATOM      1  C   UNL     1      -9.737   3.552 131.963  0.00  0.00    +0.000 C 
ATOM      2  C   UNL     1      -9.301   3.710 133.299  0.00  0.00    +0.000 C 
ATOM      3  C   UNL     1      -8.470   4.580 132.425  0.00  0.00    +0.000 C 
ATOM      4  C   UNL     1      -7.500   4.959 133.955  0.00  0.00    +0.000 C 
ATOM      5  C   UNL     1      -9.254   4.776 130.509  0.00  0.00    +0.000 C 
ATOM      6  C   UNL     1      -9.550   5.416 131.652  0.00  0.00    +0.000 C 
ATOM      7  C   UNL     1     -10.761   6.188 132.006  0.00  0.00    +0.000 C 
ATOM      8  C   UNL     1      -7.919   6.108 131.083  0.00  0.00    +0.000 C 
ATOM      9  C   UNL     1      -6.917   4.766 130.310  0.00  0.00    +0.000 C 
ATOM     10  C   UNL     1      -7.091   3.073 130.814  0.00  0.00    +0.000 C 
ATOM     11  F   UNL     1      -7.141   3.065 132.229  0.00  0.00    +0.000 F 
ATOM     12  C   UNL     1      -8.617   2.493 130.953  0.00  0.00    +0.000 C 
ATOM     13  C   UNL     1      -8.526   1.204 131.797  0.00  0.00    +0.000 C 
ATOM     14  C   UNL     1      -7.407   0.336 131.320  0.00  0.00    +0.000 C 
ATOM     15  C   UNL     1      -6.118   0.995 131.749  0.00  0.00    +0.000 C 
ATOM     16  C   UNL     1      -5.087   0.353 132.341  0.00  0.00    +0.000 C 
ATOM     17  C   UNL     1      -4.894  -0.588 131.253  0.00  0.00    +0.000 C 
ATOM     18  O   UNL     1      -5.310  -1.728 131.238  0.00  0.00    +0.000 OA
ATOM     19  C   UNL     1      -4.192   0.182 130.172  0.00  0.00    +0.000 C 
ATOM     20  C   UNL     1      -4.595   1.521 130.006  0.00  0.00    +0.000 C 
ATOM     21  C   UNL     1      -5.684   2.245 131.003  0.00  0.00    +0.000 C 
ATOM     22  C   UNL     1      -5.040   3.101 132.268  0.00  0.00    +0.000 C 
ENDROOT
BRANCH   5  23
ATOM     23  O   UNL     1     -10.592   4.099 130.105  0.00  0.00    +0.000 OA
ATOM     24  H   UNL     1     -10.932   3.395 130.668  0.00  0.00    +0.000 HD
ENDBRANCH   5  23
BRANCH   5  25
ATOM     25  C   UNL     1      -9.722   6.112 129.299  0.00  0.00    +0.000 C 
ATOM     26  O   UNL     1      -9.593   5.953 128.077  0.00  0.00    +0.000 OA
BRANCH  25  27
ATOM     27  C   UNL     1     -10.221   7.596 129.697  0.00  0.00    +0.000 C 
ATOM     28 CL   UNL     1     -10.451   8.556 128.107  0.00  0.00    +0.000 Cl
ENDBRANCH  25  27
ENDBRANCH   5  25
BRANCH   9  29
ATOM     29  O   UNL     1      -7.127   4.850 128.887  0.00  0.00    +0.000 OA
ATOM     30  H   UNL     1      -6.725   4.087 128.445  0.00  0.00    +0.000 HD
ENDBRANCH   9  29
TORSDOF 4
ENDMDL
MODEL 8
REMARK VINA RESULT:      -7.9      3.940      5.607
REMARK  Name = Clobetasol
REMARK  7 active torsions:
REMARK  status: ('A' for Active; 'I' for Inactive)
REMARK    1  A    between atoms: C_4  and  C_5
REMARK    2  A    between atoms: C_6  and  O_7
REMARK    3  A    between atoms: C_6  and  C_8
REMARK    4  A    between atoms: C_8  and  C_10
REMARK    5  A    between atoms: C_12  and  C_13
REMARK    6  A    between atoms: C_15  and  O_16
REMARK    7  A    between atoms: C_29  and  C_30
REMARK                            x       y       z     vdW  Elec       q    Type
REMARK                         _______ _______ _______ _____ _____    ______ ____
ROOT
ATOM      1  C   UNL     1      -8.545   1.892 132.786  0.00  0.00    +0.000 C 
ATOM      2  C   UNL     1      -7.223   2.048 133.265  0.00  0.00    +0.000 C 
ATOM      3  C   UNL     1      -7.332   2.728 131.946  0.00  0.00    +0.000 C 
ATOM      4  C   UNL     1      -5.512   3.028 132.102  0.00  0.00    +0.000 C 
ATOM      5  C   UNL     1      -9.302   2.945 131.316  0.00  0.00    +0.000 C 
ATOM      6  C   UNL     1      -8.560   3.684 132.157  0.00  0.00    +0.000 C 
ATOM      7  C   UNL     1      -8.995   4.655 133.184  0.00  0.00    +0.000 C 
ATOM      8  C   UNL     1      -7.942   4.076 130.447  0.00  0.00    +0.000 C 
ATOM      9  C   UNL     1      -7.997   2.553 129.407  0.00  0.00    +0.000 C 
ATOM     10  C   UNL     1      -7.814   0.938 130.120  0.00  0.00    +0.000 C 
ATOM     11  F   UNL     1      -6.743   1.013 131.045  0.00  0.00    +0.000 F 
ATOM     12  C   UNL     1      -8.693   0.616 131.464  0.00  0.00    +0.000 C 
ATOM     13  C   UNL     1      -8.056  -0.624 132.124  0.00  0.00    +0.000 C 
ATOM     14  C   UNL     1      -7.779  -1.683 131.107  0.00  0.00    +0.000 C 
ATOM     15  C   UNL     1      -6.601  -1.216 130.287  0.00  0.00    +0.000 C 
ATOM     16  C   UNL     1      -5.533  -1.981 129.970  0.00  0.00    +0.000 C 
ATOM     17  C   UNL     1      -6.315  -2.997 129.289  0.00  0.00    +0.000 C 
ATOM     18  O   UNL     1      -6.654  -4.055 129.776  0.00  0.00    +0.000 OA
ATOM     19  C   UNL     1      -6.673  -2.406 127.956  0.00  0.00    +0.000 C 
ATOM     20  C   UNL     1      -6.975  -1.030 127.950  0.00  0.00    +0.000 C 
ATOM     21  C   UNL     1      -6.836  -0.092 129.294  0.00  0.00    +0.000 C 
ATOM     22  C   UNL     1      -5.398   0.716 129.458  0.00  0.00    +0.000 C 
ENDROOT
BRANCH   5  23
ATOM     23  O   UNL     1     -10.493   2.470 132.192  0.00  0.00    +0.000 OA
ATOM     24  H   UNL     1     -11.018   3.139 132.646  0.00  0.00    +0.000 HD
ENDBRANCH   5  23
BRANCH   5  25
ATOM     25  C   UNL     1     -10.457   4.273 130.708  0.00  0.00    +0.000 C 
ATOM     26  O   UNL     1     -11.454   4.001 130.025  0.00  0.00    +0.000 OA
BRANCH  25  27
ATOM     27  C   UNL     1     -10.236   5.862 130.903  0.00  0.00    +0.000 C 
ATOM     28 CL   UNL     1     -11.772   6.546 131.723  0.00  0.00    +0.000 Cl
ENDBRANCH  25  27
ENDBRANCH   5  25
BRANCH   9  29
ATOM     29  O   UNL     1      -9.231   2.595 128.664  0.00  0.00    +0.000 OA
ATOM     30  H   UNL     1      -9.844   1.924 128.999  0.00  0.00    +0.000 HD
ENDBRANCH   9  29
TORSDOF 4
ENDMDL
MODEL 9
REMARK VINA RESULT:      -7.7      6.326      7.981
REMARK  Name = Clobetasol
REMARK  7 active torsions:
REMARK  status: ('A' for Active; 'I' for Inactive)
REMARK    1  A    between atoms: C_4  and  C_5
REMARK    2  A    between atoms: C_6  and  O_7
REMARK    3  A    between atoms: C_6  and  C_8
REMARK    4  A    between atoms: C_8  and  C_10
REMARK    5  A    between atoms: C_12  and  C_13
REMARK    6  A    between atoms: C_15  and  O_16
REMARK    7  A    between atoms: C_29  and  C_30
REMARK                            x       y       z     vdW  Elec       q    Type
REMARK                         _______ _______ _______ _____ _____    ______ ____
ROOT
ATOM      1  C   UNL     1     -10.085   4.050 131.507  0.00  0.00    +0.000 C 
ATOM      2  C   UNL     1      -9.135   4.307 132.524  0.00  0.00    +0.000 C 
ATOM      3  C   UNL     1      -8.964   5.321 131.449  0.00  0.00    +0.000 C 
ATOM      4  C   UNL     1      -7.503   5.908 132.423  0.00  0.00    +0.000 C 
ATOM      5  C   UNL     1     -10.544   5.333 130.097  0.00  0.00    +0.000 C 
ATOM      6  C   UNL     1     -10.413   5.909 131.303  0.00  0.00    +0.000 C 
ATOM      7  C   UNL     1     -11.459   6.417 132.217  0.00  0.00    +0.000 C 
ATOM      8  C   UNL     1      -9.372   6.917 130.136  0.00  0.00    +0.000 C 
ATOM      9  C   UNL     1      -8.589   5.804 128.891  0.00  0.00    +0.000 C 
ATOM     10  C   UNL     1      -8.195   4.116 129.276  0.00  0.00    +0.000 C 
ATOM     11  F   UNL     1      -7.604   4.112 130.562  0.00  0.00    +0.000 F 
ATOM     12  C   UNL     1      -9.357   3.235 130.022  0.00  0.00    +0.000 C 
ATOM     13  C   UNL     1      -8.656   2.001 130.628  0.00  0.00    +0.000 C 
ATOM     14  C   UNL     1      -7.727   1.378 129.637  0.00  0.00    +0.000 C 
ATOM     15  C   UNL     1      -6.533   2.294 129.509  0.00  0.00    +0.000 C 
ATOM     16  C   UNL     1      -5.246   1.884 129.532  0.00  0.00    +0.000 C 
ATOM     17  C   UNL     1      -5.386   0.992 128.395  0.00  0.00    +0.000 C 
ATOM     18  O   UNL     1      -5.541  -0.208 128.468  0.00  0.00    +0.000 OA
ATOM     19  C   UNL     1      -5.403   1.881 127.184  0.00  0.00    +0.000 C 
ATOM     20  C   UNL     1      -6.082   3.106 127.325  0.00  0.00    +0.000 C 
ATOM     21  C   UNL     1      -6.725   3.599 128.757  0.00  0.00    +0.000 C 
ATOM     22  C   UNL     1      -5.757   4.581 129.677  0.00  0.00    +0.000 C 
ENDROOT
BRANCH   5  23
ATOM     23  O   UNL     1     -11.767   4.390 130.268  0.00  0.00    +0.000 OA
ATOM     24  H   UNL     1     -12.198   4.358 131.129  0.00  0.00    +0.000 HD
ENDBRANCH   5  23
BRANCH   5  25
ATOM     25  C   UNL     1     -11.747   6.531 129.334  0.00  0.00    +0.000 C 
ATOM     26  O   UNL     1     -12.239   6.331 128.214  0.00  0.00    +0.000 OA
BRANCH  25  27
ATOM     27  C   UNL     1     -12.178   7.953 129.971  0.00  0.00    +0.000 C 
ATOM     28 CL   UNL     1     -12.770   9.040 128.568  0.00  0.00    +0.000 Cl
ENDBRANCH  25  27
ENDBRANCH   5  25
BRANCH   9  29
ATOM     29  O   UNL     1      -9.425   5.829 127.718  0.00  0.00    +0.000 OA
ATOM     30  H   UNL     1     -10.359   5.869 127.975  0.00  0.00    +0.000 HD
ENDBRANCH   9  29
TORSDOF 4
ENDMDL
