MODEL 1
REMARK VINA RESULT:      -9.6      0.000      0.000
REMARK  Name = Clobetasone
REMARK  6 active torsions:
REMARK  status: ('A' for Active; 'I' for Inactive)
REMARK    1  A    between atoms: C_2  and  C_3
REMARK    2  A    between atoms: C_17  and  C_18
REMARK    3  A    between atoms: C_24  and  C_25
REMARK    4  A    between atoms: C_26  and  O_27
REMARK    5  A    between atoms: C_26  and  C_28
REMARK    6  A    between atoms: C_28  and  C_30
REMARK                            x       y       z     vdW  Elec       q    Type
REMARK                         _______ _______ _______ _____ _____    ______ ____
ROOT
ATOM      1  C   UNL     1      -7.782  -3.215 126.084  0.00  0.00    +0.000 C 
ATOM      2  C   UNL     1      -9.295  -3.251 126.319  0.00  0.00    +0.000 C 
ATOM      3  C   UNL     1      -6.929  -3.103 124.750  0.00  0.00    +0.000 C 
ATOM      4  C   UNL     1      -7.182  -1.676 124.020  0.00  0.00    +0.000 C 
ATOM      5  C   UNL     1      -7.345  -0.122 124.672  0.00  0.00    +0.000 C 
ATOM      6  C   UNL     1      -6.008   0.150 125.238  0.00  0.00    +0.000 C 
ATOM      7  C   UNL     1      -6.155   1.382 126.048  0.00  0.00    +0.000 C 
ATOM      8  C   UNL     1      -6.148   2.373 124.971  0.00  0.00    +0.000 C 
ATOM      9  C   UNL     1      -5.412   3.494 125.004  0.00  0.00    +0.000 C 
ATOM     10  C   UNL     1      -5.778   3.948 126.339  0.00  0.00    +0.000 C 
ATOM     11  O   UNL     1      -5.037   3.954 127.256  0.00  0.00    +0.000 OA
ATOM     12  C   UNL     1      -7.247   4.340 126.165  0.00  0.00    +0.000 C 
ATOM     13  C   UNL     1      -8.075   3.655 125.249  0.00  0.00    +0.000 C 
ATOM     14  C   UNL     1      -7.420   2.469 124.190  0.00  0.00    +0.000 C 
ATOM     15  C   UNL     1      -6.789   2.763 122.800  0.00  0.00    +0.000 C 
ATOM     16  C   UNL     1      -7.783   0.987 123.767  0.00  0.00    +0.000 C 
ATOM     17  F   UNL     1      -6.931   0.560 122.744  0.00  0.00    +0.000 F 
ATOM     18  C   UNL     1      -9.102   0.731 123.158  0.00  0.00    +0.000 C 
ATOM     19  O   UNL     1      -9.786   1.527 122.500  0.00  0.00    +0.000 OA
ATOM     20  C   UNL     1      -9.147  -0.720 122.968  0.00  0.00    +0.000 C 
ATOM     21  C   UNL     1      -8.595  -1.764 124.282  0.00  0.00    +0.000 C 
ATOM     22  C   UNL     1      -9.319  -3.018 123.318  0.00  0.00    +0.000 C 
ATOM     23  C   UNL     1      -7.770  -1.758 126.135  0.00  0.00    +0.000 C 
ENDROOT
BRANCH  23  24
ATOM     24  O   UNL     1      -8.359  -0.801 127.025  0.00  0.00    +0.000 OA
ATOM     25  H   UNL     1      -7.767  -0.853 127.811  0.00  0.00    +0.000 HD
ENDBRANCH  23  24
BRANCH  23  26
ATOM     26  C   UNL     1      -6.567  -1.730 127.621  0.00  0.00    +0.000 C 
ATOM     27  O   UNL     1      -5.366  -1.975 127.355  0.00  0.00    +0.000 OA
BRANCH  26  28
ATOM     28  C   UNL     1      -6.897  -1.983 129.274  0.00  0.00    +0.000 C 
ATOM     29 CL   UNL     1      -8.079  -3.348 129.625  0.00  0.00    +0.000 Cl
ENDBRANCH  26  28
ENDBRANCH  23  26
TORSDOF 3
ENDMDL
MODEL 2
REMARK VINA RESULT:      -9.1      2.593      6.399
REMARK  Name = Clobetasone
REMARK  6 active torsions:
REMARK  status: ('A' for Active; 'I' for Inactive)
REMARK    1  A    between atoms: C_2  and  C_3
REMARK    2  A    between atoms: C_17  and  C_18
REMARK    3  A    between atoms: C_24  and  C_25
REMARK    4  A    between atoms: C_26  and  O_27
REMARK    5  A    between atoms: C_26  and  C_28
REMARK    6  A    between atoms: C_28  and  C_30
REMARK                            x       y       z     vdW  Elec       q    Type
REMARK                         _______ _______ _______ _____ _____    ______ ____
ROOT
ATOM      1  C   UNL     1      -7.307   4.063 125.047  0.00  0.00    +0.000 C 
ATOM      2  C   UNL     1      -7.847   4.503 126.411  0.00  0.00    +0.000 C 
ATOM      3  C   UNL     1      -5.903   3.458 124.620  0.00  0.00    +0.000 C 
ATOM      4  C   UNL     1      -5.668   2.004 125.300  0.00  0.00    +0.000 C 
ATOM      5  C   UNL     1      -6.743   0.718 125.542  0.00  0.00    +0.000 C 
ATOM      6  C   UNL     1      -7.056   0.274 124.169  0.00  0.00    +0.000 C 
ATOM      7  C   UNL     1      -8.187  -0.674 124.298  0.00  0.00    +0.000 C 
ATOM      8  C   UNL     1      -7.450  -1.855 124.752  0.00  0.00    +0.000 C 
ATOM      9  C   UNL     1      -7.629  -3.081 124.237  0.00  0.00    +0.000 C 
ATOM     10  C   UNL     1      -9.085  -3.125 124.299  0.00  0.00    +0.000 C 
ATOM     11  O   UNL     1      -9.782  -3.099 123.349  0.00  0.00    +0.000 OA
ATOM     12  C   UNL     1      -9.351  -3.191 125.804  0.00  0.00    +0.000 C 
ATOM     13  C   UNL     1      -8.485  -2.555 126.720  0.00  0.00    +0.000 C 
ATOM     14  C   UNL     1      -7.024  -1.823 126.186  0.00  0.00    +0.000 C 
ATOM     15  C   UNL     1      -5.665  -2.561 126.014  0.00  0.00    +0.000 C 
ATOM     16  C   UNL     1      -6.297  -0.432 126.392  0.00  0.00    +0.000 C 
ATOM     17  F   UNL     1      -5.036  -0.457 125.790  0.00  0.00    +0.000 F 
ATOM     18  C   UNL     1      -5.945  -0.017 127.763  0.00  0.00    +0.000 C 
ATOM     19  O   UNL     1      -5.698  -0.758 128.724  0.00  0.00    +0.000 OA
ATOM     20  C   UNL     1      -5.376   1.323 127.610  0.00  0.00    +0.000 C 
ATOM     21  C   UNL     1      -6.198   2.476 126.553  0.00  0.00    +0.000 C 
ATOM     22  C   UNL     1      -5.107   3.616 127.287  0.00  0.00    +0.000 C 
ATOM     23  C   UNL     1      -7.754   2.693 125.270  0.00  0.00    +0.000 C 
ENDROOT
BRANCH  23  24
ATOM     24  O   UNL     1      -8.979   2.125 125.750  0.00  0.00    +0.000 OA
ATOM     25  H   UNL     1      -9.584   2.903 125.753  0.00  0.00    +0.000 HD
ENDBRANCH  23  24
BRANCH  23  26
ATOM     26  C   UNL     1      -8.890   2.718 123.732  0.00  0.00    +0.000 C 
ATOM     27  O   UNL     1      -9.936   2.031 123.816  0.00  0.00    +0.000 OA
BRANCH  26  28
ATOM     28  C   UNL     1      -8.487   3.033 122.106  0.00  0.00    +0.000 C 
ATOM     29 CL   UNL     1      -6.693   2.906 121.716  0.00  0.00    +0.000 Cl
ENDBRANCH  26  28
ENDBRANCH  23  26
TORSDOF 3
ENDMDL
MODEL 3
REMARK VINA RESULT:      -8.8      2.785      4.955
REMARK  Name = Clobetasone
REMARK  6 active torsions:
REMARK  status: ('A' for Active; 'I' for Inactive)
REMARK    1  A    between atoms: C_2  and  C_3
REMARK    2  A    between atoms: C_17  and  C_18
REMARK    3  A    between atoms: C_24  and  C_25
REMARK    4  A    between atoms: C_26  and  O_27
REMARK    5  A    between atoms: C_26  and  C_28
REMARK    6  A    between atoms: C_28  and  C_30
REMARK                            x       y       z     vdW  Elec       q    Type
REMARK                         _______ _______ _______ _____ _____    ______ ____
ROOT
ATOM      1  C   UNL     1      -7.773  -1.261 122.839  0.00  0.00    +0.000 C 
ATOM      2  C   UNL     1      -9.304  -1.291 122.853  0.00  0.00    +0.000 C 
ATOM      3  C   UNL     1      -6.744  -0.078 123.084  0.00  0.00    +0.000 C 
ATOM      4  C   UNL     1      -6.845   0.471 124.607  0.00  0.00    +0.000 C 
ATOM      5  C   UNL     1      -7.040  -0.366 126.066  0.00  0.00    +0.000 C 
ATOM      6  C   UNL     1      -5.783  -1.133 126.188  0.00  0.00    +0.000 C 
ATOM      7  C   UNL     1      -5.996  -2.082 127.305  0.00  0.00    +0.000 C 
ATOM      8  C   UNL     1      -5.808  -1.165 128.430  0.00  0.00    +0.000 C 
ATOM      9  C   UNL     1      -5.044  -1.450 129.495  0.00  0.00    +0.000 C 
ATOM     10  C   UNL     1      -5.571  -2.778 129.784  0.00  0.00    +0.000 C 
ATOM     11  O   UNL     1      -4.961  -3.774 129.628  0.00  0.00    +0.000 OA
ATOM     12  C   UNL     1      -6.988  -2.472 130.274  0.00  0.00    +0.000 C 
ATOM     13  C   UNL     1      -7.708  -1.370 129.765  0.00  0.00    +0.000 C 
ATOM     14  C   UNL     1      -6.959  -0.248 128.698  0.00  0.00    +0.000 C 
ATOM     15  C   UNL     1      -6.135   0.994 129.143  0.00  0.00    +0.000 C 
ATOM     16  C   UNL     1      -7.313   0.423 127.309  0.00  0.00    +0.000 C 
ATOM     17  F   UNL     1      -6.346   1.377 126.979  0.00  0.00    +0.000 F 
ATOM     18  C   UNL     1      -8.545   1.227 127.208  0.00  0.00    +0.000 C 
ATOM     19  O   UNL     1      -9.105   1.849 128.121  0.00  0.00    +0.000 OA
ATOM     20  C   UNL     1      -8.615   1.623 125.801  0.00  0.00    +0.000 C 
ATOM     21  C   UNL     1      -8.283   0.408 124.561  0.00  0.00    +0.000 C 
ATOM     22  C   UNL     1      -8.914   1.625 123.489  0.00  0.00    +0.000 C 
ATOM     23  C   UNL     1      -7.717  -1.518 124.273  0.00  0.00    +0.000 C 
ENDROOT
BRANCH  23  24
ATOM     24  O   UNL     1      -8.387  -2.449 125.132  0.00  0.00    +0.000 OA
ATOM     25  H   UNL     1      -8.432  -1.954 125.982  0.00  0.00    +0.000 HD
ENDBRANCH  23  24
BRANCH  23  26
ATOM     26  C   UNL     1      -6.725  -3.135 124.037  0.00  0.00    +0.000 C 
ATOM     27  O   UNL     1      -7.283  -4.182 124.445  0.00  0.00    +0.000 OA
BRANCH  26  28
ATOM     28  C   UNL     1      -5.040  -3.350 123.895  0.00  0.00    +0.000 C 
ATOM     29 CL   UNL     1      -4.503  -5.089 123.623  0.00  0.00    +0.000 Cl
ENDBRANCH  26  28
ENDBRANCH  23  26
TORSDOF 3
ENDMDL
MODEL 4
REMARK VINA RESULT:      -8.7      2.622      4.510
REMARK  Name = Clobetasone
REMARK  6 active torsions:
REMARK  status: ('A' for Active; 'I' for Inactive)
REMARK    1  A    between atoms: C_2  and  C_3
REMARK    2  A    between atoms: C_17  and  C_18
REMARK    3  A    between atoms: C_24  and  C_25
REMARK    4  A    between atoms: C_26  and  O_27
REMARK    5  A    between atoms: C_26  and  C_28
REMARK    6  A    between atoms: C_28  and  C_30
REMARK                            x       y       z     vdW  Elec       q    Type
REMARK                         _______ _______ _______ _____ _____    ______ ____
ROOT
ATOM      1  C   UNL     1      -8.702  -0.145 123.157  0.00  0.00    +0.000 C 
ATOM      2  C   UNL     1     -10.020   0.558 122.818  0.00  0.00    +0.000 C 
ATOM      3  C   UNL     1      -7.213   0.398 123.233  0.00  0.00    +0.000 C 
ATOM      4  C   UNL     1      -7.056   1.491 124.422  0.00  0.00    +0.000 C 
ATOM      5  C   UNL     1      -7.706   1.515 125.985  0.00  0.00    +0.000 C 
ATOM      6  C   UNL     1      -7.044   0.371 126.645  0.00  0.00    +0.000 C 
ATOM      7  C   UNL     1      -7.757   0.177 127.929  0.00  0.00    +0.000 C 
ATOM      8  C   UNL     1      -7.149   1.263 128.700  0.00  0.00    +0.000 C 
ATOM      9  C   UNL     1      -6.681   1.110 129.948  0.00  0.00    +0.000 C 
ATOM     10  C   UNL     1      -7.836   0.433 130.525  0.00  0.00    +0.000 C 
ATOM     11  O   UNL     1      -7.836  -0.699 130.854  0.00  0.00    +0.000 OA
ATOM     12  C   UNL     1      -8.895   1.538 130.539  0.00  0.00    +0.000 C 
ATOM     13  C   UNL     1      -8.912   2.536 129.540  0.00  0.00    +0.000 C 
ATOM     14  C   UNL     1      -7.653   2.632 128.373  0.00  0.00    +0.000 C 
ATOM     15  C   UNL     1      -6.313   3.398 128.565  0.00  0.00    +0.000 C 
ATOM     16  C   UNL     1      -7.560   2.764 126.798  0.00  0.00    +0.000 C 
ATOM     17  F   UNL     1      -6.226   2.924 126.410  0.00  0.00    +0.000 F 
ATOM     18  C   UNL     1      -8.183   3.934 126.150  0.00  0.00    +0.000 C 
ATOM     19  O   UNL     1      -8.358   5.055 126.648  0.00  0.00    +0.000 OA
ATOM     20  C   UNL     1      -7.991   3.710 124.717  0.00  0.00    +0.000 C 
ATOM     21  C   UNL     1      -8.310   2.100 124.061  0.00  0.00    +0.000 C 
ATOM     22  C   UNL     1      -8.175   2.919 122.532  0.00  0.00    +0.000 C 
ATOM     23  C   UNL     1      -8.833   0.206 124.565  0.00  0.00    +0.000 C 
ENDROOT
BRANCH  23  24
ATOM     24  O   UNL     1      -9.918   0.138 125.499  0.00  0.00    +0.000 OA
ATOM     25  H   UNL     1      -9.509  -0.336 126.260  0.00  0.00    +0.000 HD
ENDBRANCH  23  24
BRANCH  23  26
ATOM     26  C   UNL     1      -8.833  -1.624 125.115  0.00  0.00    +0.000 C 
ATOM     27  O   UNL     1      -9.865  -2.015 125.712  0.00  0.00    +0.000 OA
BRANCH  26  28
ATOM     28  C   UNL     1      -7.508  -2.647 125.440  0.00  0.00    +0.000 C 
ATOM     29 CL   UNL     1      -6.466  -3.049 123.978  0.00  0.00    +0.000 Cl
ENDBRANCH  26  28
ENDBRANCH  23  26
TORSDOF 3
ENDMDL
MODEL 5
REMARK VINA RESULT:      -8.7      2.807      5.406
REMARK  Name = Clobetasone
REMARK  6 active torsions:
REMARK  status: ('A' for Active; 'I' for Inactive)
REMARK    1  A    between atoms: C_2  and  C_3
REMARK    2  A    between atoms: C_17  and  C_18
REMARK    3  A    between atoms: C_24  and  C_25
REMARK    4  A    between atoms: C_26  and  O_27
REMARK    5  A    between atoms: C_26  and  C_28
REMARK    6  A    between atoms: C_28  and  C_30
REMARK                            x       y       z     vdW  Elec       q    Type
REMARK                         _______ _______ _______ _____ _____    ______ ____
ROOT
ATOM      1  C   UNL     1      -8.862   2.467 123.839  0.00  0.00    +0.000 C 
ATOM      2  C   UNL     1      -7.948   2.183 122.643  0.00  0.00    +0.000 C 
ATOM      3  C   UNL     1     -10.119   1.683 124.407  0.00  0.00    +0.000 C 
ATOM      4  C   UNL     1      -9.690   0.216 124.950  0.00  0.00    +0.000 C 
ATOM      5  C   UNL     1      -8.325  -0.276 125.822  0.00  0.00    +0.000 C 
ATOM      6  C   UNL     1      -8.490   0.403 127.123  0.00  0.00    +0.000 C 
ATOM      7  C   UNL     1      -7.205   0.225 127.839  0.00  0.00    +0.000 C 
ATOM      8  C   UNL     1      -7.376  -1.158 128.286  0.00  0.00    +0.000 C 
ATOM      9  C   UNL     1      -7.120  -1.568 129.537  0.00  0.00    +0.000 C 
ATOM     10  C   UNL     1      -5.802  -0.965 129.690  0.00  0.00    +0.000 C 
ATOM     11  O   UNL     1      -5.576  -0.056 130.407  0.00  0.00    +0.000 OA
ATOM     12  C   UNL     1      -4.946  -1.790 128.728  0.00  0.00    +0.000 C 
ATOM     13  C   UNL     1      -5.499  -2.324 127.543  0.00  0.00    +0.000 C 
ATOM     14  C   UNL     1      -7.184  -2.195 127.225  0.00  0.00    +0.000 C 
ATOM     15  C   UNL     1      -8.265  -3.199 127.718  0.00  0.00    +0.000 C 
ATOM     16  C   UNL     1      -8.089  -1.743 126.006  0.00  0.00    +0.000 C 
ATOM     17  F   UNL     1      -9.435  -1.978 126.299  0.00  0.00    +0.000 F 
ATOM     18  C   UNL     1      -7.951  -2.458 124.724  0.00  0.00    +0.000 C 
ATOM     19  O   UNL     1      -7.598  -3.635 124.561  0.00  0.00    +0.000 OA
ATOM     20  C   UNL     1      -8.848  -1.752 123.808  0.00  0.00    +0.000 C 
ATOM     21  C   UNL     1      -8.837   0.015 123.807  0.00  0.00    +0.000 C 
ATOM     22  C   UNL     1      -9.787  -0.183 122.363  0.00  0.00    +0.000 C 
ATOM     23  C   UNL     1      -8.036   1.643 124.713  0.00  0.00    +0.000 C 
ENDROOT
BRANCH  23  24
ATOM     24  O   UNL     1      -6.622   1.547 124.926  0.00  0.00    +0.000 OA
ATOM     25  H   UNL     1      -6.314   1.122 124.091  0.00  0.00    +0.000 HD
ENDBRANCH  23  24
BRANCH  23  26
ATOM     26  C   UNL     1      -7.660   3.106 125.886  0.00  0.00    +0.000 C 
ATOM     27  O   UNL     1      -8.350   3.157 126.932  0.00  0.00    +0.000 OA
BRANCH  26  28
ATOM     28  C   UNL     1      -6.977   4.625 125.522  0.00  0.00    +0.000 C 
ATOM     29 CL   UNL     1      -5.678   4.595 124.219  0.00  0.00    +0.000 Cl
ENDBRANCH  26  28
ENDBRANCH  23  26
TORSDOF 3
ENDMDL
MODEL 6
REMARK VINA RESULT:      -8.6      2.483      4.048
REMARK  Name = Clobetasone
REMARK  6 active torsions:
REMARK  status: ('A' for Active; 'I' for Inactive)
REMARK    1  A    between atoms: C_2  and  C_3
REMARK    2  A    between atoms: C_17  and  C_18
REMARK    3  A    between atoms: C_24  and  C_25
REMARK    4  A    between atoms: C_26  and  O_27
REMARK    5  A    between atoms: C_26  and  C_28
REMARK    6  A    between atoms: C_28  and  C_30
REMARK                            x       y       z     vdW  Elec       q    Type
REMARK                         _______ _______ _______ _____ _____    ______ ____
ROOT
ATOM      1  C   UNL     1      -6.524  -0.587 129.861  0.00  0.00    +0.000 C 
ATOM      2  C   UNL     1      -7.912  -0.750 130.488  0.00  0.00    +0.000 C 
ATOM      3  C   UNL     1      -5.666  -1.558 128.944  0.00  0.00    +0.000 C 
ATOM      4  C   UNL     1      -6.398  -1.802 127.517  0.00  0.00    +0.000 C 
ATOM      5  C   UNL     1      -7.227  -0.724 126.509  0.00  0.00    +0.000 C 
ATOM      6  C   UNL     1      -6.170   0.205 126.062  0.00  0.00    +0.000 C 
ATOM      7  C   UNL     1      -6.871   1.322 125.388  0.00  0.00    +0.000 C 
ATOM      8  C   UNL     1      -7.160   0.678 124.106  0.00  0.00    +0.000 C 
ATOM      9  C   UNL     1      -6.939   1.263 122.919  0.00  0.00    +0.000 C 
ATOM     10  C   UNL     1      -7.578   2.543 123.193  0.00  0.00    +0.000 C 
ATOM     11  O   UNL     1      -6.990   3.558 123.311  0.00  0.00    +0.000 OA
ATOM     12  C   UNL     1      -9.058   2.163 123.275  0.00  0.00    +0.000 C 
ATOM     13  C   UNL     1      -9.455   0.900 123.764  0.00  0.00    +0.000 C 
ATOM     14  C   UNL     1      -8.286  -0.307 124.131  0.00  0.00    +0.000 C 
ATOM     15  C   UNL     1      -7.697  -1.321 123.109  0.00  0.00    +0.000 C 
ATOM     16  C   UNL     1      -7.986  -1.279 125.344  0.00  0.00    +0.000 C 
ATOM     17  F   UNL     1      -6.943  -2.149 125.012  0.00  0.00    +0.000 F 
ATOM     18  C   UNL     1      -9.029  -2.237 125.754  0.00  0.00    +0.000 C 
ATOM     19  O   UNL     1      -9.909  -2.732 125.036  0.00  0.00    +0.000 OA
ATOM     20  C   UNL     1      -8.474  -2.910 126.929  0.00  0.00    +0.000 C 
ATOM     21  C   UNL     1      -7.676  -1.933 128.166  0.00  0.00    +0.000 C 
ATOM     22  C   UNL     1      -7.747  -3.408 129.086  0.00  0.00    +0.000 C 
ATOM     23  C   UNL     1      -7.100  -0.046 128.636  0.00  0.00    +0.000 C 
ENDROOT
BRANCH  23  24
ATOM     24  O   UNL     1      -8.102   0.944 128.374  0.00  0.00    +0.000 OA
ATOM     25  H   UNL     1      -7.566   1.766 128.286  0.00  0.00    +0.000 HD
ENDBRANCH  23  24
BRANCH  23  26
ATOM     26  C   UNL     1      -6.152   1.605 128.812  0.00  0.00    +0.000 C 
ATOM     27  O   UNL     1      -6.807   2.641 128.544  0.00  0.00    +0.000 OA
BRANCH  26  28
ATOM     28  C   UNL     1      -4.474   1.895 128.720  0.00  0.00    +0.000 C 
ATOM     29 CL   UNL     1      -3.902   2.618 127.128  0.00  0.00    +0.000 Cl
ENDBRANCH  26  28
ENDBRANCH  23  26
TORSDOF 3
ENDMDL
MODEL 7
REMARK VINA RESULT:      -8.3      3.753      6.171
REMARK  Name = Clobetasone
REMARK  6 active torsions:
REMARK  status: ('A' for Active; 'I' for Inactive)
REMARK    1  A    between atoms: C_2  and  C_3
REMARK    2  A    between atoms: C_17  and  C_18
REMARK    3  A    between atoms: C_24  and  C_25
REMARK    4  A    between atoms: C_26  and  O_27
REMARK    5  A    between atoms: C_26  and  C_28
REMARK    6  A    between atoms: C_28  and  C_30
REMARK                            x       y       z     vdW  Elec       q    Type
REMARK                         _______ _______ _______ _____ _____    ______ ____
ROOT
ATOM      1  C   UNL     1      -5.841  -2.511 128.094  0.00  0.00    +0.000 C 
ATOM      2  C   UNL     1      -4.521  -2.629 128.862  0.00  0.00    +0.000 C 
ATOM      3  C   UNL     1      -7.335  -2.838 128.520  0.00  0.00    +0.000 C 
ATOM      4  C   UNL     1      -7.823  -1.859 129.718  0.00  0.00    +0.000 C 
ATOM      5  C   UNL     1      -7.557  -0.205 129.962  0.00  0.00    +0.000 C 
ATOM      6  C   UNL     1      -8.291   0.425 128.846  0.00  0.00    +0.000 C 
ATOM      7  C   UNL     1      -7.886   1.850 128.849  0.00  0.00    +0.000 C 
ATOM      8  C   UNL     1      -8.715   2.326 129.958  0.00  0.00    +0.000 C 
ATOM      9  C   UNL     1      -9.451   3.446 129.903  0.00  0.00    +0.000 C 
ATOM     10  C   UNL     1      -8.427   4.346 129.388  0.00  0.00    +0.000 C 
ATOM     11  O   UNL     1      -8.443   4.803 128.301  0.00  0.00    +0.000 OA
ATOM     12  C   UNL     1      -7.462   4.461 130.570  0.00  0.00    +0.000 C 
ATOM     13  C   UNL     1      -7.268   3.377 131.453  0.00  0.00    +0.000 C 
ATOM     14  C   UNL     1      -8.223   1.953 131.321  0.00  0.00    +0.000 C 
ATOM     15  C   UNL     1      -9.611   1.744 131.992  0.00  0.00    +0.000 C 
ATOM     16  C   UNL     1      -7.955   0.394 131.275  0.00  0.00    +0.000 C 
ATOM     17  F   UNL     1      -9.169  -0.300 131.284  0.00  0.00    +0.000 F 
ATOM     18  C   UNL     1      -7.264  -0.236 132.416  0.00  0.00    +0.000 C 
ATOM     19  O   UNL     1      -7.270   0.147 133.594  0.00  0.00    +0.000 OA
ATOM     20  C   UNL     1      -7.104  -1.637 132.024  0.00  0.00    +0.000 C 
ATOM     21  C   UNL     1      -6.555  -2.001 130.384  0.00  0.00    +0.000 C 
ATOM     22  C   UNL     1      -6.375  -3.610 131.021  0.00  0.00    +0.000 C 
ATOM     23  C   UNL     1      -6.061  -1.163 128.604  0.00  0.00    +0.000 C 
ENDROOT
BRANCH  23  24
ATOM     24  O   UNL     1      -5.221  -0.009 128.725  0.00  0.00    +0.000 OA
ATOM     25  H   UNL     1      -4.685  -0.053 127.899  0.00  0.00    +0.000 HD
ENDBRANCH  23  24
BRANCH  23  26
ATOM     26  C   UNL     1      -6.090  -0.406 126.849  0.00  0.00    +0.000 C 
ATOM     27  O   UNL     1      -5.204   0.450 126.610  0.00  0.00    +0.000 OA
BRANCH  26  28
ATOM     28  C   UNL     1      -7.396  -0.263 125.763  0.00  0.00    +0.000 C 
ATOM     29 CL   UNL     1      -8.696  -1.552 125.945  0.00  0.00    +0.000 Cl
ENDBRANCH  26  28
ENDBRANCH  23  26
TORSDOF 3
ENDMDL
MODEL 8
REMARK VINA RESULT:      -8.1      2.533      5.561
REMARK  Name = Clobetasone
REMARK  6 active torsions:
REMARK  status: ('A' for Active; 'I' for Inactive)
REMARK    1  A    between atoms: C_2  and  C_3
REMARK    2  A    between atoms: C_17  and  C_18
REMARK    3  A    between atoms: C_24  and  C_25
REMARK    4  A    between atoms: C_26  and  O_27
REMARK    5  A    between atoms: C_26  and  C_28
REMARK    6  A    between atoms: C_28  and  C_30
REMARK                            x       y       z     vdW  Elec       q    Type
REMARK                         _______ _______ _______ _____ _____    ______ ____
ROOT
ATOM      1  C   UNL     1      -6.719   4.380 124.979  0.00  0.00    +0.000 C 
ATOM      2  C   UNL     1      -5.744   4.214 123.809  0.00  0.00    +0.000 C 
ATOM      3  C   UNL     1      -8.238   3.953 125.147  0.00  0.00    +0.000 C 
ATOM      4  C   UNL     1      -8.392   2.338 125.112  0.00  0.00    +0.000 C 
ATOM      5  C   UNL     1      -7.426   1.127 125.795  0.00  0.00    +0.000 C 
ATOM      6  C   UNL     1      -7.598   1.336 127.247  0.00  0.00    +0.000 C 
ATOM      7  C   UNL     1      -6.581   0.480 127.901  0.00  0.00    +0.000 C 
ATOM      8  C   UNL     1      -7.252  -0.815 127.781  0.00  0.00    +0.000 C 
ATOM      9  C   UNL     1      -7.362  -1.688 128.794  0.00  0.00    +0.000 C 
ATOM     10  C   UNL     1      -5.970  -1.684 129.227  0.00  0.00    +0.000 C 
ATOM     11  O   UNL     1      -5.601  -1.217 130.244  0.00  0.00    +0.000 OA
ATOM     12  C   UNL     1      -5.261  -2.381 128.064  0.00  0.00    +0.000 C 
ATOM     13  C   UNL     1      -5.735  -2.246 126.741  0.00  0.00    +0.000 C 
ATOM     14  C   UNL     1      -7.211  -1.426 126.416  0.00  0.00    +0.000 C 
ATOM     15  C   UNL     1      -8.621  -2.082 126.439  0.00  0.00    +0.000 C 
ATOM     16  C   UNL     1      -7.698  -0.297 125.419  0.00  0.00    +0.000 C 
ATOM     17  F   UNL     1      -9.080  -0.120 125.537  0.00  0.00    +0.000 F 
ATOM     18  C   UNL     1      -7.568  -0.532 123.969  0.00  0.00    +0.000 C 
ATOM     19  O   UNL     1      -7.577  -1.627 123.389  0.00  0.00    +0.000 OA
ATOM     20  C   UNL     1      -8.022   0.713 123.349  0.00  0.00    +0.000 C 
ATOM     21  C   UNL     1      -7.458   2.248 124.020  0.00  0.00    +0.000 C 
ATOM     22  C   UNL     1      -8.152   2.904 122.565  0.00  0.00    +0.000 C 
ATOM     23  C   UNL     1      -6.361   3.072 125.513  0.00  0.00    +0.000 C 
ENDROOT
BRANCH  23  24
ATOM     24  O   UNL     1      -5.109   2.412 125.739  0.00  0.00    +0.000 OA
ATOM     25  H   UNL     1      -5.386   1.474 125.864  0.00  0.00    +0.000 HD
ENDBRANCH  23  24
BRANCH  23  26
ATOM     26  C   UNL     1      -5.759   3.813 127.169  0.00  0.00    +0.000 C 
ATOM     27  O   UNL     1      -6.641   3.981 128.045  0.00  0.00    +0.000 OA
BRANCH  26  28
ATOM     28  C   UNL     1      -4.392   4.785 127.477  0.00  0.00    +0.000 C 
ATOM     29 CL   UNL     1      -2.893   3.863 128.010  0.00  0.00    +0.000 Cl
ENDBRANCH  26  28
ENDBRANCH  23  26
TORSDOF 3
ENDMDL
MODEL 9
REMARK VINA RESULT:      -8.1      6.742      8.438
REMARK  Name = Clobetasone
REMARK  6 active torsions:
REMARK  status: ('A' for Active; 'I' for Inactive)
REMARK    1  A    between atoms: C_2  and  C_3
REMARK    2  A    between atoms: C_17  and  C_18
REMARK    3  A    between atoms: C_24  and  C_25
REMARK    4  A    between atoms: C_26  and  O_27
REMARK    5  A    between atoms: C_26  and  C_28
REMARK    6  A    between atoms: C_28  and  C_30
REMARK                            x       y       z     vdW  Elec       q    Type
REMARK                         _______ _______ _______ _____ _____    ______ ____
ROOT
ATOM      1  C   UNL     1      -9.607   3.982 131.402  0.00  0.00    +0.000 C 
ATOM      2  C   UNL     1      -9.922   3.171 130.142  0.00  0.00    +0.000 C 
ATOM      3  C   UNL     1      -8.674   3.666 132.647  0.00  0.00    +0.000 C 
ATOM      4  C   UNL     1      -7.120   3.568 132.195  0.00  0.00    +0.000 C 
ATOM      5  C   UNL     1      -6.234   4.506 131.098  0.00  0.00    +0.000 C 
ATOM      6  C   UNL     1      -6.196   5.835 131.740  0.00  0.00    +0.000 C 
ATOM      7  C   UNL     1      -5.662   6.764 130.717  0.00  0.00    +0.000 C 
ATOM      8  C   UNL     1      -4.241   6.428 130.815  0.00  0.00    +0.000 C 
ATOM      9  C   UNL     1      -3.267   7.348 130.890  0.00  0.00    +0.000 C 
ATOM     10  C   UNL     1      -3.689   8.191 129.778  0.00  0.00    +0.000 C 
ATOM     11  O   UNL     1      -4.128   9.278 129.909  0.00  0.00    +0.000 OA
ATOM     12  C   UNL     1      -3.418   7.300 128.565  0.00  0.00    +0.000 C 
ATOM     13  C   UNL     1      -3.543   5.896 128.656  0.00  0.00    +0.000 C 
ATOM     14  C   UNL     1      -3.849   5.138 130.168  0.00  0.00    +0.000 C 
ATOM     15  C   UNL     1      -2.757   4.715 131.192  0.00  0.00    +0.000 C 
ATOM     16  C   UNL     1      -4.858   4.050 130.721  0.00  0.00    +0.000 C 
ATOM     17  F   UNL     1      -4.542   3.734 132.046  0.00  0.00    +0.000 F 
ATOM     18  C   UNL     1      -4.856   2.710 130.105  0.00  0.00    +0.000 C 
ATOM     19  O   UNL     1      -3.901   2.144 129.555  0.00  0.00    +0.000 OA
ATOM     20  C   UNL     1      -5.940   1.992 130.778  0.00  0.00    +0.000 C 
ATOM     21  C   UNL     1      -7.482   2.820 131.020  0.00  0.00    +0.000 C 
ATOM     22  C   UNL     1      -8.035   1.228 131.455  0.00  0.00    +0.000 C 
ATOM     23  C   UNL     1      -8.443   4.588 130.768  0.00  0.00    +0.000 C 
ENDROOT
BRANCH  23  24
ATOM     24  O   UNL     1      -8.223   5.185 129.484  0.00  0.00    +0.000 OA
ATOM     25  H   UNL     1      -8.719   6.033 129.559  0.00  0.00    +0.000 HD
ENDBRANCH  23  24
BRANCH  23  26
ATOM     26  C   UNL     1      -9.139   6.356 130.973  0.00  0.00    +0.000 C 
ATOM     27  O   UNL     1      -9.094   6.829 132.134  0.00  0.00    +0.000 OA
BRANCH  26  28
ATOM     28  C   UNL     1     -10.292   7.174 130.019  0.00  0.00    +0.000 C 
ATOM     29 CL   UNL     1     -12.019   6.568 130.207  0.00  0.00    +0.000 Cl
ENDBRANCH  26  28
ENDBRANCH  23  26
TORSDOF 3
ENDMDL
