MODEL 1
REMARK VINA RESULT:      -8.5      0.000      0.000
REMARK  Name = Clocortolone
REMARK  7 active torsions:
REMARK  status: ('A' for Active; 'I' for Inactive)
REMARK    1  A    between atoms: C_4  and  C_5
REMARK    2  A    between atoms: C_6  and  C_7
REMARK    3  A    between atoms: C_7  and  C_9
REMARK    4  A    between atoms: C_9  and  O_10
REMARK    5  A    between atoms: C_11  and  C_12
REMARK    6  A    between atoms: C_14  and  O_15
REMARK    7  A    between atoms: C_29  and  C_30
REMARK                            x       y       z     vdW  Elec       q    Type
REMARK                         _______ _______ _______ _____ _____    ______ ____
ROOT
ATOM      1  C   UNL     1      -5.758  -1.880 124.878  0.00  0.00    +0.000 C 
ATOM      2  C   UNL     1      -6.300  -3.177 124.557  0.00  0.00    +0.000 C 
ATOM      3  C   UNL     1      -7.716  -2.380 124.936  0.00  0.00    +0.000 C 
ATOM      4  C   UNL     1      -9.247  -3.158 125.647  0.00  0.00    +0.000 C 
ATOM      5  C   UNL     1      -7.146  -0.415 124.989  0.00  0.00    +0.000 C 
ATOM      6  C   UNL     1      -7.175  -1.194 123.936  0.00  0.00    +0.000 C 
ATOM      7  C   UNL     1      -6.892  -1.136 122.486  0.00  0.00    +0.000 C 
ATOM      8  C   UNL     1      -8.856  -0.771 124.767  0.00  0.00    +0.000 C 
ATOM      9  C   UNL     1      -8.600  -0.634 126.637  0.00  0.00    +0.000 C 
ATOM     10  C   UNL     1      -7.259  -1.520 127.489  0.00  0.00    +0.000 C 
ATOM     11 CL   UNL     1      -7.097  -3.248 127.011  0.00  0.00    +0.000 Cl
ATOM     12  C   UNL     1      -5.712  -1.498 126.719  0.00  0.00    +0.000 C 
ATOM     13  C   UNL     1      -4.719  -2.540 127.468  0.00  0.00    +0.000 C 
ATOM     14  C   UNL     1      -4.973  -2.553 128.982  0.00  0.00    +0.000 C 
ATOM     15  F   UNL     1      -4.087  -3.450 129.489  0.00  0.00    +0.000 F 
ATOM     16  C   UNL     1      -6.364  -3.030 129.393  0.00  0.00    +0.000 C 
ATOM     17  C   UNL     1      -6.633  -3.981 130.309  0.00  0.00    +0.000 C 
ATOM     18  C   UNL     1      -6.174  -3.143 131.399  0.00  0.00    +0.000 C 
ATOM     19  O   UNL     1      -5.106  -3.285 131.951  0.00  0.00    +0.000 OA
ATOM     20  C   UNL     1      -7.249  -2.113 131.670  0.00  0.00    +0.000 C 
ATOM     21  C   UNL     1      -7.894  -1.614 130.525  0.00  0.00    +0.000 C 
ATOM     22  C   UNL     1      -7.616  -2.210 129.049  0.00  0.00    +0.000 C 
ATOM     23  C   UNL     1      -8.806  -3.401 128.755  0.00  0.00    +0.000 C 
ENDROOT
BRANCH   5  24
ATOM     24  C   UNL     1      -7.576   1.167 124.050  0.00  0.00    +0.000 C 
ATOM     25  O   UNL     1      -6.689   1.967 123.693  0.00  0.00    +0.000 OA
BRANCH  24  26
ATOM     26  C   UNL     1      -9.027   1.699 123.619  0.00  0.00    +0.000 C 
BRANCH  26  27
ATOM     27  O   UNL     1      -9.610   2.505 124.699  0.00  0.00    +0.000 OA
ATOM     28  H   UNL     1      -9.247   3.413 124.639  0.00  0.00    +0.000 HD
ENDBRANCH  26  27
ENDBRANCH  24  26
ENDBRANCH   5  24
BRANCH   9  29
ATOM     29  O   UNL     1      -8.452   0.794 126.891  0.00  0.00    +0.000 OA
ATOM     30  H   UNL     1      -9.110   1.292 126.383  0.00  0.00    +0.000 HD
ENDBRANCH   9  29
TORSDOF 4
ENDMDL
MODEL 2
REMARK VINA RESULT:      -8.5      2.549      6.332
REMARK  Name = Clocortolone
REMARK  7 active torsions:
REMARK  status: ('A' for Active; 'I' for Inactive)
REMARK    1  A    between atoms: C_4  and  C_5
REMARK    2  A    between atoms: C_6  and  C_7
REMARK    3  A    between atoms: C_7  and  C_9
REMARK    4  A    between atoms: C_9  and  O_10
REMARK    5  A    between atoms: C_11  and  C_12
REMARK    6  A    between atoms: C_14  and  O_15
REMARK    7  A    between atoms: C_29  and  C_30
REMARK                            x       y       z     vdW  Elec       q    Type
REMARK                         _______ _______ _______ _____ _____    ______ ____
ROOT
ATOM      1  C   UNL     1      -7.968  -3.107 129.776  0.00  0.00    +0.000 C 
ATOM      2  C   UNL     1      -6.670  -3.736 129.751  0.00  0.00    +0.000 C 
ATOM      3  C   UNL     1      -6.195  -2.136 129.765  0.00  0.00    +0.000 C 
ATOM      4  C   UNL     1      -4.639  -1.455 129.009  0.00  0.00    +0.000 C 
ATOM      5  C   UNL     1      -7.919  -1.141 130.240  0.00  0.00    +0.000 C 
ATOM      6  C   UNL     1      -7.248  -1.959 131.013  0.00  0.00    +0.000 C 
ATOM      7  C   UNL     1      -7.310  -2.518 132.381  0.00  0.00    +0.000 C 
ATOM      8  C   UNL     1      -6.389  -0.314 130.513  0.00  0.00    +0.000 C 
ATOM      9  C   UNL     1      -6.909   0.141 128.752  0.00  0.00    +0.000 C 
ATOM     10  C   UNL     1      -7.429  -1.121 127.548  0.00  0.00    +0.000 C 
ATOM     11 CL   UNL     1      -6.349  -2.559 127.475  0.00  0.00    +0.000 Cl
ATOM     12  C   UNL     1      -8.491  -2.352 128.136  0.00  0.00    +0.000 C 
ATOM     13  C   UNL     1      -8.637  -3.519 127.018  0.00  0.00    +0.000 C 
ATOM     14  C   UNL     1      -8.635  -2.930 125.601  0.00  0.00    +0.000 C 
ATOM     15  F   UNL     1      -8.766  -3.995 124.767  0.00  0.00    +0.000 F 
ATOM     16  C   UNL     1      -7.343  -2.219 125.205  0.00  0.00    +0.000 C 
ATOM     17  C   UNL     1      -6.634  -2.439 124.080  0.00  0.00    +0.000 C 
ATOM     18  C   UNL     1      -7.667  -1.855 123.247  0.00  0.00    +0.000 C 
ATOM     19  O   UNL     1      -8.436  -2.506 122.576  0.00  0.00    +0.000 OA
ATOM     20  C   UNL     1      -7.585  -0.352 123.399  0.00  0.00    +0.000 C 
ATOM     21  C   UNL     1      -7.287   0.097 124.698  0.00  0.00    +0.000 C 
ATOM     22  C   UNL     1      -6.911  -0.918 125.897  0.00  0.00    +0.000 C 
ATOM     23  C   UNL     1      -5.206  -1.035 125.941  0.00  0.00    +0.000 C 
ENDROOT
BRANCH   5  24
ATOM     24  C   UNL     1      -8.522  -0.027 131.642  0.00  0.00    +0.000 C 
ATOM     25  O   UNL     1      -9.733   0.045 131.933  0.00  0.00    +0.000 OA
BRANCH  24  26
ATOM     26  C   UNL     1      -7.652   0.936 132.585  0.00  0.00    +0.000 C 
BRANCH  26  27
ATOM     27  O   UNL     1      -8.507   1.974 133.172  0.00  0.00    +0.000 OA
ATOM     28  H   UNL     1      -8.161   2.851 132.902  0.00  0.00    +0.000 HD
ENDBRANCH  26  27
ENDBRANCH  24  26
ENDBRANCH   5  24
BRANCH   9  29
ATOM     29  O   UNL     1      -7.993   1.103 128.918  0.00  0.00    +0.000 OA
ATOM     30  H   UNL     1      -7.945   1.508 129.797  0.00  0.00    +0.000 HD
ENDBRANCH   9  29
TORSDOF 4
ENDMDL
MODEL 3
REMARK VINA RESULT:      -8.2      2.472      6.843
REMARK  Name = Clocortolone
REMARK  7 active torsions:
REMARK  status: ('A' for Active; 'I' for Inactive)
REMARK    1  A    between atoms: C_4  and  C_5
REMARK    2  A    between atoms: C_6  and  C_7
REMARK    3  A    between atoms: C_7  and  C_9
REMARK    4  A    between atoms: C_9  and  O_10
REMARK    5  A    between atoms: C_11  and  C_12
REMARK    6  A    between atoms: C_14  and  O_15
REMARK    7  A    between atoms: C_29  and  C_30
REMARK                            x       y       z     vdW  Elec       q    Type
REMARK                         _______ _______ _______ _____ _____    ______ ____
ROOT
ATOM      1  C   UNL     1      -6.505  -4.037 130.954  0.00  0.00    +0.000 C 
ATOM      2  C   UNL     1      -5.232  -4.344 130.347  0.00  0.00    +0.000 C 
ATOM      3  C   UNL     1      -5.007  -2.716 130.638  0.00  0.00    +0.000 C 
ATOM      4  C   UNL     1      -3.941  -1.568 129.638  0.00  0.00    +0.000 C 
ATOM      5  C   UNL     1      -6.558  -2.246 131.888  0.00  0.00    +0.000 C 
ATOM      6  C   UNL     1      -5.548  -3.035 132.156  0.00  0.00    +0.000 C 
ATOM      7  C   UNL     1      -5.031  -3.861 133.269  0.00  0.00    +0.000 C 
ATOM      8  C   UNL     1      -5.161  -1.174 131.869  0.00  0.00    +0.000 C 
ATOM      9  C   UNL     1      -6.344  -0.496 130.557  0.00  0.00    +0.000 C 
ATOM     10  C   UNL     1      -7.089  -1.569 129.290  0.00  0.00    +0.000 C 
ATOM     11 CL   UNL     1      -5.924  -2.686 128.493  0.00  0.00    +0.000 Cl
ATOM     12  C   UNL     1      -7.686  -3.098 129.832  0.00  0.00    +0.000 C 
ATOM     13  C   UNL     1      -8.068  -4.015 128.550  0.00  0.00    +0.000 C 
ATOM     14  C   UNL     1      -8.662  -3.164 127.419  0.00  0.00    +0.000 C 
ATOM     15  F   UNL     1      -8.941  -4.038 126.416  0.00  0.00    +0.000 F 
ATOM     16  C   UNL     1      -7.712  -2.118 126.838  0.00  0.00    +0.000 C 
ATOM     17  C   UNL     1      -7.439  -1.942 125.530  0.00  0.00    +0.000 C 
ATOM     18  C   UNL     1      -8.773  -1.444 125.260  0.00  0.00    +0.000 C 
ATOM     19  O   UNL     1      -9.637  -2.098 124.720  0.00  0.00    +0.000 OA
ATOM     20  C   UNL     1      -8.846  -0.023 125.775  0.00  0.00    +0.000 C 
ATOM     21  C   UNL     1      -8.161   0.206 126.982  0.00  0.00    +0.000 C 
ATOM     22  C   UNL     1      -7.239  -0.924 127.679  0.00  0.00    +0.000 C 
ATOM     23  C   UNL     1      -5.637  -0.667 127.143  0.00  0.00    +0.000 C 
ENDROOT
BRANCH   5  24
ATOM     24  C   UNL     1      -6.756  -1.603 133.653  0.00  0.00    +0.000 C 
ATOM     25  O   UNL     1      -7.552  -2.139 134.450  0.00  0.00    +0.000 OA
BRANCH  24  26
ATOM     26  C   UNL     1      -6.011  -0.361 134.343  0.00  0.00    +0.000 C 
BRANCH  26  27
ATOM     27  O   UNL     1      -6.762   0.876 134.098  0.00  0.00    +0.000 OA
ATOM     28  H   UNL     1      -7.085   0.865 133.172  0.00  0.00    +0.000 HD
ENDBRANCH  26  27
ENDBRANCH  24  26
ENDBRANCH   5  24
BRANCH   9  29
ATOM     29  O   UNL     1      -7.413   0.147 131.312  0.00  0.00    +0.000 OA
ATOM     30  H   UNL     1      -8.202   0.241 130.757  0.00  0.00    +0.000 HD
ENDBRANCH   9  29
TORSDOF 4
ENDMDL
MODEL 4
REMARK VINA RESULT:      -8.0      6.678      7.395
REMARK  Name = Clocortolone
REMARK  7 active torsions:
REMARK  status: ('A' for Active; 'I' for Inactive)
REMARK    1  A    between atoms: C_4  and  C_5
REMARK    2  A    between atoms: C_6  and  C_7
REMARK    3  A    between atoms: C_7  and  C_9
REMARK    4  A    between atoms: C_9  and  O_10
REMARK    5  A    between atoms: C_11  and  C_12
REMARK    6  A    between atoms: C_14  and  O_15
REMARK    7  A    between atoms: C_29  and  C_30
REMARK                            x       y       z     vdW  Elec       q    Type
REMARK                         _______ _______ _______ _____ _____    ______ ____
ROOT
ATOM      1  C   UNL     1      -4.131   4.201 126.347  0.00  0.00    +0.000 C 
ATOM      2  C   UNL     1      -3.489   2.933 126.587  0.00  0.00    +0.000 C 
ATOM      3  C   UNL     1      -4.895   2.690 127.452  0.00  0.00    +0.000 C 
ATOM      4  C   UNL     1      -5.078   1.613 128.956  0.00  0.00    +0.000 C 
ATOM      5  C   UNL     1      -6.091   4.236 126.842  0.00  0.00    +0.000 C 
ATOM      6  C   UNL     1      -5.671   3.234 126.110  0.00  0.00    +0.000 C 
ATOM      7  C   UNL     1      -5.791   2.724 124.726  0.00  0.00    +0.000 C 
ATOM      8  C   UNL     1      -6.867   2.828 127.559  0.00  0.00    +0.000 C 
ATOM      9  C   UNL     1      -6.509   4.004 128.998  0.00  0.00    +0.000 C 
ATOM     10  C   UNL     1      -4.872   4.761 129.235  0.00  0.00    +0.000 C 
ATOM     11 CL   UNL     1      -3.498   3.608 129.079  0.00  0.00    +0.000 Cl
ATOM     12  C   UNL     1      -4.096   5.374 127.817  0.00  0.00    +0.000 C 
ATOM     13  C   UNL     1      -2.561   5.766 128.166  0.00  0.00    +0.000 C 
ATOM     14  C   UNL     1      -2.449   6.352 129.581  0.00  0.00    +0.000 C 
ATOM     15  F   UNL     1      -1.131   6.640 129.749  0.00  0.00    +0.000 F 
ATOM     16  C   UNL     1      -2.835   5.391 130.704  0.00  0.00    +0.000 C 
ATOM     17  C   UNL     1      -2.094   5.117 131.796  0.00  0.00    +0.000 C 
ATOM     18  C   UNL     1      -2.297   6.446 132.338  0.00  0.00    +0.000 C 
ATOM     19  O   UNL     1      -1.457   7.317 132.310  0.00  0.00    +0.000 OA
ATOM     20  C   UNL     1      -3.701   6.504 132.898  0.00  0.00    +0.000 C 
ATOM     21  C   UNL     1      -4.669   5.816 132.145  0.00  0.00    +0.000 C 
ATOM     22  C   UNL     1      -4.282   4.906 130.868  0.00  0.00    +0.000 C 
ATOM     23  C   UNL     1      -4.104   3.301 131.429  0.00  0.00    +0.000 C 
ENDROOT
BRANCH   5  24
ATOM     24  C   UNL     1      -7.746   4.426 125.953  0.00  0.00    +0.000 C 
ATOM     25  O   UNL     1      -8.594   5.257 126.337  0.00  0.00    +0.000 OA
BRANCH  24  26
ATOM     26  C   UNL     1      -8.289   3.605 124.685  0.00  0.00    +0.000 C 
BRANCH  26  27
ATOM     27  O   UNL     1      -9.454   2.799 125.068  0.00  0.00    +0.000 OA
ATOM     28  H   UNL     1      -9.391   1.930 124.620  0.00  0.00    +0.000 HD
ENDBRANCH  26  27
ENDBRANCH  24  26
ENDBRANCH   5  24
BRANCH   9  29
ATOM     29  O   UNL     1      -7.501   5.066 128.869  0.00  0.00    +0.000 OA
ATOM     30  H   UNL     1      -7.485   5.633 129.655  0.00  0.00    +0.000 HD
ENDBRANCH   9  29
TORSDOF 4
ENDMDL
MODEL 5
REMARK VINA RESULT:      -7.8      7.484      9.216
REMARK  Name = Clocortolone
REMARK  7 active torsions:
REMARK  status: ('A' for Active; 'I' for Inactive)
REMARK    1  A    between atoms: C_4  and  C_5
REMARK    2  A    between atoms: C_6  and  C_7
REMARK    3  A    between atoms: C_7  and  C_9
REMARK    4  A    between atoms: C_9  and  O_10
REMARK    5  A    between atoms: C_11  and  C_12
REMARK    6  A    between atoms: C_14  and  O_15
REMARK    7  A    between atoms: C_29  and  C_30
REMARK                            x       y       z     vdW  Elec       q    Type
REMARK                         _______ _______ _______ _____ _____    ______ ____
ROOT
ATOM      1  C   UNL     1      -7.829   3.013 130.502  0.00  0.00    +0.000 C 
ATOM      2  C   UNL     1      -7.200   2.528 131.706  0.00  0.00    +0.000 C 
ATOM      3  C   UNL     1      -7.730   4.011 132.258  0.00  0.00    +0.000 C 
ATOM      4  C   UNL     1      -6.924   5.031 133.586  0.00  0.00    +0.000 C 
ATOM      5  C   UNL     1      -9.017   4.624 130.788  0.00  0.00    +0.000 C 
ATOM      6  C   UNL     1      -9.178   3.604 131.596  0.00  0.00    +0.000 C 
ATOM      7  C   UNL     1     -10.163   2.538 131.877  0.00  0.00    +0.000 C 
ATOM      8  C   UNL     1      -9.174   5.359 132.380  0.00  0.00    +0.000 C 
ATOM      9  C   UNL     1      -7.961   6.456 131.427  0.00  0.00    +0.000 C 
ATOM     10  C   UNL     1      -6.541   5.759 130.528  0.00  0.00    +0.000 C 
ATOM     11 CL   UNL     1      -5.602   4.541 131.463  0.00  0.00    +0.000 Cl
ATOM     12  C   UNL     1      -6.844   4.335 129.597  0.00  0.00    +0.000 C 
ATOM     13  C   UNL     1      -5.435   3.712 129.086  0.00  0.00    +0.000 C 
ATOM     14  C   UNL     1      -4.435   4.823 128.736  0.00  0.00    +0.000 C 
ATOM     15  F   UNL     1      -3.311   4.180 128.323  0.00  0.00    +0.000 F 
ATOM     16  C   UNL     1      -4.027   5.710 129.911  0.00  0.00    +0.000 C 
ATOM     17  C   UNL     1      -2.763   6.007 130.272  0.00  0.00    +0.000 C 
ATOM     18  C   UNL     1      -2.552   6.814 129.087  0.00  0.00    +0.000 C 
ATOM     19  O   UNL     1      -1.912   6.445 128.129  0.00  0.00    +0.000 OA
ATOM     20  C   UNL     1      -3.271   8.129 129.294  0.00  0.00    +0.000 C 
ATOM     21  C   UNL     1      -4.507   8.032 129.958  0.00  0.00    +0.000 C 
ATOM     22  C   UNL     1      -5.041   6.643 130.588  0.00  0.00    +0.000 C 
ATOM     23  C   UNL     1      -4.568   6.621 132.230  0.00  0.00    +0.000 C 
ENDROOT
BRANCH   5  24
ATOM     24  C   UNL     1     -10.855   5.037 130.654  0.00  0.00    +0.000 C 
ATOM     25  O   UNL     1     -11.587   4.459 129.826  0.00  0.00    +0.000 OA
BRANCH  24  26
ATOM     26  C   UNL     1     -11.690   6.118 131.495  0.00  0.00    +0.000 C 
BRANCH  26  27
ATOM     27  O   UNL     1     -11.775   7.380 130.750  0.00  0.00    +0.000 OA
ATOM     28  H   UNL     1     -11.029   7.417 130.116  0.00  0.00    +0.000 HD
ENDBRANCH  26  27
ENDBRANCH  24  26
ENDBRANCH   5  24
BRANCH   9  29
ATOM     29  O   UNL     1      -8.790   7.201 130.485  0.00  0.00    +0.000 OA
ATOM     30  H   UNL     1      -8.952   8.095 130.822  0.00  0.00    +0.000 HD
ENDBRANCH   9  29
TORSDOF 4
ENDMDL
MODEL 6
REMARK VINA RESULT:      -7.7      2.758      4.388
REMARK  Name = Clocortolone
REMARK  7 active torsions:
REMARK  status: ('A' for Active; 'I' for Inactive)
REMARK    1  A    between atoms: C_4  and  C_5
REMARK    2  A    between atoms: C_6  and  C_7
REMARK    3  A    between atoms: C_7  and  C_9
REMARK    4  A    between atoms: C_9  and  O_10
REMARK    5  A    between atoms: C_11  and  C_12
REMARK    6  A    between atoms: C_14  and  O_15
REMARK    7  A    between atoms: C_29  and  C_30
REMARK                            x       y       z     vdW  Elec       q    Type
REMARK                         _______ _______ _______ _____ _____    ______ ____
ROOT
ATOM      1  C   UNL     1      -7.142  -3.354 128.614  0.00  0.00    +0.000 C 
ATOM      2  C   UNL     1      -8.391  -3.143 129.304  0.00  0.00    +0.000 C 
ATOM      3  C   UNL     1      -7.765  -1.599 129.403  0.00  0.00    +0.000 C 
ATOM      4  C   UNL     1      -8.099  -0.373 130.760  0.00  0.00    +0.000 C 
ATOM      5  C   UNL     1      -6.197  -1.646 128.089  0.00  0.00    +0.000 C 
ATOM      6  C   UNL     1      -7.470  -1.746 127.794  0.00  0.00    +0.000 C 
ATOM      7  C   UNL     1      -8.340  -1.903 126.609  0.00  0.00    +0.000 C 
ATOM      8  C   UNL     1      -6.861  -0.075 128.523  0.00  0.00    +0.000 C 
ATOM      9  C   UNL     1      -5.489  -0.416 129.781  0.00  0.00    +0.000 C 
ATOM     10  C   UNL     1      -5.380  -1.996 130.677  0.00  0.00    +0.000 C 
ATOM     11 CL   UNL     1      -6.945  -2.564 131.363  0.00  0.00    +0.000 Cl
ATOM     12  C   UNL     1      -5.641  -3.428 129.744  0.00  0.00    +0.000 C 
ATOM     13  C   UNL     1      -5.766  -4.705 130.737  0.00  0.00    +0.000 C 
ATOM     14  C   UNL     1      -4.816  -4.569 131.935  0.00  0.00    +0.000 C 
ATOM     15  F   UNL     1      -5.011  -5.689 132.680  0.00  0.00    +0.000 F 
ATOM     16  C   UNL     1      -5.104  -3.379 132.848  0.00  0.00    +0.000 C 
ATOM     17  C   UNL     1      -5.242  -3.428 134.188  0.00  0.00    +0.000 C 
ATOM     18  C   UNL     1      -3.838  -3.731 134.379  0.00  0.00    +0.000 C 
ATOM     19  O   UNL     1      -3.419  -4.835 134.645  0.00  0.00    +0.000 OA
ATOM     20  C   UNL     1      -3.061  -2.449 134.176  0.00  0.00    +0.000 C 
ATOM     21  C   UNL     1      -3.544  -1.619 133.149  0.00  0.00    +0.000 C 
ATOM     22  C   UNL     1      -4.914  -1.937 132.354  0.00  0.00    +0.000 C 
ATOM     23  C   UNL     1      -6.164  -1.077 133.142  0.00  0.00    +0.000 C 
ENDROOT
BRANCH   5  24
ATOM     24  C   UNL     1      -5.713  -0.759 126.492  0.00  0.00    +0.000 C 
ATOM     25  O   UNL     1      -5.349  -1.397 125.484  0.00  0.00    +0.000 OA
BRANCH  24  26
ATOM     26  C   UNL     1      -5.676   0.820 126.210  0.00  0.00    +0.000 C 
BRANCH  26  27
ATOM     27  O   UNL     1      -4.329   1.345 126.464  0.00  0.00    +0.000 OA
ATOM     28  H   UNL     1      -4.402   2.097 127.089  0.00  0.00    +0.000 HD
ENDBRANCH  26  27
ENDBRANCH  24  26
ENDBRANCH   5  24
BRANCH   9  29
ATOM     29  O   UNL     1      -4.247  -0.209 129.046  0.00  0.00    +0.000 OA
ATOM     30  H   UNL     1      -3.867  -1.062 128.789  0.00  0.00    +0.000 HD
ENDBRANCH   9  29
TORSDOF 4
ENDMDL
MODEL 7
REMARK VINA RESULT:      -7.7      4.559      6.670
REMARK  Name = Clocortolone
REMARK  7 active torsions:
REMARK  status: ('A' for Active; 'I' for Inactive)
REMARK    1  A    between atoms: C_4  and  C_5
REMARK    2  A    between atoms: C_6  and  C_7
REMARK    3  A    between atoms: C_7  and  C_9
REMARK    4  A    between atoms: C_9  and  O_10
REMARK    5  A    between atoms: C_11  and  C_12
REMARK    6  A    between atoms: C_14  and  O_15
REMARK    7  A    between atoms: C_29  and  C_30
REMARK                            x       y       z     vdW  Elec       q    Type
REMARK                         _______ _______ _______ _____ _____    ______ ____
ROOT
ATOM      1  C   UNL     1      -9.161   2.446 132.488  0.00  0.00    +0.000 C 
ATOM      2  C   UNL     1      -8.031   2.699 133.348  0.00  0.00    +0.000 C 
ATOM      3  C   UNL     1      -7.497   3.468 131.967  0.00  0.00    +0.000 C 
ATOM      4  C   UNL     1      -5.723   3.670 131.450  0.00  0.00    +0.000 C 
ATOM      5  C   UNL     1      -9.179   3.564 130.805  0.00  0.00    +0.000 C 
ATOM      6  C   UNL     1      -8.974   4.186 131.940  0.00  0.00    +0.000 C 
ATOM      7  C   UNL     1      -9.667   5.125 132.849  0.00  0.00    +0.000 C 
ATOM      8  C   UNL     1      -7.867   4.683 130.449  0.00  0.00    +0.000 C 
ATOM      9  C   UNL     1      -7.531   3.148 129.394  0.00  0.00    +0.000 C 
ATOM     10  C   UNL     1      -7.562   1.472 130.102  0.00  0.00    +0.000 C 
ATOM     11 CL   UNL     1      -6.664   1.311 131.654  0.00  0.00    +0.000 Cl
ATOM     12  C   UNL     1      -8.859   1.120 131.189  0.00  0.00    +0.000 C 
ATOM     13  C   UNL     1      -8.585  -0.305 131.916  0.00  0.00    +0.000 C 
ATOM     14  C   UNL     1      -7.921  -1.298 130.951  0.00  0.00    +0.000 C 
ATOM     15  F   UNL     1      -7.750  -2.439 131.669  0.00  0.00    +0.000 F 
ATOM     16  C   UNL     1      -6.539  -0.881 130.454  0.00  0.00    +0.000 C 
ATOM     17  C   UNL     1      -5.427  -1.643 130.482  0.00  0.00    +0.000 C 
ATOM     18  C   UNL     1      -5.948  -2.539 129.469  0.00  0.00    +0.000 C 
ATOM     19  O   UNL     1      -6.390  -3.640 129.711  0.00  0.00    +0.000 OA
ATOM     20  C   UNL     1      -5.833  -1.839 128.133  0.00  0.00    +0.000 C 
ATOM     21  C   UNL     1      -6.102  -0.459 128.162  0.00  0.00    +0.000 C 
ATOM     22  C   UNL     1      -6.361   0.341 129.541  0.00  0.00    +0.000 C 
ATOM     23  C   UNL     1      -4.860   0.993 130.033  0.00  0.00    +0.000 C 
ENDROOT
BRANCH   5  24
ATOM     24  C   UNL     1     -10.252   4.923 130.049  0.00  0.00    +0.000 C 
ATOM     25  O   UNL     1     -11.495   4.821 130.020  0.00  0.00    +0.000 OA
BRANCH  24  26
ATOM     26  C   UNL     1      -9.777   6.293 129.364  0.00  0.00    +0.000 C 
BRANCH  26  27
ATOM     27  O   UNL     1      -9.621   6.106 127.917  0.00  0.00    +0.000 OA
ATOM     28  H   UNL     1      -9.236   6.924 127.538  0.00  0.00    +0.000 HD
ENDBRANCH  26  27
ENDBRANCH  24  26
ENDBRANCH   5  24
BRANCH   9  29
ATOM     29  O   UNL     1      -8.507   3.216 128.312  0.00  0.00    +0.000 OA
ATOM     30  H   UNL     1      -8.448   4.074 127.866  0.00  0.00    +0.000 HD
ENDBRANCH   9  29
TORSDOF 4
ENDMDL
MODEL 8
REMARK VINA RESULT:      -7.7      3.905      7.129
REMARK  Name = Clocortolone
REMARK  7 active torsions:
REMARK  status: ('A' for Active; 'I' for Inactive)
REMARK    1  A    between atoms: C_4  and  C_5
REMARK    2  A    between atoms: C_6  and  C_7
REMARK    3  A    between atoms: C_7  and  C_9
REMARK    4  A    between atoms: C_9  and  O_10
REMARK    5  A    between atoms: C_11  and  C_12
REMARK    6  A    between atoms: C_14  and  O_15
REMARK    7  A    between atoms: C_29  and  C_30
REMARK                            x       y       z     vdW  Elec       q    Type
REMARK                         _______ _______ _______ _____ _____    ______ ____
ROOT
ATOM      1  C   UNL     1      -7.511  -2.644 131.083  0.00  0.00    +0.000 C 
ATOM      2  C   UNL     1      -8.091  -2.880 129.783  0.00  0.00    +0.000 C 
ATOM      3  C   UNL     1      -6.619  -2.249 129.312  0.00  0.00    +0.000 C 
ATOM      4  C   UNL     1      -6.295  -1.290 127.753  0.00  0.00    +0.000 C 
ATOM      5  C   UNL     1      -5.524  -2.274 131.041  0.00  0.00    +0.000 C 
ATOM      6  C   UNL     1      -5.958  -3.315 130.373  0.00  0.00    +0.000 C 
ATOM      7  C   UNL     1      -5.918  -4.791 130.441  0.00  0.00    +0.000 C 
ATOM      8  C   UNL     1      -4.652  -2.197 129.514  0.00  0.00    +0.000 C 
ATOM      9  C   UNL     1      -4.948  -0.400 130.025  0.00  0.00    +0.000 C 
ATOM     10  C   UNL     1      -6.591   0.194 130.536  0.00  0.00    +0.000 C 
ATOM     11 CL   UNL     1      -7.931  -0.324 129.451  0.00  0.00    +0.000 Cl
ATOM     12  C   UNL     1      -7.485  -0.835 131.598  0.00  0.00    +0.000 C 
ATOM     13  C   UNL     1      -9.004  -0.284 131.735  0.00  0.00    +0.000 C 
ATOM     14  C   UNL     1      -9.038   1.251 131.726  0.00  0.00    +0.000 C 
ATOM     15  F   UNL     1     -10.349   1.585 131.849  0.00  0.00    +0.000 F 
ATOM     16  C   UNL     1      -8.541   1.895 130.433  0.00  0.00    +0.000 C 
ATOM     17  C   UNL     1      -9.193   2.832 129.717  0.00  0.00    +0.000 C 
ATOM     18  C   UNL     1      -9.000   3.834 130.747  0.00  0.00    +0.000 C 
ATOM     19  O   UNL     1      -9.870   4.188 131.510  0.00  0.00    +0.000 OA
ATOM     20  C   UNL     1      -7.563   4.301 130.668  0.00  0.00    +0.000 C 
ATOM     21  C   UNL     1      -6.626   3.293 130.379  0.00  0.00    +0.000 C 
ATOM     22  C   UNL     1      -7.069   1.784 130.008  0.00  0.00    +0.000 C 
ATOM     23  C   UNL     1      -7.152   1.690 128.303  0.00  0.00    +0.000 C 
ENDROOT
BRANCH   5  24
ATOM     24  C   UNL     1      -3.942  -3.104 131.654  0.00  0.00    +0.000 C 
ATOM     25  O   UNL     1      -2.901  -3.097 130.967  0.00  0.00    +0.000 OA
BRANCH  24  26
ATOM     26  C   UNL     1      -3.711  -3.900 133.028  0.00  0.00    +0.000 C 
BRANCH  26  27
ATOM     27  O   UNL     1      -2.407  -4.574 133.007  0.00  0.00    +0.000 OA
ATOM     28  H   UNL     1      -1.839  -4.130 132.343  0.00  0.00    +0.000 HD
ENDBRANCH  26  27
ENDBRANCH  24  26
ENDBRANCH   5  24
BRANCH   9  29
ATOM     29  O   UNL     1      -4.006  -0.159 131.112  0.00  0.00    +0.000 OA
ATOM     30  H   UNL     1      -4.482  -0.080 131.953  0.00  0.00    +0.000 HD
ENDBRANCH   9  29
TORSDOF 4
ENDMDL
MODEL 9
REMARK VINA RESULT:      -7.6      3.966      6.226
REMARK  Name = Clocortolone
REMARK  7 active torsions:
REMARK  status: ('A' for Active; 'I' for Inactive)
REMARK    1  A    between atoms: C_4  and  C_5
REMARK    2  A    between atoms: C_6  and  C_7
REMARK    3  A    between atoms: C_7  and  C_9
REMARK    4  A    between atoms: C_9  and  O_10
REMARK    5  A    between atoms: C_11  and  C_12
REMARK    6  A    between atoms: C_14  and  O_15
REMARK    7  A    between atoms: C_29  and  C_30
REMARK                            x       y       z     vdW  Elec       q    Type
REMARK                         _______ _______ _______ _____ _____    ______ ____
ROOT
ATOM      1  C   UNL     1      -7.820   2.917 127.501  0.00  0.00    +0.000 C 
ATOM      2  C   UNL     1      -8.332   2.176 128.627  0.00  0.00    +0.000 C 
ATOM      3  C   UNL     1      -6.715   1.789 128.763  0.00  0.00    +0.000 C 
ATOM      4  C   UNL     1      -6.028   0.212 129.468  0.00  0.00    +0.000 C 
ATOM      5  C   UNL     1      -5.809   3.116 127.495  0.00  0.00    +0.000 C 
ATOM      6  C   UNL     1      -6.440   3.401 128.607  0.00  0.00    +0.000 C 
ATOM      7  C   UNL     1      -6.785   4.577 129.434  0.00  0.00    +0.000 C 
ATOM      8  C   UNL     1      -4.823   2.370 128.749  0.00  0.00    +0.000 C 
ATOM      9  C   UNL     1      -4.689   1.229 127.245  0.00  0.00    +0.000 C 
ATOM     10  C   UNL     1      -6.160   0.662 126.336  0.00  0.00    +0.000 C 
ATOM     11 CL   UNL     1      -7.495   0.071 127.389  0.00  0.00    +0.000 Cl
ATOM     12  C   UNL     1      -7.372   1.852 126.017  0.00  0.00    +0.000 C 
ATOM     13  C   UNL     1      -8.705   1.127 125.443  0.00  0.00    +0.000 C 
ATOM     14  C   UNL     1      -8.342  -0.057 124.535  0.00  0.00    +0.000 C 
ATOM     15  F   UNL     1      -9.529  -0.572 124.120  0.00  0.00    +0.000 F 
ATOM     16  C   UNL     1      -7.592  -1.191 125.232  0.00  0.00    +0.000 C 
ATOM     17  C   UNL     1      -7.920  -2.497 125.188  0.00  0.00    +0.000 C 
ATOM     18  C   UNL     1      -7.561  -2.599 123.787  0.00  0.00    +0.000 C 
ATOM     19  O   UNL     1      -8.370  -2.636 122.888  0.00  0.00    +0.000 OA
ATOM     20  C   UNL     1      -6.051  -2.637 123.702  0.00  0.00    +0.000 C 
ATOM     21  C   UNL     1      -5.385  -1.802 124.617  0.00  0.00    +0.000 C 
ATOM     22  C   UNL     1      -6.168  -0.986 125.770  0.00  0.00    +0.000 C 
ATOM     23  C   UNL     1      -6.132  -1.949 127.181  0.00  0.00    +0.000 C 
ENDROOT
BRANCH   5  24
ATOM     24  C   UNL     1      -4.549   4.516 127.640  0.00  0.00    +0.000 C 
ATOM     25  O   UNL     1      -4.766   5.634 127.132  0.00  0.00    +0.000 OA
BRANCH  24  26
ATOM     26  C   UNL     1      -3.115   4.487 128.360  0.00  0.00    +0.000 C 
BRANCH  26  27
ATOM     27  O   UNL     1      -2.066   4.182 127.380  0.00  0.00    +0.000 OA
ATOM     28  H   UNL     1      -1.450   3.532 127.777  0.00  0.00    +0.000 HD
ENDBRANCH  26  27
ENDBRANCH  24  26
ENDBRANCH   5  24
BRANCH   9  29
ATOM     29  O   UNL     1      -3.809   1.932 126.318  0.00  0.00    +0.000 OA
ATOM     30  H   UNL     1      -2.898   1.618 126.423  0.00  0.00    +0.000 HD
ENDBRANCH   9  29
TORSDOF 4
ENDMDL
