MODEL 1
REMARK VINA RESULT:      -5.1      0.000      0.000
REMARK  Name = Clodronic acid
REMARK  6 active torsions:
REMARK  status: ('A' for Active; 'I' for Inactive)
REMARK    1  A    between atoms: O_1  and  P_2
REMARK    2  A    between atoms: P_2  and  O_3
REMARK    3  A    between atoms: P_2  and  C_5
REMARK    4  A    between atoms: C_5  and  P_8
REMARK    5  A    between atoms: P_8  and  O_9
REMARK    6  A    between atoms: P_8  and  O_10
REMARK                            x       y       z     vdW  Elec       q    Type
REMARK                         _______ _______ _______ _____ _____    ______ ____
ROOT
ATOM      1  C   UNL     1     -12.492   7.626 128.558  0.00  0.00    +0.000 C 
ATOM      2 CL   UNL     1     -13.737   6.873 127.528  0.00  0.00    +0.000 Cl
ATOM      3 CL   UNL     1     -12.991   9.306 128.943  0.00  0.00    +0.000 Cl
ENDROOT
BRANCH   1   4
ATOM      4  P   UNL     1     -12.237   6.781 130.160  0.00  0.00    +0.000 P 
ATOM      5  O   UNL     1     -12.089   5.401 129.519  0.00  0.00    +0.000 OA
BRANCH   4   6
ATOM      6  O   UNL     1     -11.996   5.981 131.676  0.00  0.00    +0.000 OA
ATOM      7  H   UNL     1     -12.577   5.186 131.638  0.00  0.00    +0.000 HD
ENDBRANCH   4   6
BRANCH   4   8
ATOM      8  O   UNL     1     -10.742   7.362 130.490  0.00  0.00    +0.000 OA
ATOM      9  H   UNL     1     -10.342   6.784 131.185  0.00  0.00    +0.000 HD
ENDBRANCH   4   8
ENDBRANCH   1   4
BRANCH   1  10
ATOM     10  P   UNL     1     -10.912   7.717 127.562  0.00  0.00    +0.000 P 
ATOM     11  O   UNL     1     -11.063   7.774 126.070  0.00  0.00    +0.000 OA
BRANCH  10  12
ATOM     12  O   UNL     1     -10.016   8.938 128.120  0.00  0.00    +0.000 OA
ATOM     13  H   UNL     1      -9.699   8.820 129.048  0.00  0.00    +0.000 HD
ENDBRANCH  10  12
BRANCH  10  14
ATOM     14  O   UNL     1     -10.079   6.426 128.050  0.00  0.00    +0.000 OA
ATOM     15  H   UNL     1      -9.718   5.889 127.312  0.00  0.00    +0.000 HD
ENDBRANCH  10  14
ENDBRANCH   1  10
TORSDOF 6
ENDMDL
MODEL 2
REMARK VINA RESULT:      -4.6      2.068      2.372
REMARK  Name = Clodronic acid
REMARK  6 active torsions:
REMARK  status: ('A' for Active; 'I' for Inactive)
REMARK    1  A    between atoms: O_1  and  P_2
REMARK    2  A    between atoms: P_2  and  O_3
REMARK    3  A    between atoms: P_2  and  C_5
REMARK    4  A    between atoms: C_5  and  P_8
REMARK    5  A    between atoms: P_8  and  O_9
REMARK    6  A    between atoms: P_8  and  O_10
REMARK                            x       y       z     vdW  Elec       q    Type
REMARK                         _______ _______ _______ _____ _____    ______ ____
ROOT
ATOM      1  C   UNL     1     -11.024   6.957 129.673  0.00  0.00    +0.000 C 
ATOM      2 CL   UNL     1     -12.233   8.044 130.405  0.00  0.00    +0.000 Cl
ATOM      3 CL   UNL     1      -9.389   7.447 130.227  0.00  0.00    +0.000 Cl
ENDROOT
BRANCH   1   4
ATOM      4  P   UNL     1     -11.223   5.198 130.137  0.00  0.00    +0.000 P 
ATOM      5  O   UNL     1      -9.860   4.796 129.572  0.00  0.00    +0.000 OA
BRANCH   4   6
ATOM      6  O   UNL     1     -11.410   3.535 130.575  0.00  0.00    +0.000 OA
ATOM      7  H   UNL     1     -11.079   3.479 131.502  0.00  0.00    +0.000 HD
ENDBRANCH   4   6
BRANCH   4   8
ATOM      8  O   UNL     1     -11.081   5.372 131.758  0.00  0.00    +0.000 OA
ATOM      9  H   UNL     1     -11.871   4.950 132.175  0.00  0.00    +0.000 HD
ENDBRANCH   4   8
ENDBRANCH   1   4
BRANCH   1  10
ATOM     10  P   UNL     1     -11.093   7.199 127.820  0.00  0.00    +0.000 P 
ATOM     11  O   UNL     1     -12.325   6.698 127.125  0.00  0.00    +0.000 OA
BRANCH  10  12
ATOM     12  O   UNL     1     -10.809   8.753 127.488  0.00  0.00    +0.000 OA
ATOM     13  H   UNL     1     -11.449   9.157 126.854  0.00  0.00    +0.000 HD
ENDBRANCH  10  12
BRANCH  10  14
ATOM     14  O   UNL     1      -9.749   6.482 127.293  0.00  0.00    +0.000 OA
ATOM     15  H   UNL     1      -8.951   6.707 127.819  0.00  0.00    +0.000 HD
ENDBRANCH  10  14
ENDBRANCH   1  10
TORSDOF 6
ENDMDL
MODEL 3
REMARK VINA RESULT:      -4.5      1.653      2.300
REMARK  Name = Clodronic acid
REMARK  6 active torsions:
REMARK  status: ('A' for Active; 'I' for Inactive)
REMARK    1  A    between atoms: O_1  and  P_2
REMARK    2  A    between atoms: P_2  and  O_3
REMARK    3  A    between atoms: P_2  and  C_5
REMARK    4  A    between atoms: C_5  and  P_8
REMARK    5  A    between atoms: P_8  and  O_9
REMARK    6  A    between atoms: P_8  and  O_10
REMARK                            x       y       z     vdW  Elec       q    Type
REMARK                         _______ _______ _______ _____ _____    ______ ____
ROOT
ATOM      1  C   UNL     1     -11.981   6.717 129.534  0.00  0.00    +0.000 C 
ATOM      2 CL   UNL     1     -13.267   6.603 128.305  0.00  0.00    +0.000 Cl
ATOM      3 CL   UNL     1     -12.561   7.739 130.891  0.00  0.00    +0.000 Cl
ENDROOT
BRANCH   1   4
ATOM      4  P   UNL     1     -11.501   5.110 130.265  0.00  0.00    +0.000 P 
ATOM      5  O   UNL     1     -10.212   5.015 129.450  0.00  0.00    +0.000 OA
BRANCH   4   6
ATOM      6  O   UNL     1     -11.048   3.590 130.956  0.00  0.00    +0.000 OA
ATOM      7  H   UNL     1     -10.396   3.817 131.660  0.00  0.00    +0.000 HD
ENDBRANCH   4   6
BRANCH   4   8
ATOM      8  O   UNL     1     -11.128   5.644 131.767  0.00  0.00    +0.000 OA
ATOM      9  H   UNL     1     -11.276   4.896 132.396  0.00  0.00    +0.000 HD
ENDBRANCH   4   8
ENDBRANCH   1   4
BRANCH   1  10
ATOM     10  P   UNL     1     -10.523   7.587 128.751  0.00  0.00    +0.000 P 
ATOM     11  O   UNL     1      -9.343   7.849 129.640  0.00  0.00    +0.000 OA
BRANCH  10  12
ATOM     12  O   UNL     1     -10.098   6.786 127.414  0.00  0.00    +0.000 OA
ATOM     13  H   UNL     1     -10.106   5.803 127.509  0.00  0.00    +0.000 HD
ENDBRANCH  10  12
BRANCH  10  14
ATOM     14  O   UNL     1     -11.162   8.940 128.154  0.00  0.00    +0.000 OA
ATOM     15  H   UNL     1     -10.523   9.488 127.649  0.00  0.00    +0.000 HD
ENDBRANCH  10  14
ENDBRANCH   1  10
TORSDOF 6
ENDMDL
MODEL 4
REMARK VINA RESULT:      -4.5      2.541      3.102
REMARK  Name = Clodronic acid
REMARK  6 active torsions:
REMARK  status: ('A' for Active; 'I' for Inactive)
REMARK    1  A    between atoms: O_1  and  P_2
REMARK    2  A    between atoms: P_2  and  O_3
REMARK    3  A    between atoms: P_2  and  C_5
REMARK    4  A    between atoms: C_5  and  P_8
REMARK    5  A    between atoms: P_8  and  O_9
REMARK    6  A    between atoms: P_8  and  O_10
REMARK                            x       y       z     vdW  Elec       q    Type
REMARK                         _______ _______ _______ _____ _____    ______ ____
ROOT
ATOM      1  C   UNL     1     -10.447   6.444 129.941  0.00  0.00    +0.000 C 
ATOM      2 CL   UNL     1      -8.982   7.120 130.699  0.00  0.00    +0.000 Cl
ATOM      3 CL   UNL     1     -10.302   4.656 129.884  0.00  0.00    +0.000 Cl
ENDROOT
BRANCH   1   4
ATOM      4  P   UNL     1     -11.995   6.810 130.846  0.00  0.00    +0.000 P 
ATOM      5  O   UNL     1     -11.286   6.956 132.193  0.00  0.00    +0.000 OA
BRANCH   4   6
ATOM      6  O   UNL     1     -13.458   7.156 131.702  0.00  0.00    +0.000 OA
ATOM      7  H   UNL     1     -13.799   7.987 131.295  0.00  0.00    +0.000 HD
ENDBRANCH   4   6
BRANCH   4   8
ATOM      8  O   UNL     1     -12.266   8.306 130.239  0.00  0.00    +0.000 OA
ATOM      9  H   UNL     1     -11.562   8.905 130.590  0.00  0.00    +0.000 HD
ENDBRANCH   4   8
ENDBRANCH   1   4
BRANCH   1  10
ATOM     10  P   UNL     1     -10.511   7.065 128.178  0.00  0.00    +0.000 P 
ATOM     11  O   UNL     1     -10.241   8.527 127.973  0.00  0.00    +0.000 OA
BRANCH  10  12
ATOM     12  O   UNL     1      -9.545   6.145 127.268  0.00  0.00    +0.000 OA
ATOM     13  H   UNL     1      -9.993   5.364 126.861  0.00  0.00    +0.000 HD
ENDBRANCH  10  12
BRANCH  10  14
ATOM     14  O   UNL     1     -11.978   6.629 127.674  0.00  0.00    +0.000 OA
ATOM     15  H   UNL     1     -12.126   5.658 127.687  0.00  0.00    +0.000 HD
ENDBRANCH  10  14
ENDBRANCH   1  10
TORSDOF 6
ENDMDL
MODEL 5
REMARK VINA RESULT:      -4.4      1.679      3.785
REMARK  Name = Clodronic acid
REMARK  6 active torsions:
REMARK  status: ('A' for Active; 'I' for Inactive)
REMARK    1  A    between atoms: O_1  and  P_2
REMARK    2  A    between atoms: P_2  and  O_3
REMARK    3  A    between atoms: P_2  and  C_5
REMARK    4  A    between atoms: C_5  and  P_8
REMARK    5  A    between atoms: P_8  and  O_9
REMARK    6  A    between atoms: P_8  and  O_10
REMARK                            x       y       z     vdW  Elec       q    Type
REMARK                         _______ _______ _______ _____ _____    ______ ____
ROOT
ATOM      1  C   UNL     1     -11.412   7.817 129.188  0.00  0.00    +0.000 C 
ATOM      2 CL   UNL     1      -9.695   8.277 129.312  0.00  0.00    +0.000 Cl
ATOM      3 CL   UNL     1     -12.428   9.240 129.595  0.00  0.00    +0.000 Cl
ENDROOT
BRANCH   1   4
ATOM      4  P   UNL     1     -11.923   7.278 127.516  0.00  0.00    +0.000 P 
ATOM      5  O   UNL     1     -10.638   6.485 127.274  0.00  0.00    +0.000 OA
BRANCH   4   6
ATOM      6  O   UNL     1     -12.405   6.767 125.935  0.00  0.00    +0.000 OA
ATOM      7  H   UNL     1     -11.767   7.203 125.322  0.00  0.00    +0.000 HD
ENDBRANCH   4   6
BRANCH   4   8
ATOM      8  O   UNL     1     -13.101   6.233 127.963  0.00  0.00    +0.000 OA
ATOM      9  H   UNL     1     -13.957   6.727 127.960  0.00  0.00    +0.000 HD
ENDBRANCH   4   8
ENDBRANCH   1   4
BRANCH   1  10
ATOM     10  P   UNL     1     -11.740   6.499 130.473  0.00  0.00    +0.000 P 
ATOM     11  O   UNL     1     -11.663   5.075 130.006  0.00  0.00    +0.000 OA
BRANCH  10  12
ATOM     12  O   UNL     1     -10.783   6.764 131.745  0.00  0.00    +0.000 OA
ATOM     13  H   UNL     1     -11.167   6.480 132.610  0.00  0.00    +0.000 HD
ENDBRANCH  10  12
BRANCH  10  14
ATOM     14  O   UNL     1     -13.195   6.883 131.049  0.00  0.00    +0.000 OA
ATOM     15  H   UNL     1     -13.194   7.684 131.618  0.00  0.00    +0.000 HD
ENDBRANCH  10  14
ENDBRANCH   1  10
TORSDOF 6
ENDMDL
MODEL 6
REMARK VINA RESULT:      -4.4      2.995      3.602
REMARK  Name = Clodronic acid
REMARK  6 active torsions:
REMARK  status: ('A' for Active; 'I' for Inactive)
REMARK    1  A    between atoms: O_1  and  P_2
REMARK    2  A    between atoms: P_2  and  O_3
REMARK    3  A    between atoms: P_2  and  C_5
REMARK    4  A    between atoms: C_5  and  P_8
REMARK    5  A    between atoms: P_8  and  O_9
REMARK    6  A    between atoms: P_8  and  O_10
REMARK                            x       y       z     vdW  Elec       q    Type
REMARK                         _______ _______ _______ _____ _____    ______ ____
ROOT
ATOM      1  C   UNL     1     -10.153   6.313 130.629  0.00  0.00    +0.000 C 
ATOM      2 CL   UNL     1     -11.217   6.423 132.055  0.00  0.00    +0.000 Cl
ATOM      3 CL   UNL     1      -8.562   7.040 131.031  0.00  0.00    +0.000 Cl
ENDROOT
BRANCH   1   4
ATOM      4  P   UNL     1      -9.815   4.601 130.078  0.00  0.00    +0.000 P 
ATOM      5  O   UNL     1     -11.296   4.225 130.022  0.00  0.00    +0.000 OA
BRANCH   4   6
ATOM      6  O   UNL     1      -9.497   2.982 129.557  0.00  0.00    +0.000 OA
ATOM      7  H   UNL     1      -9.554   2.437 130.377  0.00  0.00    +0.000 HD
ENDBRANCH   4   6
BRANCH   4   8
ATOM      8  O   UNL     1      -9.310   4.945 128.559  0.00  0.00    +0.000 OA
ATOM      9  H   UNL     1      -8.728   5.743 128.610  0.00  0.00    +0.000 HD
ENDBRANCH   4   8
ENDBRANCH   1   4
BRANCH   1  10
ATOM     10  P   UNL     1     -10.920   7.342 129.268  0.00  0.00    +0.000 P 
ATOM     11  O   UNL     1      -9.975   8.137 128.416  0.00  0.00    +0.000 OA
BRANCH  10  12
ATOM     12  O   UNL     1     -11.875   6.394 128.377  0.00  0.00    +0.000 OA
ATOM     13  H   UNL     1     -12.166   6.796 127.523  0.00  0.00    +0.000 HD
ENDBRANCH  10  12
BRANCH  10  14
ATOM     14  O   UNL     1     -11.983   8.270 130.046  0.00  0.00    +0.000 OA
ATOM     15  H   UNL     1     -12.663   7.761 130.539  0.00  0.00    +0.000 HD
ENDBRANCH  10  14
ENDBRANCH   1  10
TORSDOF 6
ENDMDL
MODEL 7
REMARK VINA RESULT:      -4.3      2.657      3.684
REMARK  Name = Clodronic acid
REMARK  6 active torsions:
REMARK  status: ('A' for Active; 'I' for Inactive)
REMARK    1  A    between atoms: O_1  and  P_2
REMARK    2  A    between atoms: P_2  and  O_3
REMARK    3  A    between atoms: P_2  and  C_5
REMARK    4  A    between atoms: C_5  and  P_8
REMARK    5  A    between atoms: P_8  and  O_9
REMARK    6  A    between atoms: P_8  and  O_10
REMARK                            x       y       z     vdW  Elec       q    Type
REMARK                         _______ _______ _______ _____ _____    ______ ____
ROOT
ATOM      1  C   UNL     1     -11.353   6.079 130.308  0.00  0.00    +0.000 C 
ATOM      2 CL   UNL     1     -11.579   6.619 131.991  0.00  0.00    +0.000 Cl
ATOM      3 CL   UNL     1     -11.389   4.286 130.260  0.00  0.00    +0.000 Cl
ENDROOT
BRANCH   1   4
ATOM      4  P   UNL     1     -12.656   6.653 129.158  0.00  0.00    +0.000 P 
ATOM      5  O   UNL     1     -12.580   8.101 129.642  0.00  0.00    +0.000 OA
BRANCH   4   6
ATOM      6  O   UNL     1     -13.887   7.196 128.071  0.00  0.00    +0.000 OA
ATOM      7  H   UNL     1     -14.549   6.465 128.052  0.00  0.00    +0.000 HD
ENDBRANCH   4   6
BRANCH   4   8
ATOM      8  O   UNL     1     -11.804   6.526 127.766  0.00  0.00    +0.000 OA
ATOM      9  H   UNL     1     -12.449   6.533 127.017  0.00  0.00    +0.000 HD
ENDBRANCH   4   8
ENDBRANCH   1   4
BRANCH   1  10
ATOM     10  P   UNL     1      -9.652   6.628 129.759  0.00  0.00    +0.000 P 
ATOM     11  O   UNL     1      -8.598   6.704 130.824  0.00  0.00    +0.000 OA
BRANCH  10  12
ATOM     12  O   UNL     1      -9.184   5.708 128.518  0.00  0.00    +0.000 OA
ATOM     13  H   UNL     1      -9.594   5.953 127.653  0.00  0.00    +0.000 HD
ENDBRANCH  10  12
BRANCH  10  14
ATOM     14  O   UNL     1      -9.922   8.051 129.052  0.00  0.00    +0.000 OA
ATOM     15  H   UNL     1     -10.726   8.508 129.382  0.00  0.00    +0.000 HD
ENDBRANCH  10  14
ENDBRANCH   1  10
TORSDOF 6
ENDMDL
MODEL 8
REMARK VINA RESULT:      -4.3      9.956     10.976
REMARK  Name = Clodronic acid
REMARK  6 active torsions:
REMARK  status: ('A' for Active; 'I' for Inactive)
REMARK    1  A    between atoms: O_1  and  P_2
REMARK    2  A    between atoms: P_2  and  O_3
REMARK    3  A    between atoms: P_2  and  C_5
REMARK    4  A    between atoms: C_5  and  P_8
REMARK    5  A    between atoms: P_8  and  O_9
REMARK    6  A    between atoms: P_8  and  O_10
REMARK                            x       y       z     vdW  Elec       q    Type
REMARK                         _______ _______ _______ _____ _____    ______ ____
ROOT
ATOM      1  C   UNL     1      -8.093  -1.451 123.939  0.00  0.00    +0.000 C 
ATOM      2 CL   UNL     1      -7.197  -1.980 122.491  0.00  0.00    +0.000 Cl
ATOM      3 CL   UNL     1      -6.920  -1.036 125.231  0.00  0.00    +0.000 Cl
ENDROOT
BRANCH   1   4
ATOM      4  P   UNL     1      -9.123   0.039 123.677  0.00  0.00    +0.000 P 
ATOM      5  O   UNL     1     -10.035  -0.652 122.662  0.00  0.00    +0.000 OA
BRANCH   4   6
ATOM      6  O   UNL     1     -10.098   1.447 123.429  0.00  0.00    +0.000 OA
ATOM      7  H   UNL     1      -9.478   2.206 123.540  0.00  0.00    +0.000 HD
ENDBRANCH   4   6
BRANCH   4   8
ATOM      8  O   UNL     1      -9.879   0.051 125.129  0.00  0.00    +0.000 OA
ATOM      9  H   UNL     1      -9.298   0.535 125.765  0.00  0.00    +0.000 HD
ENDBRANCH   4   8
ENDBRANCH   1   4
BRANCH   1  10
ATOM     10  P   UNL     1      -9.109  -2.901 124.538  0.00  0.00    +0.000 P 
ATOM     11  O   UNL     1      -9.871  -2.703 125.815  0.00  0.00    +0.000 OA
BRANCH  10  12
ATOM     12  O   UNL     1     -10.071  -3.392 123.338  0.00  0.00    +0.000 OA
ATOM     13  H   UNL     1     -11.010  -3.097 123.423  0.00  0.00    +0.000 HD
ENDBRANCH  10  12
BRANCH  10  14
ATOM     14  O   UNL     1      -8.039  -4.102 124.635  0.00  0.00    +0.000 OA
ATOM     15  H   UNL     1      -7.130  -3.841 124.368  0.00  0.00    +0.000 HD
ENDBRANCH  10  14
ENDBRANCH   1  10
TORSDOF 6
ENDMDL
MODEL 9
REMARK VINA RESULT:      -4.3      1.614      2.148
REMARK  Name = Clodronic acid
REMARK  6 active torsions:
REMARK  status: ('A' for Active; 'I' for Inactive)
REMARK    1  A    between atoms: O_1  and  P_2
REMARK    2  A    between atoms: P_2  and  O_3
REMARK    3  A    between atoms: P_2  and  C_5
REMARK    4  A    between atoms: C_5  and  P_8
REMARK    5  A    between atoms: P_8  and  O_9
REMARK    6  A    between atoms: P_8  and  O_10
REMARK                            x       y       z     vdW  Elec       q    Type
REMARK                         _______ _______ _______ _____ _____    ______ ____
ROOT
ATOM      1  C   UNL     1     -11.569   7.153 129.413  0.00  0.00    +0.000 C 
ATOM      2 CL   UNL     1     -12.774   5.841 129.321  0.00  0.00    +0.000 Cl
ATOM      3 CL   UNL     1     -12.398   8.674 129.882  0.00  0.00    +0.000 Cl
ENDROOT
BRANCH   1   4
ATOM      4  P   UNL     1     -10.254   6.874 130.654  0.00  0.00    +0.000 P 
ATOM      5  O   UNL     1     -10.187   5.371 130.388  0.00  0.00    +0.000 OA
BRANCH   4   6
ATOM      6  O   UNL     1      -9.011   6.611 131.829  0.00  0.00    +0.000 OA
ATOM      7  H   UNL     1      -8.645   7.507 132.014  0.00  0.00    +0.000 HD
ENDBRANCH   4   6
BRANCH   4   8
ATOM      8  O   UNL     1      -9.025   7.599 129.852  0.00  0.00    +0.000 OA
ATOM      9  H   UNL     1      -8.465   6.887 129.455  0.00  0.00    +0.000 HD
ENDBRANCH   4   8
ENDBRANCH   1   4
BRANCH   1  10
ATOM     10  P   UNL     1     -10.864   7.396 127.698  0.00  0.00    +0.000 P 
ATOM     11  O   UNL     1      -9.724   6.501 127.310  0.00  0.00    +0.000 OA
BRANCH  10  12
ATOM     12  O   UNL     1     -12.070   7.326 126.626  0.00  0.00    +0.000 OA
ATOM     13  H   UNL     1     -12.035   8.026 125.929  0.00  0.00    +0.000 HD
ENDBRANCH  10  12
BRANCH  10  14
ATOM     14  O   UNL     1     -10.465   8.957 127.668  0.00  0.00    +0.000 OA
ATOM     15  H   UNL     1     -10.320   9.308 126.763  0.00  0.00    +0.000 HD
ENDBRANCH  10  14
ENDBRANCH   1  10
TORSDOF 6
ENDMDL
