MODEL 1
REMARK VINA RESULT:      -9.8      0.000      0.000
REMARK  Name = Clofazimine
REMARK  6 active torsions:
REMARK  status: ('A' for Active; 'I' for Inactive)
REMARK    1  A    between atoms: C_1  and  C_2
REMARK    2  A    between atoms: C_2  and  C_3
REMARK    3  A    between atoms: C_2  and  N_4
REMARK    4  A    between atoms: N_8  and  C_9
REMARK    5  A    between atoms: C_25  and  N_26
REMARK    6  A    between atoms: N_26  and  C_27
REMARK                            x       y       z     vdW  Elec       q    Type
REMARK                         _______ _______ _______ _____ _____    ______ ____
ROOT
ATOM      1  N   UNL     1      -7.094  -1.129 124.334  0.00  0.00    +0.000 NA
ATOM      2  C   UNL     1      -7.673  -0.326 125.163  0.00  0.00    +0.000 A 
ATOM      3  C   UNL     1      -7.681  -0.623 126.583  0.00  0.00    +0.000 A 
ATOM      4  C   UNL     1      -7.913   0.244 127.574  0.00  0.00    +0.000 A 
ATOM      5  N   UNL     1      -7.697  -0.056 128.918  0.00  0.00    +0.000 N 
ATOM      6  C   UNL     1      -8.137   0.901 129.883  0.00  0.00    +0.000 A 
ATOM      7  C   UNL     1      -8.742   2.102 129.452  0.00  0.00    +0.000 A 
ATOM      8  C   UNL     1      -9.184   3.008 130.421  0.00  0.00    +0.000 A 
ATOM      9  C   UNL     1      -9.027   2.738 131.788  0.00  0.00    +0.000 A 
ATOM     10  C   UNL     1      -8.415   1.567 132.208  0.00  0.00    +0.000 A 
ATOM     11  C   UNL     1      -7.959   0.667 131.260  0.00  0.00    +0.000 A 
ATOM     12  N   UNL     1      -8.908   2.433 128.081  0.00  0.00    +0.000 NA
ATOM     13  C   UNL     1      -8.505   1.560 127.199  0.00  0.00    +0.000 A 
ATOM     14  C   UNL     1      -8.691   1.825 125.733  0.00  0.00    +0.000 A 
ATOM     15  C   UNL     1      -8.345   0.969 124.743  0.00  0.00    +0.000 A 
ENDROOT
BRANCH   5  16
ATOM     16  C   UNL     1      -7.155  -1.329 129.300  0.00  0.00    +0.000 A 
ATOM     17  C   UNL     1      -8.010  -2.417 129.510  0.00  0.00    +0.000 A 
ATOM     18  C   UNL     1      -7.512  -3.621 130.000  0.00  0.00    +0.000 A 
ATOM     19  C   UNL     1      -6.137  -3.806 130.108  0.00  0.00    +0.000 A 
ATOM     20 CL   UNL     1      -5.523  -5.286 130.727  0.00  0.00    +0.000 Cl
ATOM     21  C   UNL     1      -5.258  -2.788 129.754  0.00  0.00    +0.000 A 
ATOM     22  C   UNL     1      -5.772  -1.527 129.450  0.00  0.00    +0.000 A 
ENDBRANCH   5  16
BRANCH   1  24
ATOM     23  C   UNL     1      -7.450  -3.531 124.378  0.00  0.00    +0.000 C 
ATOM     24  C   UNL     1      -6.495  -2.401 124.718  0.00  0.00    +0.000 C 
ATOM     25  C   UNL     1      -5.238  -2.622 123.900  0.00  0.00    +0.000 C 
ENDBRANCH   1  24
BRANCH  15  26
ATOM     26  N   UNL     1      -8.566   1.216 123.381  0.00  0.00    +0.000 N 
ATOM     27  H   UNL     1      -9.352   0.742 122.956  0.00  0.00    +0.000 HD
BRANCH  26  28
ATOM     28  C   UNL     1      -8.016   2.277 122.626  0.00  0.00    +0.000 A 
ATOM     29  C   UNL     1      -8.816   3.000 121.726  0.00  0.00    +0.000 A 
ATOM     30  C   UNL     1      -8.243   3.828 120.757  0.00  0.00    +0.000 A 
ATOM     31  C   UNL     1      -6.864   3.993 120.716  0.00  0.00    +0.000 A 
ATOM     32 CL   UNL     1      -6.141   4.836 119.399  0.00  0.00    +0.000 Cl
ATOM     33  C   UNL     1      -6.065   3.404 121.693  0.00  0.00    +0.000 A 
ATOM     34  C   UNL     1      -6.635   2.520 122.624  0.00  0.00    +0.000 A 
ENDBRANCH  26  28
ENDBRANCH  15  26
TORSDOF 4
ENDMDL
MODEL 2
REMARK VINA RESULT:      -9.4      2.799      4.429
REMARK  Name = Clofazimine
REMARK  6 active torsions:
REMARK  status: ('A' for Active; 'I' for Inactive)
REMARK    1  A    between atoms: C_1  and  C_2
REMARK    2  A    between atoms: C_2  and  C_3
REMARK    3  A    between atoms: C_2  and  N_4
REMARK    4  A    between atoms: N_8  and  C_9
REMARK    5  A    between atoms: C_25  and  N_26
REMARK    6  A    between atoms: N_26  and  C_27
REMARK                            x       y       z     vdW  Elec       q    Type
REMARK                         _______ _______ _______ _____ _____    ______ ____
ROOT
ATOM      1  N   UNL     1      -4.332   3.354 126.489  0.00  0.00    +0.000 NA
ATOM      2  C   UNL     1      -5.147   2.434 126.095  0.00  0.00    +0.000 A 
ATOM      3  C   UNL     1      -5.269   1.197 126.844  0.00  0.00    +0.000 A 
ATOM      4  C   UNL     1      -6.283   0.327 126.781  0.00  0.00    +0.000 A 
ATOM      5  N   UNL     1      -6.441  -0.728 127.678  0.00  0.00    +0.000 N 
ATOM      6  C   UNL     1      -7.474  -1.675 127.401  0.00  0.00    +0.000 A 
ATOM      7  C   UNL     1      -8.296  -1.502 126.265  0.00  0.00    +0.000 A 
ATOM      8  C   UNL     1      -9.282  -2.460 126.007  0.00  0.00    +0.000 A 
ATOM      9  C   UNL     1      -9.459  -3.562 126.856  0.00  0.00    +0.000 A 
ATOM     10  C   UNL     1      -8.663  -3.718 127.981  0.00  0.00    +0.000 A 
ATOM     11  C   UNL     1      -7.693  -2.771 128.258  0.00  0.00    +0.000 A 
ATOM     12  N   UNL     1      -8.172  -0.395 125.385  0.00  0.00    +0.000 NA
ATOM     13  C   UNL     1      -7.229   0.471 125.638  0.00  0.00    +0.000 A 
ATOM     14  C   UNL     1      -7.012   1.642 124.723  0.00  0.00    +0.000 A 
ATOM     15  C   UNL     1      -6.040   2.571 124.875  0.00  0.00    +0.000 A 
ENDROOT
BRANCH   5  16
ATOM     16  C   UNL     1      -5.523  -0.899 128.767  0.00  0.00    +0.000 A 
ATOM     17  C   UNL     1      -4.598  -1.950 128.742  0.00  0.00    +0.000 A 
ATOM     18  C   UNL     1      -3.788  -2.203 129.845  0.00  0.00    +0.000 A 
ATOM     19  C   UNL     1      -3.763  -1.301 130.905  0.00  0.00    +0.000 A 
ATOM     20 CL   UNL     1      -2.773  -1.620 132.272  0.00  0.00    +0.000 Cl
ATOM     21  C   UNL     1      -4.561  -0.162 130.880  0.00  0.00    +0.000 A 
ATOM     22  C   UNL     1      -5.506  -0.021 129.864  0.00  0.00    +0.000 A 
ENDBRANCH   5  16
BRANCH   1  24
ATOM     23  C   UNL     1      -1.996   3.167 127.127  0.00  0.00    +0.000 C 
ATOM     24  C   UNL     1      -3.430   3.211 127.624  0.00  0.00    +0.000 C 
ATOM     25  C   UNL     1      -3.555   4.434 128.512  0.00  0.00    +0.000 C 
ENDBRANCH   1  24
BRANCH  15  26
ATOM     26  N   UNL     1      -5.826   3.634 123.986  0.00  0.00    +0.000 N 
ATOM     27  H   UNL     1      -5.212   4.372 124.302  0.00  0.00    +0.000 HD
BRANCH  26  28
ATOM     28  C   UNL     1      -6.114   3.634 122.602  0.00  0.00    +0.000 A 
ATOM     29  C   UNL     1      -5.142   4.037 121.673  0.00  0.00    +0.000 A 
ATOM     30  C   UNL     1      -5.488   4.343 120.354  0.00  0.00    +0.000 A 
ATOM     31  C   UNL     1      -6.802   4.188 119.930  0.00  0.00    +0.000 A 
ATOM     32 CL   UNL     1      -7.275   4.763 118.376  0.00  0.00    +0.000 Cl
ATOM     33  C   UNL     1      -7.751   3.648 120.794  0.00  0.00    +0.000 A 
ATOM     34  C   UNL     1      -7.417   3.404 122.137  0.00  0.00    +0.000 A 
ENDBRANCH  26  28
ENDBRANCH  15  26
TORSDOF 4
ENDMDL
MODEL 3
REMARK VINA RESULT:      -9.1      5.704      8.258
REMARK  Name = Clofazimine
REMARK  6 active torsions:
REMARK  status: ('A' for Active; 'I' for Inactive)
REMARK    1  A    between atoms: C_1  and  C_2
REMARK    2  A    between atoms: C_2  and  C_3
REMARK    3  A    between atoms: C_2  and  N_4
REMARK    4  A    between atoms: N_8  and  C_9
REMARK    5  A    between atoms: C_25  and  N_26
REMARK    6  A    between atoms: N_26  and  C_27
REMARK                            x       y       z     vdW  Elec       q    Type
REMARK                         _______ _______ _______ _____ _____    ______ ____
ROOT
ATOM      1  N   UNL     1      -8.646   4.583 128.078  0.00  0.00    +0.000 NA
ATOM      2  C   UNL     1      -8.223   4.763 129.284  0.00  0.00    +0.000 A 
ATOM      3  C   UNL     1      -6.813   4.611 129.594  0.00  0.00    +0.000 A 
ATOM      4  C   UNL     1      -6.180   5.090 130.670  0.00  0.00    +0.000 A 
ATOM      5  N   UNL     1      -4.793   5.094 130.802  0.00  0.00    +0.000 N 
ATOM      6  C   UNL     1      -4.255   5.486 132.067  0.00  0.00    +0.000 A 
ATOM      7  C   UNL     1      -5.128   5.870 133.109  0.00  0.00    +0.000 A 
ATOM      8  C   UNL     1      -4.572   6.224 134.342  0.00  0.00    +0.000 A 
ATOM      9  C   UNL     1      -3.184   6.208 134.542  0.00  0.00    +0.000 A 
ATOM     10  C   UNL     1      -2.329   5.849 133.510  0.00  0.00    +0.000 A 
ATOM     11  C   UNL     1      -2.863   5.510 132.279  0.00  0.00    +0.000 A 
ATOM     12  N   UNL     1      -6.538   5.923 132.955  0.00  0.00    +0.000 NA
ATOM     13  C   UNL     1      -7.030   5.565 131.800  0.00  0.00    +0.000 A 
ATOM     14  C   UNL     1      -8.515   5.554 131.581  0.00  0.00    +0.000 A 
ATOM     15  C   UNL     1      -9.125   5.163 130.438  0.00  0.00    +0.000 A 
ENDROOT
BRANCH   5  16
ATOM     16  C   UNL     1      -3.961   4.613 129.736  0.00  0.00    +0.000 A 
ATOM     17  C   UNL     1      -3.245   5.521 128.947  0.00  0.00    +0.000 A 
ATOM     18  C   UNL     1      -2.535   5.080 127.834  0.00  0.00    +0.000 A 
ATOM     19  C   UNL     1      -2.382   3.715 127.608  0.00  0.00    +0.000 A 
ATOM     20 CL   UNL     1      -1.518   3.170 126.228  0.00  0.00    +0.000 Cl
ATOM     21  C   UNL     1      -2.956   2.789 128.473  0.00  0.00    +0.000 A 
ATOM     22  C   UNL     1      -3.823   3.240 129.469  0.00  0.00    +0.000 A 
ENDBRANCH   5  16
BRANCH   1  24
ATOM     23  C   UNL     1      -8.054   2.672 126.700  0.00  0.00    +0.000 C 
ATOM     24  C   UNL     1      -7.800   4.143 126.976  0.00  0.00    +0.000 C 
ATOM     25  C   UNL     1      -8.188   4.903 125.722  0.00  0.00    +0.000 C 
ENDBRANCH   1  24
BRANCH  15  26
ATOM     26  N   UNL     1     -10.515   5.119 130.267  0.00  0.00    +0.000 N 
ATOM     27  H   UNL     1     -10.976   4.255 130.523  0.00  0.00    +0.000 HD
BRANCH  26  28
ATOM     28  C   UNL     1     -11.369   6.230 130.082  0.00  0.00    +0.000 A 
ATOM     29  C   UNL     1     -11.255   7.031 128.934  0.00  0.00    +0.000 A 
ATOM     30  C   UNL     1     -11.858   8.291 128.871  0.00  0.00    +0.000 A 
ATOM     31  C   UNL     1     -12.635   8.739 129.933  0.00  0.00    +0.000 A 
ATOM     32 CL   UNL     1     -13.199  10.367 129.953  0.00  0.00    +0.000 Cl
ATOM     33  C   UNL     1     -12.882   7.899 131.016  0.00  0.00    +0.000 A 
ATOM     34  C   UNL     1     -12.223   6.662 131.107  0.00  0.00    +0.000 A 
ENDBRANCH  26  28
ENDBRANCH  15  26
TORSDOF 4
ENDMDL
MODEL 4
REMARK VINA RESULT:      -9.0      1.994      2.094
REMARK  Name = Clofazimine
REMARK  6 active torsions:
REMARK  status: ('A' for Active; 'I' for Inactive)
REMARK    1  A    between atoms: C_1  and  C_2
REMARK    2  A    between atoms: C_2  and  C_3
REMARK    3  A    between atoms: C_2  and  N_4
REMARK    4  A    between atoms: N_8  and  C_9
REMARK    5  A    between atoms: C_25  and  N_26
REMARK    6  A    between atoms: N_26  and  C_27
REMARK                            x       y       z     vdW  Elec       q    Type
REMARK                         _______ _______ _______ _____ _____    ______ ____
ROOT
ATOM      1  N   UNL     1      -7.575  -1.308 124.375  0.00  0.00    +0.000 NA
ATOM      2  C   UNL     1      -7.316  -0.277 125.108  0.00  0.00    +0.000 A 
ATOM      3  C   UNL     1      -6.867  -0.449 126.477  0.00  0.00    +0.000 A 
ATOM      4  C   UNL     1      -6.239   0.463 127.227  0.00  0.00    +0.000 A 
ATOM      5  N   UNL     1      -5.647   0.167 128.454  0.00  0.00    +0.000 N 
ATOM      6  C   UNL     1      -5.152   1.263 129.225  0.00  0.00    +0.000 A 
ATOM      7  C   UNL     1      -5.257   2.578 128.719  0.00  0.00    +0.000 A 
ATOM      8  C   UNL     1      -4.786   3.631 129.509  0.00  0.00    +0.000 A 
ATOM      9  C   UNL     1      -4.216   3.394 130.768  0.00  0.00    +0.000 A 
ATOM     10  C   UNL     1      -4.097   2.100 131.253  0.00  0.00    +0.000 A 
ATOM     11  C   UNL     1      -4.545   1.045 130.477  0.00  0.00    +0.000 A 
ATOM     12  N   UNL     1      -5.806   2.872 127.444  0.00  0.00    +0.000 NA
ATOM     13  C   UNL     1      -6.258   1.871 126.739  0.00  0.00    +0.000 A 
ATOM     14  C   UNL     1      -6.893   2.115 125.400  0.00  0.00    +0.000 A 
ATOM     15  C   UNL     1      -7.426   1.153 124.612  0.00  0.00    +0.000 A 
ENDROOT
BRANCH   5  16
ATOM     16  C   UNL     1      -5.645  -1.178 128.953  0.00  0.00    +0.000 A 
ATOM     17  C   UNL     1      -6.761  -1.669 129.641  0.00  0.00    +0.000 A 
ATOM     18  C   UNL     1      -6.725  -2.926 130.238  0.00  0.00    +0.000 A 
ATOM     19  C   UNL     1      -5.648  -3.774 129.998  0.00  0.00    +0.000 A 
ATOM     20 CL   UNL     1      -5.596  -5.319 130.746  0.00  0.00    +0.000 Cl
ATOM     21  C   UNL     1      -4.596  -3.364 129.186  0.00  0.00    +0.000 A 
ATOM     22  C   UNL     1      -4.552  -2.039 128.753  0.00  0.00    +0.000 A 
ENDBRANCH   5  16
BRANCH   1  24
ATOM     23  C   UNL     1      -8.768  -3.424 124.393  0.00  0.00    +0.000 C 
ATOM     24  C   UNL     1      -7.527  -2.682 124.858  0.00  0.00    +0.000 C 
ATOM     25  C   UNL     1      -6.334  -3.383 124.238  0.00  0.00    +0.000 C 
ENDBRANCH   1  24
BRANCH  15  26
ATOM     26  N   UNL     1      -8.054   1.405 123.384  0.00  0.00    +0.000 N 
ATOM     27  H   UNL     1      -8.955   0.969 123.237  0.00  0.00    +0.000 HD
BRANCH  26  28
ATOM     28  C   UNL     1      -7.723   2.435 122.473  0.00  0.00    +0.000 A 
ATOM     29  C   UNL     1      -8.729   3.104 121.759  0.00  0.00    +0.000 A 
ATOM     30  C   UNL     1      -8.421   3.891 120.646  0.00  0.00    +0.000 A 
ATOM     31  C   UNL     1      -7.095   4.070 120.271  0.00  0.00    +0.000 A 
ATOM     32 CL   UNL     1      -6.724   4.857 118.784  0.00  0.00    +0.000 Cl
ATOM     33  C   UNL     1      -6.075   3.538 121.054  0.00  0.00    +0.000 A 
ATOM     34  C   UNL     1      -6.387   2.693 122.133  0.00  0.00    +0.000 A 
ENDBRANCH  26  28
ENDBRANCH  15  26
TORSDOF 4
ENDMDL
MODEL 5
REMARK VINA RESULT:      -8.9      2.695      7.465
REMARK  Name = Clofazimine
REMARK  6 active torsions:
REMARK  status: ('A' for Active; 'I' for Inactive)
REMARK    1  A    between atoms: C_1  and  C_2
REMARK    2  A    between atoms: C_2  and  C_3
REMARK    3  A    between atoms: C_2  and  N_4
REMARK    4  A    between atoms: N_8  and  C_9
REMARK    5  A    between atoms: C_25  and  N_26
REMARK    6  A    between atoms: N_26  and  C_27
REMARK                            x       y       z     vdW  Elec       q    Type
REMARK                         _______ _______ _______ _____ _____    ______ ____
ROOT
ATOM      1  N   UNL     1      -7.544  -1.864 129.996  0.00  0.00    +0.000 NA
ATOM      2  C   UNL     1      -7.629  -0.770 129.316  0.00  0.00    +0.000 A 
ATOM      3  C   UNL     1      -7.242  -0.747 127.918  0.00  0.00    +0.000 A 
ATOM      4  C   UNL     1      -7.591   0.173 127.012  0.00  0.00    +0.000 A 
ATOM      5  N   UNL     1      -7.365   0.023 125.645  0.00  0.00    +0.000 N 
ATOM      6  C   UNL     1      -7.640   1.148 124.808  0.00  0.00    +0.000 A 
ATOM      7  C   UNL     1      -8.142   2.338 125.378  0.00  0.00    +0.000 A 
ATOM      8  C   UNL     1      -8.378   3.430 124.536  0.00  0.00    +0.000 A 
ATOM      9  C   UNL     1      -8.130   3.347 123.158  0.00  0.00    +0.000 A 
ATOM     10  C   UNL     1      -7.655   2.170 122.599  0.00  0.00    +0.000 A 
ATOM     11  C   UNL     1      -7.432   1.077 123.417  0.00  0.00    +0.000 A 
ATOM     12  N   UNL     1      -8.429   2.470 126.763  0.00  0.00    +0.000 NA
ATOM     13  C   UNL     1      -8.178   1.442 127.528  0.00  0.00    +0.000 A 
ATOM     14  C   UNL     1      -8.415   1.526 129.008  0.00  0.00    +0.000 A 
ATOM     15  C   UNL     1      -8.151   0.535 129.890  0.00  0.00    +0.000 A 
ENDROOT
BRANCH   5  16
ATOM     16  C   UNL     1      -6.774  -1.180 125.134  0.00  0.00    +0.000 A 
ATOM     17  C   UNL     1      -7.588  -2.267 124.792  0.00  0.00    +0.000 A 
ATOM     18  C   UNL     1      -7.022  -3.481 124.415  0.00  0.00    +0.000 A 
ATOM     19  C   UNL     1      -5.650  -3.565 124.198  0.00  0.00    +0.000 A 
ATOM     20 CL   UNL     1      -4.949  -5.067 123.746  0.00  0.00    +0.000 Cl
ATOM     21  C   UNL     1      -4.837  -2.451 124.381  0.00  0.00    +0.000 A 
ATOM     22  C   UNL     1      -5.386  -1.299 124.943  0.00  0.00    +0.000 A 
ENDBRANCH   5  16
BRANCH   1  24
ATOM     23  C   UNL     1      -6.374  -3.903 130.608  0.00  0.00    +0.000 C 
ATOM     24  C   UNL     1      -6.992  -3.107 129.472  0.00  0.00    +0.000 C 
ATOM     25  C   UNL     1      -8.119  -3.947 128.904  0.00  0.00    +0.000 C 
ENDBRANCH   1  24
BRANCH  15  26
ATOM     26  N   UNL     1      -8.339   0.648 131.275  0.00  0.00    +0.000 N 
ATOM     27  H   UNL     1      -8.303  -0.211 131.808  0.00  0.00    +0.000 HD
BRANCH  26  28
ATOM     28  C   UNL     1      -8.258   1.838 132.034  0.00  0.00    +0.000 A 
ATOM     29  C   UNL     1      -7.010   2.409 132.331  0.00  0.00    +0.000 A 
ATOM     30  C   UNL     1      -6.883   3.387 133.321  0.00  0.00    +0.000 A 
ATOM     31  C   UNL     1      -8.012   3.852 133.982  0.00  0.00    +0.000 A 
ATOM     32 CL   UNL     1      -7.840   4.895 135.343  0.00  0.00    +0.000 Cl
ATOM     33  C   UNL     1      -9.275   3.407 133.598  0.00  0.00    +0.000 A 
ATOM     34  C   UNL     1      -9.396   2.377 132.651  0.00  0.00    +0.000 A 
ENDBRANCH  26  28
ENDBRANCH  15  26
TORSDOF 4
ENDMDL
MODEL 6
REMARK VINA RESULT:      -8.8      4.655      5.698
REMARK  Name = Clofazimine
REMARK  6 active torsions:
REMARK  status: ('A' for Active; 'I' for Inactive)
REMARK    1  A    between atoms: C_1  and  C_2
REMARK    2  A    between atoms: C_2  and  C_3
REMARK    3  A    between atoms: C_2  and  N_4
REMARK    4  A    between atoms: N_8  and  C_9
REMARK    5  A    between atoms: C_25  and  N_26
REMARK    6  A    between atoms: N_26  and  C_27
REMARK                            x       y       z     vdW  Elec       q    Type
REMARK                         _______ _______ _______ _____ _____    ______ ____
ROOT
ATOM      1  N   UNL     1      -4.012   3.291 126.490  0.00  0.00    +0.000 NA
ATOM      2  C   UNL     1      -5.208   3.422 126.959  0.00  0.00    +0.000 A 
ATOM      3  C   UNL     1      -5.411   3.836 128.335  0.00  0.00    +0.000 A 
ATOM      4  C   UNL     1      -6.535   4.344 128.853  0.00  0.00    +0.000 A 
ATOM      5  N   UNL     1      -6.600   4.918 130.122  0.00  0.00    +0.000 N 
ATOM      6  C   UNL     1      -7.893   5.275 130.614  0.00  0.00    +0.000 A 
ATOM      7  C   UNL     1      -9.032   5.061 129.809  0.00  0.00    +0.000 A 
ATOM      8  C   UNL     1     -10.286   5.398 130.329  0.00  0.00    +0.000 A 
ATOM      9  C   UNL     1     -10.413   5.942 131.615  0.00  0.00    +0.000 A 
ATOM     10  C   UNL     1      -9.289   6.169 132.396  0.00  0.00    +0.000 A 
ATOM     11  C   UNL     1      -8.040   5.855 131.889  0.00  0.00    +0.000 A 
ATOM     12  N   UNL     1      -8.959   4.531 128.493  0.00  0.00    +0.000 NA
ATOM     13  C   UNL     1      -7.778   4.205 128.042  0.00  0.00    +0.000 A 
ATOM     14  C   UNL     1      -7.632   3.598 126.677  0.00  0.00    +0.000 A 
ATOM     15  C   UNL     1      -6.461   3.190 126.134  0.00  0.00    +0.000 A 
ENDROOT
BRANCH   5  16
ATOM     16  C   UNL     1      -5.418   5.033 130.928  0.00  0.00    +0.000 A 
ATOM     17  C   UNL     1      -4.670   6.216 130.904  0.00  0.00    +0.000 A 
ATOM     18  C   UNL     1      -3.457   6.297 131.581  0.00  0.00    +0.000 A 
ATOM     19  C   UNL     1      -3.073   5.268 132.435  0.00  0.00    +0.000 A 
ATOM     20 CL   UNL     1      -1.570   5.361 133.261  0.00  0.00    +0.000 Cl
ATOM     21  C   UNL     1      -3.881   4.147 132.596  0.00  0.00    +0.000 A 
ATOM     22  C   UNL     1      -4.993   3.990 131.769  0.00  0.00    +0.000 A 
ENDBRANCH   5  16
BRANCH   1  24
ATOM     23  C   UNL     1      -1.602   2.988 126.485  0.00  0.00    +0.000 C 
ATOM     24  C   UNL     1      -2.803   3.456 127.287  0.00  0.00    +0.000 C 
ATOM     25  C   UNL     1      -2.597   4.930 127.574  0.00  0.00    +0.000 C 
ENDBRANCH   1  24
BRANCH  15  26
ATOM     26  N   UNL     1      -6.350   2.585 124.875  0.00  0.00    +0.000 N 
ATOM     27  H   UNL     1      -6.288   1.576 124.861  0.00  0.00    +0.000 HD
BRANCH  26  28
ATOM     28  C   UNL     1      -6.628   3.194 123.629  0.00  0.00    +0.000 A 
ATOM     29  C   UNL     1      -7.883   3.029 123.021  0.00  0.00    +0.000 A 
ATOM     30  C   UNL     1      -8.079   3.349 121.675  0.00  0.00    +0.000 A 
ATOM     31  C   UNL     1      -7.038   3.898 120.936  0.00  0.00    +0.000 A 
ATOM     32 CL   UNL     1      -7.207   4.094 119.233  0.00  0.00    +0.000 Cl
ATOM     33  C   UNL     1      -5.832   4.208 121.559  0.00  0.00    +0.000 A 
ATOM     34  C   UNL     1      -5.615   3.826 122.893  0.00  0.00    +0.000 A 
ENDBRANCH  26  28
ENDBRANCH  15  26
TORSDOF 4
ENDMDL
MODEL 7
REMARK VINA RESULT:      -8.7      3.200      6.765
REMARK  Name = Clofazimine
REMARK  6 active torsions:
REMARK  status: ('A' for Active; 'I' for Inactive)
REMARK    1  A    between atoms: C_1  and  C_2
REMARK    2  A    between atoms: C_2  and  C_3
REMARK    3  A    between atoms: C_2  and  N_4
REMARK    4  A    between atoms: N_8  and  C_9
REMARK    5  A    between atoms: C_25  and  N_26
REMARK    6  A    between atoms: N_26  and  C_27
REMARK                            x       y       z     vdW  Elec       q    Type
REMARK                         _______ _______ _______ _____ _____    ______ ____
ROOT
ATOM      1  N   UNL     1      -7.794   2.166 131.001  0.00  0.00    +0.000 NA
ATOM      2  C   UNL     1      -7.581   2.149 129.727  0.00  0.00    +0.000 A 
ATOM      3  C   UNL     1      -7.109   0.938 129.082  0.00  0.00    +0.000 A 
ATOM      4  C   UNL     1      -7.178   0.656 127.776  0.00  0.00    +0.000 A 
ATOM      5  N   UNL     1      -6.903  -0.607 127.253  0.00  0.00    +0.000 N 
ATOM      6  C   UNL     1      -6.857  -0.730 125.830  0.00  0.00    +0.000 A 
ATOM      7  C   UNL     1      -7.108   0.400 125.021  0.00  0.00    +0.000 A 
ATOM      8  C   UNL     1      -7.030   0.252 123.633  0.00  0.00    +0.000 A 
ATOM      9  C   UNL     1      -6.720  -0.986 123.053  0.00  0.00    +0.000 A 
ATOM     10  C   UNL     1      -6.493  -2.098 123.850  0.00  0.00    +0.000 A 
ATOM     11  C   UNL     1      -6.581  -1.972 125.225  0.00  0.00    +0.000 A 
ATOM     12  N   UNL     1      -7.445   1.672 125.555  0.00  0.00    +0.000 NA
ATOM     13  C   UNL     1      -7.488   1.785 126.854  0.00  0.00    +0.000 A 
ATOM     14  C   UNL     1      -7.795   3.112 127.488  0.00  0.00    +0.000 A 
ATOM     15  C   UNL     1      -7.824   3.342 128.821  0.00  0.00    +0.000 A 
ENDROOT
BRANCH   5  16
ATOM     16  C   UNL     1      -6.574  -1.698 128.124  0.00  0.00    +0.000 A 
ATOM     17  C   UNL     1      -7.592  -2.502 128.651  0.00  0.00    +0.000 A 
ATOM     18  C   UNL     1      -7.299  -3.483 129.593  0.00  0.00    +0.000 A 
ATOM     19  C   UNL     1      -5.972  -3.794 129.877  0.00  0.00    +0.000 A 
ATOM     20 CL   UNL     1      -5.610  -4.995 131.050  0.00  0.00    +0.000 Cl
ATOM     21  C   UNL     1      -4.938  -3.112 129.245  0.00  0.00    +0.000 A 
ATOM     22  C   UNL     1      -5.242  -2.005 128.452  0.00  0.00    +0.000 A 
ENDBRANCH   5  16
BRANCH   1  24
ATOM     23  C   UNL     1      -7.121   1.573 133.258  0.00  0.00    +0.000 C 
ATOM     24  C   UNL     1      -7.511   1.046 131.888  0.00  0.00    +0.000 C 
ATOM     25  C   UNL     1      -8.774   0.228 132.071  0.00  0.00    +0.000 C 
ENDBRANCH   1  24
BRANCH  15  26
ATOM     26  N   UNL     1      -8.070   4.598 129.393  0.00  0.00    +0.000 N 
ATOM     27  H   UNL     1      -7.283   5.230 129.454  0.00  0.00    +0.000 HD
BRANCH  26  28
ATOM     28  C   UNL     1      -9.339   5.187 129.600  0.00  0.00    +0.000 A 
ATOM     29  C   UNL     1      -9.587   6.506 129.189  0.00  0.00    +0.000 A 
ATOM     30  C   UNL     1     -10.704   7.207 129.651  0.00  0.00    +0.000 A 
ATOM     31  C   UNL     1     -11.622   6.576 130.481  0.00  0.00    +0.000 A 
ATOM     32 CL   UNL     1     -12.878   7.492 131.223  0.00  0.00    +0.000 Cl
ATOM     33  C   UNL     1     -11.472   5.224 130.781  0.00  0.00    +0.000 A 
ATOM     34  C   UNL     1     -10.316   4.540 130.370  0.00  0.00    +0.000 A 
ENDBRANCH  26  28
ENDBRANCH  15  26
TORSDOF 4
ENDMDL
MODEL 8
REMARK VINA RESULT:      -8.6      2.745      9.096
REMARK  Name = Clofazimine
REMARK  6 active torsions:
REMARK  status: ('A' for Active; 'I' for Inactive)
REMARK    1  A    between atoms: C_1  and  C_2
REMARK    2  A    between atoms: C_2  and  C_3
REMARK    3  A    between atoms: C_2  and  N_4
REMARK    4  A    between atoms: N_8  and  C_9
REMARK    5  A    between atoms: C_25  and  N_26
REMARK    6  A    between atoms: N_26  and  C_27
REMARK                            x       y       z     vdW  Elec       q    Type
REMARK                         _______ _______ _______ _____ _____    ______ ____
ROOT
ATOM      1  N   UNL     1      -6.473  -0.124 130.751  0.00  0.00    +0.000 NA
ATOM      2  C   UNL     1      -7.125  -0.854 129.909  0.00  0.00    +0.000 A 
ATOM      3  C   UNL     1      -7.375  -0.370 128.564  0.00  0.00    +0.000 A 
ATOM      4  C   UNL     1      -7.708  -1.112 127.502  0.00  0.00    +0.000 A 
ATOM      5  N   UNL     1      -7.724  -0.616 126.199  0.00  0.00    +0.000 N 
ATOM      6  C   UNL     1      -8.252  -1.468 125.180  0.00  0.00    +0.000 A 
ATOM      7  C   UNL     1      -8.708  -2.762 125.517  0.00  0.00    +0.000 A 
ATOM      8  C   UNL     1      -9.242  -3.561 124.502  0.00  0.00    +0.000 A 
ATOM      9  C   UNL     1      -9.318  -3.099 123.180  0.00  0.00    +0.000 A 
ATOM     10  C   UNL     1      -8.851  -1.835 122.850  0.00  0.00    +0.000 A 
ATOM     11  C   UNL     1      -8.306  -1.038 123.841  0.00  0.00    +0.000 A 
ATOM     12  N   UNL     1      -8.636  -3.287 126.834  0.00  0.00    +0.000 NA
ATOM     13  C   UNL     1      -8.153  -2.509 127.765  0.00  0.00    +0.000 A 
ATOM     14  C   UNL     1      -8.090  -2.984 129.188  0.00  0.00    +0.000 A 
ATOM     15  C   UNL     1      -7.645  -2.243 130.230  0.00  0.00    +0.000 A 
ENDROOT
BRANCH   5  16
ATOM     16  C   UNL     1      -7.326   0.736 125.931  0.00  0.00    +0.000 A 
ATOM     17  C   UNL     1      -8.286   1.754 125.905  0.00  0.00    +0.000 A 
ATOM     18  C   UNL     1      -7.934   3.045 125.524  0.00  0.00    +0.000 A 
ATOM     19  C   UNL     1      -6.593   3.372 125.346  0.00  0.00    +0.000 A 
ATOM     20 CL   UNL     1      -6.159   4.962 124.863  0.00  0.00    +0.000 Cl
ATOM     21  C   UNL     1      -5.604   2.410 125.521  0.00  0.00    +0.000 A 
ATOM     22  C   UNL     1      -5.981   1.080 125.712  0.00  0.00    +0.000 A 
ENDBRANCH   5  16
BRANCH   1  24
ATOM     23  C   UNL     1      -6.400   2.139 131.629  0.00  0.00    +0.000 C 
ATOM     24  C   UNL     1      -6.019   1.232 130.473  0.00  0.00    +0.000 C 
ATOM     25  C   UNL     1      -4.506   1.239 130.384  0.00  0.00    +0.000 C 
ENDBRANCH   1  24
BRANCH  15  26
ATOM     26  N   UNL     1      -7.634  -2.689 131.559  0.00  0.00    +0.000 N 
ATOM     27  H   UNL     1      -8.529  -2.739 132.028  0.00  0.00    +0.000 HD
BRANCH  26  28
ATOM     28  C   UNL     1      -6.572  -3.364 132.204  0.00  0.00    +0.000 A 
ATOM     29  C   UNL     1      -5.350  -3.565 131.541  0.00  0.00    +0.000 A 
ATOM     30  C   UNL     1      -4.412  -4.482 132.022  0.00  0.00    +0.000 A 
ATOM     31  C   UNL     1      -4.656  -5.164 133.208  0.00  0.00    +0.000 A 
ATOM     32 CL   UNL     1      -3.610  -6.445 133.691  0.00  0.00    +0.000 Cl
ATOM     33  C   UNL     1      -5.793  -4.869 133.957  0.00  0.00    +0.000 A 
ATOM     34  C   UNL     1      -6.765  -3.997 133.440  0.00  0.00    +0.000 A 
ENDBRANCH  26  28
ENDBRANCH  15  26
TORSDOF 4
ENDMDL
MODEL 9
REMARK VINA RESULT:      -8.4      3.587      6.526
REMARK  Name = Clofazimine
REMARK  6 active torsions:
REMARK  status: ('A' for Active; 'I' for Inactive)
REMARK    1  A    between atoms: C_1  and  C_2
REMARK    2  A    between atoms: C_2  and  C_3
REMARK    3  A    between atoms: C_2  and  N_4
REMARK    4  A    between atoms: N_8  and  C_9
REMARK    5  A    between atoms: C_25  and  N_26
REMARK    6  A    between atoms: N_26  and  C_27
REMARK                            x       y       z     vdW  Elec       q    Type
REMARK                         _______ _______ _______ _____ _____    ______ ____
ROOT
ATOM      1  N   UNL     1      -7.522   4.549 127.934  0.00  0.00    +0.000 NA
ATOM      2  C   UNL     1      -7.786   3.706 128.875  0.00  0.00    +0.000 A 
ATOM      3  C   UNL     1      -7.664   2.280 128.633  0.00  0.00    +0.000 A 
ATOM      4  C   UNL     1      -7.557   1.323 129.562  0.00  0.00    +0.000 A 
ATOM      5  N   UNL     1      -7.229   0.002 129.263  0.00  0.00    +0.000 N 
ATOM      6  C   UNL     1      -7.306  -0.949 130.326  0.00  0.00    +0.000 A 
ATOM      7  C   UNL     1      -7.680  -0.524 131.620  0.00  0.00    +0.000 A 
ATOM      8  C   UNL     1      -7.770  -1.483 132.633  0.00  0.00    +0.000 A 
ATOM      9  C   UNL     1      -7.489  -2.833 132.379  0.00  0.00    +0.000 A 
ATOM     10  C   UNL     1      -7.103  -3.244 131.112  0.00  0.00    +0.000 A 
ATOM     11  C   UNL     1      -6.995  -2.304 130.102  0.00  0.00    +0.000 A 
ATOM     12  N   UNL     1      -7.955   0.832 131.937  0.00  0.00    +0.000 NA
ATOM     13  C   UNL     1      -7.885   1.702 130.966  0.00  0.00    +0.000 A 
ATOM     14  C   UNL     1      -8.208   3.147 131.220  0.00  0.00    +0.000 A 
ATOM     15  C   UNL     1      -8.203   4.116 130.276  0.00  0.00    +0.000 A 
ENDROOT
BRANCH   5  16
ATOM     16  C   UNL     1      -6.939  -0.386 127.912  0.00  0.00    +0.000 A 
ATOM     17  C   UNL     1      -7.968  -0.840 127.079  0.00  0.00    +0.000 A 
ATOM     18  C   UNL     1      -7.682  -1.337 125.811  0.00  0.00    +0.000 A 
ATOM     19  C   UNL     1      -6.395  -1.214 125.295  0.00  0.00    +0.000 A 
ATOM     20 CL   UNL     1      -6.039  -1.839 123.736  0.00  0.00    +0.000 Cl
ATOM     21  C   UNL     1      -5.388  -0.621 126.049  0.00  0.00    +0.000 A 
ATOM     22  C   UNL     1      -5.639  -0.304 127.384  0.00  0.00    +0.000 A 
ENDBRANCH   5  16
BRANCH   1  24
ATOM     23  C   UNL     1      -8.062   4.920 125.595  0.00  0.00    +0.000 C 
ATOM     24  C   UNL     1      -7.177   4.166 126.572  0.00  0.00    +0.000 C 
ATOM     25  C   UNL     1      -5.747   4.585 126.288  0.00  0.00    +0.000 C 
ENDBRANCH   1  24
BRANCH  15  26
ATOM     26  N   UNL     1      -8.549   5.452 130.524  0.00  0.00    +0.000 N 
ATOM     27  H   UNL     1      -7.786   6.091 130.709  0.00  0.00    +0.000 HD
BRANCH  26  28
ATOM     28  C   UNL     1      -9.793   6.059 130.237  0.00  0.00    +0.000 A 
ATOM     29  C   UNL     1     -10.984   5.321 130.336  0.00  0.00    +0.000 A 
ATOM     30  C   UNL     1     -12.172   5.790 129.769  0.00  0.00    +0.000 A 
ATOM     31  C   UNL     1     -12.199   7.034 129.151  0.00  0.00    +0.000 A 
ATOM     32 CL   UNL     1     -13.595   7.522 128.268  0.00  0.00    +0.000 Cl
ATOM     33  C   UNL     1     -11.067   7.845 129.173  0.00  0.00    +0.000 A 
ATOM     34  C   UNL     1      -9.857   7.346 129.684  0.00  0.00    +0.000 A 
ENDBRANCH  26  28
ENDBRANCH  15  26
TORSDOF 4
ENDMDL
