MODEL 1
REMARK VINA RESULT:      -6.4      0.000      0.000
REMARK  Name = Clofarabine
REMARK  5 active torsions:
REMARK  status: ('A' for Active; 'I' for Inactive)
REMARK    1  A    between atoms: C_4  and  O_5
REMARK    2  A    between atoms: C_6  and  C_7
REMARK    3  A    between atoms: C_7  and  O_8
REMARK    4  A    between atoms: C_10  and  N_11
REMARK    5  A    between atoms: C_15  and  N_16
REMARK                            x       y       z     vdW  Elec       q    Type
REMARK                         _______ _______ _______ _____ _____    ______ ____
ROOT
ATOM      1  N   UNL     1     -10.659   5.571 130.423  0.00  0.00    +0.000 N 
ATOM      2  C   UNL     1     -11.198   6.023 131.601  0.00  0.00    +0.000 A 
ATOM      3  N   UNL     1     -11.937   7.097 131.459  0.00  0.00    +0.000 NA
ATOM      4  C   UNL     1     -11.797   7.421 130.143  0.00  0.00    +0.000 A 
ATOM      5  C   UNL     1     -12.285   8.532 129.438  0.00  0.00    +0.000 A 
ATOM      6  N   UNL     1     -11.987   8.640 128.132  0.00  0.00    +0.000 NA
ATOM      7  C   UNL     1     -11.230   7.663 127.588  0.00  0.00    +0.000 A 
ATOM      8 CL   UNL     1     -10.902   7.874 125.918  0.00  0.00    +0.000 Cl
ATOM      9  N   UNL     1     -10.685   6.551 128.157  0.00  0.00    +0.000 NA
ATOM     10  C   UNL     1     -11.015   6.491 129.459  0.00  0.00    +0.000 A 
ENDROOT
BRANCH   1  16
ATOM     11  C   UNL     1      -8.285   4.751 130.323  0.00  0.00    +0.000 C 
ATOM     12  F   UNL     1      -8.023   5.902 130.995  0.00  0.00    +0.000 F 
ATOM     13  C   UNL     1      -7.656   3.618 131.100  0.00  0.00    +0.000 C 
ATOM     14  C   UNL     1      -8.752   3.180 132.070  0.00  0.00    +0.000 C 
ATOM     15  O   UNL     1     -10.022   3.520 131.454  0.00  0.00    +0.000 OA
ATOM     16  C   UNL     1      -9.780   4.414 130.324  0.00  0.00    +0.000 C 
BRANCH  13  17
ATOM     17  O   UNL     1      -7.289   2.551 130.215  0.00  0.00    +0.000 OA
ATOM     18  H   UNL     1      -7.355   1.698 130.677  0.00  0.00    +0.000 HD
ENDBRANCH  13  17
BRANCH  14  19
ATOM     19  C   UNL     1      -8.642   3.796 133.481  0.00  0.00    +0.000 C 
BRANCH  19  20
ATOM     20  O   UNL     1      -9.892   3.952 134.126  0.00  0.00    +0.000 OA
ATOM     21  H   UNL     1     -10.232   3.052 134.301  0.00  0.00    +0.000 HD
ENDBRANCH  19  20
ENDBRANCH  14  19
ENDBRANCH   1  16
BRANCH   5  22
ATOM     22  N   UNL     1     -13.034   9.506 130.061  0.00  0.00    +0.000 N 
ATOM     23  H   UNL     1     -12.933   9.624 131.061  0.00  0.00    +0.000 HD
ATOM     24  H   UNL     1     -13.633  10.103 129.515  0.00  0.00    +0.000 HD
ENDBRANCH   5  22
TORSDOF 5
ENDMDL
MODEL 2
REMARK VINA RESULT:      -6.2      7.900      9.661
REMARK  Name = Clofarabine
REMARK  5 active torsions:
REMARK  status: ('A' for Active; 'I' for Inactive)
REMARK    1  A    between atoms: C_4  and  O_5
REMARK    2  A    between atoms: C_6  and  C_7
REMARK    3  A    between atoms: C_7  and  O_8
REMARK    4  A    between atoms: C_10  and  N_11
REMARK    5  A    between atoms: C_15  and  N_16
REMARK                            x       y       z     vdW  Elec       q    Type
REMARK                         _______ _______ _______ _____ _____    ______ ____
ROOT
ATOM      1  N   UNL     1      -8.277   0.416 126.391  0.00  0.00    +0.000 N 
ATOM      2  C   UNL     1      -7.915   0.336 127.712  0.00  0.00    +0.000 A 
ATOM      3  N   UNL     1      -7.851  -0.895 128.162  0.00  0.00    +0.000 NA
ATOM      4  C   UNL     1      -8.288  -1.650 127.116  0.00  0.00    +0.000 A 
ATOM      5  C   UNL     1      -8.522  -3.032 127.046  0.00  0.00    +0.000 A 
ATOM      6  N   UNL     1      -8.981  -3.545 125.892  0.00  0.00    +0.000 NA
ATOM      7  C   UNL     1      -9.188  -2.683 124.872  0.00  0.00    +0.000 A 
ATOM      8 CL   UNL     1      -9.767  -3.418 123.435  0.00  0.00    +0.000 Cl
ATOM      9  N   UNL     1      -9.017  -1.332 124.812  0.00  0.00    +0.000 NA
ATOM     10  C   UNL     1      -8.556  -0.873 125.989  0.00  0.00    +0.000 A 
ENDROOT
BRANCH   1  16
ATOM     11  C   UNL     1      -7.346   1.963 124.641  0.00  0.00    +0.000 C 
ATOM     12  F   UNL     1      -6.795   0.822 124.149  0.00  0.00    +0.000 F 
ATOM     13  C   UNL     1      -8.081   2.638 123.507  0.00  0.00    +0.000 C 
ATOM     14  C   UNL     1      -9.490   2.049 123.575  0.00  0.00    +0.000 C 
ATOM     15  O   UNL     1      -9.717   1.657 124.954  0.00  0.00    +0.000 OA
ATOM     16  C   UNL     1      -8.444   1.671 125.671  0.00  0.00    +0.000 C 
BRANCH  13  17
ATOM     17  O   UNL     1      -8.101   4.058 123.702  0.00  0.00    +0.000 OA
ATOM     18  H   UNL     1      -7.252   4.444 123.428  0.00  0.00    +0.000 HD
ENDBRANCH  13  17
BRANCH  14  19
ATOM     19  C   UNL     1      -9.736   0.865 122.617  0.00  0.00    +0.000 C 
BRANCH  19  20
ATOM     20  O   UNL     1     -11.030   0.305 122.736  0.00  0.00    +0.000 OA
ATOM     21  H   UNL     1     -11.456   0.392 121.861  0.00  0.00    +0.000 HD
ENDBRANCH  19  20
ENDBRANCH  14  19
ENDBRANCH   1  16
BRANCH   5  22
ATOM     22  N   UNL     1      -8.312  -3.852 128.133  0.00  0.00    +0.000 N 
ATOM     23  H   UNL     1      -7.384  -4.233 128.275  0.00  0.00    +0.000 HD
ATOM     24  H   UNL     1      -9.061  -4.026 128.782  0.00  0.00    +0.000 HD
ENDBRANCH   5  22
TORSDOF 5
ENDMDL
MODEL 3
REMARK VINA RESULT:      -6.2      8.432      9.152
REMARK  Name = Clofarabine
REMARK  5 active torsions:
REMARK  status: ('A' for Active; 'I' for Inactive)
REMARK    1  A    between atoms: C_4  and  O_5
REMARK    2  A    between atoms: C_6  and  C_7
REMARK    3  A    between atoms: C_7  and  O_8
REMARK    4  A    between atoms: C_10  and  N_11
REMARK    5  A    between atoms: C_15  and  N_16
REMARK                            x       y       z     vdW  Elec       q    Type
REMARK                         _______ _______ _______ _____ _____    ______ ____
ROOT
ATOM      1  N   UNL     1      -8.124   0.168 124.595  0.00  0.00    +0.000 N 
ATOM      2  C   UNL     1      -7.190   0.133 125.599  0.00  0.00    +0.000 A 
ATOM      3  N   UNL     1      -6.446   1.213 125.658  0.00  0.00    +0.000 NA
ATOM      4  C   UNL     1      -6.846   1.946 124.582  0.00  0.00    +0.000 A 
ATOM      5  C   UNL     1      -6.337   3.156 124.084  0.00  0.00    +0.000 A 
ATOM      6  N   UNL     1      -6.895   3.676 122.978  0.00  0.00    +0.000 NA
ATOM      7  C   UNL     1      -7.914   2.989 122.418  0.00  0.00    +0.000 A 
ATOM      8 CL   UNL     1      -8.573   3.724 121.016  0.00  0.00    +0.000 Cl
ATOM      9  N   UNL     1      -8.489   1.809 122.786  0.00  0.00    +0.000 NA
ATOM     10  C   UNL     1      -7.896   1.335 123.896  0.00  0.00    +0.000 A 
ENDROOT
BRANCH   1  16
ATOM     11  C   UNL     1      -8.435  -2.080 123.512  0.00  0.00    +0.000 C 
ATOM     12  F   UNL     1      -7.098  -2.196 123.732  0.00  0.00    +0.000 F 
ATOM     13  C   UNL     1      -9.099  -3.308 124.088  0.00  0.00    +0.000 C 
ATOM     14  C   UNL     1      -9.406  -2.921 125.534  0.00  0.00    +0.000 C 
ATOM     15  O   UNL     1      -9.551  -1.477 125.562  0.00  0.00    +0.000 OA
ATOM     16  C   UNL     1      -9.047  -0.921 124.308  0.00  0.00    +0.000 C 
BRANCH  13  17
ATOM     17  O   UNL     1     -10.299  -3.610 123.364  0.00  0.00    +0.000 OA
ATOM     18  H   UNL     1     -10.088  -3.802 122.435  0.00  0.00    +0.000 HD
ENDBRANCH  13  17
BRANCH  14  19
ATOM     19  C   UNL     1      -8.355  -3.389 126.560  0.00  0.00    +0.000 C 
BRANCH  19  20
ATOM     20  O   UNL     1      -8.920  -3.890 127.757  0.00  0.00    +0.000 OA
ATOM     21  H   UNL     1      -9.888  -3.911 127.623  0.00  0.00    +0.000 HD
ENDBRANCH  19  20
ENDBRANCH  14  19
ENDBRANCH   1  16
BRANCH   5  22
ATOM     22  N   UNL     1      -5.279   3.794 124.692  0.00  0.00    +0.000 N 
ATOM     23  H   UNL     1      -4.345   3.433 124.535  0.00  0.00    +0.000 HD
ATOM     24  H   UNL     1      -5.441   4.621 125.243  0.00  0.00    +0.000 HD
ENDBRANCH   5  22
TORSDOF 5
ENDMDL
MODEL 4
REMARK VINA RESULT:      -6.0      8.441      9.910
REMARK  Name = Clofarabine
REMARK  5 active torsions:
REMARK  status: ('A' for Active; 'I' for Inactive)
REMARK    1  A    between atoms: C_4  and  O_5
REMARK    2  A    between atoms: C_6  and  C_7
REMARK    3  A    between atoms: C_7  and  O_8
REMARK    4  A    between atoms: C_10  and  N_11
REMARK    5  A    between atoms: C_15  and  N_16
REMARK                            x       y       z     vdW  Elec       q    Type
REMARK                         _______ _______ _______ _____ _____    ______ ____
ROOT
ATOM      1  N   UNL     1      -7.316  -0.474 125.406  0.00  0.00    +0.000 N 
ATOM      2  C   UNL     1      -6.092   0.147 125.384  0.00  0.00    +0.000 A 
ATOM      3  N   UNL     1      -5.257  -0.312 126.286  0.00  0.00    +0.000 NA
ATOM      4  C   UNL     1      -6.001  -1.206 126.996  0.00  0.00    +0.000 A 
ATOM      5  C   UNL     1      -5.662  -1.939 128.144  0.00  0.00    +0.000 A 
ATOM      6  N   UNL     1      -6.590  -2.751 128.680  0.00  0.00    +0.000 NA
ATOM      7  C   UNL     1      -7.794  -2.800 128.070  0.00  0.00    +0.000 A 
ATOM      8 CL   UNL     1      -8.916  -3.863 128.812  0.00  0.00    +0.000 Cl
ATOM      9  N   UNL     1      -8.253  -2.137 126.971  0.00  0.00    +0.000 NA
ATOM     10  C   UNL     1      -7.287  -1.344 126.475  0.00  0.00    +0.000 A 
ENDROOT
BRANCH   1  16
ATOM     11  C   UNL     1      -9.634   0.483 125.234  0.00  0.00    +0.000 C 
ATOM     12  F   UNL     1      -9.283   1.130 126.377  0.00  0.00    +0.000 F 
ATOM     13  C   UNL     1     -10.145   1.521 124.263  0.00  0.00    +0.000 C 
ATOM     14  C   UNL     1      -8.895   1.967 123.505  0.00  0.00    +0.000 C 
ATOM     15  O   UNL     1      -7.963   0.855 123.537  0.00  0.00    +0.000 OA
ATOM     16  C   UNL     1      -8.419  -0.122 124.523  0.00  0.00    +0.000 C 
BRANCH  13  17
ATOM     17  O   UNL     1     -11.111   0.940 123.377  0.00  0.00    +0.000 OA
ATOM     18  H   UNL     1     -11.241   1.516 122.604  0.00  0.00    +0.000 HD
ENDBRANCH  13  17
BRANCH  14  19
ATOM     19  C   UNL     1      -8.240   3.252 124.051  0.00  0.00    +0.000 C 
BRANCH  19  20
ATOM     20  O   UNL     1      -9.013   3.901 125.042  0.00  0.00    +0.000 OA
ATOM     21  H   UNL     1      -8.533   4.717 125.284  0.00  0.00    +0.000 HD
ENDBRANCH  19  20
ENDBRANCH  14  19
ENDBRANCH   1  16
BRANCH   5  22
ATOM     22  N   UNL     1      -4.421  -1.824 128.730  0.00  0.00    +0.000 N 
ATOM     23  H   UNL     1      -3.606  -1.798 128.129  0.00  0.00    +0.000 HD
ATOM     24  H   UNL     1      -4.345  -1.729 129.730  0.00  0.00    +0.000 HD
ENDBRANCH   5  22
TORSDOF 5
ENDMDL
MODEL 5
REMARK VINA RESULT:      -5.9      7.919      9.594
REMARK  Name = Clofarabine
REMARK  5 active torsions:
REMARK  status: ('A' for Active; 'I' for Inactive)
REMARK    1  A    between atoms: C_4  and  O_5
REMARK    2  A    between atoms: C_6  and  C_7
REMARK    3  A    between atoms: C_7  and  O_8
REMARK    4  A    between atoms: C_10  and  N_11
REMARK    5  A    between atoms: C_15  and  N_16
REMARK                            x       y       z     vdW  Elec       q    Type
REMARK                         _______ _______ _______ _____ _____    ______ ____
ROOT
ATOM      1  N   UNL     1      -7.661   0.189 125.766  0.00  0.00    +0.000 N 
ATOM      2  C   UNL     1      -9.019   0.332 125.637  0.00  0.00    +0.000 A 
ATOM      3  N   UNL     1      -9.612  -0.732 125.150  0.00  0.00    +0.000 NA
ATOM      4  C   UNL     1      -8.584  -1.574 124.855  0.00  0.00    +0.000 A 
ATOM      5  C   UNL     1      -8.607  -2.827 124.221  0.00  0.00    +0.000 A 
ATOM      6  N   UNL     1      -7.440  -3.462 124.020  0.00  0.00    +0.000 NA
ATOM      7  C   UNL     1      -6.318  -2.841 124.443  0.00  0.00    +0.000 A 
ATOM      8 CL   UNL     1      -4.875  -3.722 124.154  0.00  0.00    +0.000 Cl
ATOM      9  N   UNL     1      -6.155  -1.633 125.052  0.00  0.00    +0.000 NA
ATOM     10  C   UNL     1      -7.350  -1.043 125.231  0.00  0.00    +0.000 A 
ENDROOT
BRANCH   1  16
ATOM     11  C   UNL     1      -5.899   1.883 125.179  0.00  0.00    +0.000 C 
ATOM     12  F   UNL     1      -6.480   1.832 123.951  0.00  0.00    +0.000 F 
ATOM     13  C   UNL     1      -5.829   3.336 125.587  0.00  0.00    +0.000 C 
ATOM     14  C   UNL     1      -7.150   3.581 126.315  0.00  0.00    +0.000 C 
ATOM     15  O   UNL     1      -7.574   2.304 126.860  0.00  0.00    +0.000 OA
ATOM     16  C   UNL     1      -6.778   1.238 126.256  0.00  0.00    +0.000 C 
BRANCH  13  17
ATOM     17  O   UNL     1      -4.709   3.555 126.455  0.00  0.00    +0.000 OA
ATOM     18  H   UNL     1      -4.327   4.434 126.290  0.00  0.00    +0.000 HD
ENDBRANCH  13  17
BRANCH  14  19
ATOM     19  C   UNL     1      -8.258   4.203 125.441  0.00  0.00    +0.000 C 
BRANCH  19  20
ATOM     20  O   UNL     1      -8.295   5.616 125.500  0.00  0.00    +0.000 OA
ATOM     21  H   UNL     1      -7.692   5.942 124.803  0.00  0.00    +0.000 HD
ENDBRANCH  19  20
ENDBRANCH  14  19
ENDBRANCH   1  16
BRANCH   5  22
ATOM     22  N   UNL     1      -9.787  -3.394 123.793  0.00  0.00    +0.000 N 
ATOM     23  H   UNL     1      -9.989  -3.391 122.801  0.00  0.00    +0.000 HD
ATOM     24  H   UNL     1     -10.404  -3.831 124.458  0.00  0.00    +0.000 HD
ENDBRANCH   5  22
TORSDOF 5
ENDMDL
MODEL 6
REMARK VINA RESULT:      -5.9      3.788      6.260
REMARK  Name = Clofarabine
REMARK  5 active torsions:
REMARK  status: ('A' for Active; 'I' for Inactive)
REMARK    1  A    between atoms: C_4  and  O_5
REMARK    2  A    between atoms: C_6  and  C_7
REMARK    3  A    between atoms: C_7  and  O_8
REMARK    4  A    between atoms: C_10  and  N_11
REMARK    5  A    between atoms: C_15  and  N_16
REMARK                            x       y       z     vdW  Elec       q    Type
REMARK                         _______ _______ _______ _____ _____    ______ ____
ROOT
ATOM      1  N   UNL     1      -9.551   4.881 130.030  0.00  0.00    +0.000 N 
ATOM      2  C   UNL     1      -8.996   5.121 128.798  0.00  0.00    +0.000 A 
ATOM      3  N   UNL     1      -7.787   4.630 128.665  0.00  0.00    +0.000 NA
ATOM      4  C   UNL     1      -7.499   4.131 129.899  0.00  0.00    +0.000 A 
ATOM      5  C   UNL     1      -6.306   3.566 130.380  0.00  0.00    +0.000 A 
ATOM      6  N   UNL     1      -6.262   3.163 131.661  0.00  0.00    +0.000 NA
ATOM      7  C   UNL     1      -7.379   3.334 132.402  0.00  0.00    +0.000 A 
ATOM      8 CL   UNL     1      -7.240   2.787 134.021  0.00  0.00    +0.000 Cl
ATOM      9  N   UNL     1      -8.584   3.875 132.067  0.00  0.00    +0.000 NA
ATOM     10  C   UNL     1      -8.574   4.258 130.778  0.00  0.00    +0.000 A 
ENDROOT
BRANCH   1  16
ATOM     11  C   UNL     1     -10.878   6.720 131.114  0.00  0.00    +0.000 C 
ATOM     12  F   UNL     1      -9.841   7.497 130.704  0.00  0.00    +0.000 F 
ATOM     13  C   UNL     1     -12.152   7.366 130.622  0.00  0.00    +0.000 C 
ATOM     14  C   UNL     1     -12.370   6.751 129.240  0.00  0.00    +0.000 C 
ATOM     15  O   UNL     1     -11.731   5.448 129.253  0.00  0.00    +0.000 OA
ATOM     16  C   UNL     1     -10.871   5.348 130.430  0.00  0.00    +0.000 C 
BRANCH  13  17
ATOM     17  O   UNL     1     -13.239   7.060 131.504  0.00  0.00    +0.000 OA
ATOM     18  H   UNL     1     -14.075   7.386 131.129  0.00  0.00    +0.000 HD
ENDBRANCH  13  17
BRANCH  14  19
ATOM     19  C   UNL     1     -11.850   7.608 128.067  0.00  0.00    +0.000 C 
BRANCH  19  20
ATOM     20  O   UNL     1     -11.681   8.973 128.400  0.00  0.00    +0.000 OA
ATOM     21  H   UNL     1     -12.416   9.458 127.977  0.00  0.00    +0.000 HD
ENDBRANCH  19  20
ENDBRANCH  14  19
ENDBRANCH   1  16
BRANCH   5  22
ATOM     22  N   UNL     1      -5.195   3.443 129.576  0.00  0.00    +0.000 N 
ATOM     23  H   UNL     1      -4.593   2.638 129.707  0.00  0.00    +0.000 HD
ATOM     24  H   UNL     1      -5.020   4.122 128.854  0.00  0.00    +0.000 HD
ENDBRANCH   5  22
TORSDOF 5
ENDMDL
MODEL 7
REMARK VINA RESULT:      -5.9      8.020      9.138
REMARK  Name = Clofarabine
REMARK  5 active torsions:
REMARK  status: ('A' for Active; 'I' for Inactive)
REMARK    1  A    between atoms: C_4  and  O_5
REMARK    2  A    between atoms: C_6  and  C_7
REMARK    3  A    between atoms: C_7  and  O_8
REMARK    4  A    between atoms: C_10  and  N_11
REMARK    5  A    between atoms: C_15  and  N_16
REMARK                            x       y       z     vdW  Elec       q    Type
REMARK                         _______ _______ _______ _____ _____    ______ ____
ROOT
ATOM      1  N   UNL     1      -8.783   0.901 123.629  0.00  0.00    +0.000 N 
ATOM      2  C   UNL     1      -9.265   1.976 122.926  0.00  0.00    +0.000 A 
ATOM      3  N   UNL     1      -8.526   3.054 123.047  0.00  0.00    +0.000 NA
ATOM      4  C   UNL     1      -7.571   2.696 123.950  0.00  0.00    +0.000 A 
ATOM      5  C   UNL     1      -6.559   3.473 124.537  0.00  0.00    +0.000 A 
ATOM      6  N   UNL     1      -5.744   2.888 125.431  0.00  0.00    +0.000 NA
ATOM      7  C   UNL     1      -5.960   1.583 125.704  0.00  0.00    +0.000 A 
ATOM      8 CL   UNL     1      -4.872   0.913 126.848  0.00  0.00    +0.000 Cl
ATOM      9  N   UNL     1      -6.904   0.727 125.221  0.00  0.00    +0.000 NA
ATOM     10  C   UNL     1      -7.689   1.360 124.332  0.00  0.00    +0.000 A 
ENDROOT
BRANCH   1  16
ATOM     11  C   UNL     1      -8.748  -1.490 122.853  0.00  0.00    +0.000 C 
ATOM     12  F   UNL     1      -7.412  -1.270 122.739  0.00  0.00    +0.000 F 
ATOM     13  C   UNL     1      -8.934  -2.741 123.678  0.00  0.00    +0.000 C 
ATOM     14  C   UNL     1      -8.999  -2.230 125.117  0.00  0.00    +0.000 C 
ATOM     15  O   UNL     1      -9.494  -0.867 125.059  0.00  0.00    +0.000 OA
ATOM     16  C   UNL     1      -9.440  -0.397 123.677  0.00  0.00    +0.000 C 
BRANCH  13  17
ATOM     17  O   UNL     1     -10.149  -3.406 123.308  0.00  0.00    +0.000 OA
ATOM     18  H   UNL     1     -10.419  -4.022 124.010  0.00  0.00    +0.000 HD
ENDBRANCH  13  17
BRANCH  14  19
ATOM     19  C   UNL     1      -7.661  -2.298 125.882  0.00  0.00    +0.000 C 
BRANCH  19  20
ATOM     20  O   UNL     1      -7.636  -1.492 127.045  0.00  0.00    +0.000 OA
ATOM     21  H   UNL     1      -8.446  -1.702 127.550  0.00  0.00    +0.000 HD
ENDBRANCH  19  20
ENDBRANCH  14  19
ENDBRANCH   1  16
BRANCH   5  22
ATOM     22  N   UNL     1      -6.409   4.807 124.231  0.00  0.00    +0.000 N 
ATOM     23  H   UNL     1      -6.903   5.489 124.794  0.00  0.00    +0.000 HD
ATOM     24  H   UNL     1      -5.789   5.084 123.488  0.00  0.00    +0.000 HD
ENDBRANCH   5  22
TORSDOF 5
ENDMDL
MODEL 8
REMARK VINA RESULT:      -5.8      2.188      2.944
REMARK  Name = Clofarabine
REMARK  5 active torsions:
REMARK  status: ('A' for Active; 'I' for Inactive)
REMARK    1  A    between atoms: C_4  and  O_5
REMARK    2  A    between atoms: C_6  and  C_7
REMARK    3  A    between atoms: C_7  and  O_8
REMARK    4  A    between atoms: C_10  and  N_11
REMARK    5  A    between atoms: C_15  and  N_16
REMARK                            x       y       z     vdW  Elec       q    Type
REMARK                         _______ _______ _______ _____ _____    ______ ____
ROOT
ATOM      1  N   UNL     1      -8.881   5.678 131.134  0.00  0.00    +0.000 N 
ATOM      2  C   UNL     1      -9.420   5.749 132.394  0.00  0.00    +0.000 A 
ATOM      3  N   UNL     1     -10.620   6.279 132.420  0.00  0.00    +0.000 NA
ATOM      4  C   UNL     1     -10.837   6.663 131.131  0.00  0.00    +0.000 A 
ATOM      5  C   UNL     1     -11.915   7.371 130.577  0.00  0.00    +0.000 A 
ATOM      6  N   UNL     1     -11.886   7.653 129.263  0.00  0.00    +0.000 NA
ATOM      7  C   UNL     1     -10.809   7.233 128.565  0.00  0.00    +0.000 A 
ATOM      8 CL   UNL     1     -10.854   7.627 126.896  0.00  0.00    +0.000 Cl
ATOM      9  N   UNL     1      -9.700   6.557 128.977  0.00  0.00    +0.000 NA
ATOM     10  C   UNL     1      -9.781   6.299 130.294  0.00  0.00    +0.000 A 
ENDROOT
BRANCH   1  16
ATOM     11  C   UNL     1      -7.417   3.638 131.015  0.00  0.00    +0.000 C 
ATOM     12  F   UNL     1      -8.595   2.996 130.796  0.00  0.00    +0.000 F 
ATOM     13  C   UNL     1      -6.468   3.235 129.911  0.00  0.00    +0.000 C 
ATOM     14  C   UNL     1      -6.711   4.272 128.815  0.00  0.00    +0.000 C 
ATOM     15  O   UNL     1      -7.187   5.476 129.471  0.00  0.00    +0.000 OA
ATOM     16  C   UNL     1      -7.552   5.156 130.850  0.00  0.00    +0.000 C 
BRANCH  13  17
ATOM     17  O   UNL     1      -5.113   3.280 130.378  0.00  0.00    +0.000 OA
ATOM     18  H   UNL     1      -4.868   4.195 130.600  0.00  0.00    +0.000 HD
ENDBRANCH  13  17
BRANCH  14  19
ATOM     19  C   UNL     1      -7.692   3.821 127.713  0.00  0.00    +0.000 C 
BRANCH  19  20
ATOM     20  O   UNL     1      -8.360   4.895 127.080  0.00  0.00    +0.000 OA
ATOM     21  H   UNL     1      -8.494   4.633 126.148  0.00  0.00    +0.000 HD
ENDBRANCH  19  20
ENDBRANCH  14  19
ENDBRANCH   1  16
BRANCH   5  22
ATOM     22  N   UNL     1     -12.973   7.791 131.352  0.00  0.00    +0.000 N 
ATOM     23  H   UNL     1     -13.426   8.665 131.115  0.00  0.00    +0.000 HD
ATOM     24  H   UNL     1     -13.301   7.212 132.108  0.00  0.00    +0.000 HD
ENDBRANCH   5  22
TORSDOF 5
ENDMDL
MODEL 9
REMARK VINA RESULT:      -5.8      7.737      9.503
REMARK  Name = Clofarabine
REMARK  5 active torsions:
REMARK  status: ('A' for Active; 'I' for Inactive)
REMARK    1  A    between atoms: C_4  and  O_5
REMARK    2  A    between atoms: C_6  and  C_7
REMARK    3  A    between atoms: C_7  and  O_8
REMARK    4  A    between atoms: C_10  and  N_11
REMARK    5  A    between atoms: C_15  and  N_16
REMARK                            x       y       z     vdW  Elec       q    Type
REMARK                         _______ _______ _______ _____ _____    ______ ____
ROOT
ATOM      1  N   UNL     1      -7.311   0.330 125.296  0.00  0.00    +0.000 N 
ATOM      2  C   UNL     1      -6.964   0.516 126.610  0.00  0.00    +0.000 A 
ATOM      3  N   UNL     1      -7.229  -0.518 127.373  0.00  0.00    +0.000 NA
ATOM      4  C   UNL     1      -7.869  -1.384 126.539  0.00  0.00    +0.000 A 
ATOM      5  C   UNL     1      -8.469  -2.622 126.823  0.00  0.00    +0.000 A 
ATOM      6  N   UNL     1      -9.067  -3.287 125.819  0.00  0.00    +0.000 NA
ATOM      7  C   UNL     1      -9.048  -2.709 124.598  0.00  0.00    +0.000 A 
ATOM      8 CL   UNL     1      -9.825  -3.625 123.374  0.00  0.00    +0.000 Cl
ATOM      9  N   UNL     1      -8.519  -1.520 124.194  0.00  0.00    +0.000 NA
ATOM     10  C   UNL     1      -7.934  -0.899 125.233  0.00  0.00    +0.000 A 
ENDROOT
BRANCH   1  16
ATOM     11  C   UNL     1      -8.456   1.883 123.685  0.00  0.00    +0.000 C 
ATOM     12  F   UNL     1      -9.472   1.817 124.586  0.00  0.00    +0.000 F 
ATOM     13  C   UNL     1      -8.166   3.345 123.434  0.00  0.00    +0.000 C 
ATOM     14  C   UNL     1      -7.119   3.702 124.488  0.00  0.00    +0.000 C 
ATOM     15  O   UNL     1      -6.407   2.479 124.807  0.00  0.00    +0.000 OA
ATOM     16  C   UNL     1      -7.143   1.341 124.262  0.00  0.00    +0.000 C 
BRANCH  13  17
ATOM     17  O   UNL     1      -7.653   3.529 122.108  0.00  0.00    +0.000 OA
ATOM     18  H   UNL     1      -7.928   2.790 121.539  0.00  0.00    +0.000 HD
ENDBRANCH  13  17
BRANCH  14  19
ATOM     19  C   UNL     1      -7.691   4.356 125.763  0.00  0.00    +0.000 C 
BRANCH  19  20
ATOM     20  O   UNL     1      -8.333   5.593 125.521  0.00  0.00    +0.000 OA
ATOM     21  H   UNL     1      -8.875   5.476 124.716  0.00  0.00    +0.000 HD
ENDBRANCH  19  20
ENDBRANCH  14  19
ENDBRANCH   1  16
BRANCH   5  22
ATOM     22  N   UNL     1      -8.472  -3.143 128.097  0.00  0.00    +0.000 N 
ATOM     23  H   UNL     1      -7.638  -3.040 128.661  0.00  0.00    +0.000 HD
ATOM     24  H   UNL     1      -9.305  -3.578 128.459  0.00  0.00    +0.000 HD
ENDBRANCH   5  22
TORSDOF 5
ENDMDL
