MODEL 1
REMARK VINA RESULT:      -5.9      0.000      0.000
REMARK  Name = Clofibrate
REMARK  8 active torsions:
REMARK  status: ('A' for Active; 'I' for Inactive)
REMARK    1  A    between atoms: C_1  and  C_2
REMARK    2  A    between atoms: C_2  and  O_3
REMARK    3  A    between atoms: O_3  and  C_4
REMARK    4  A    between atoms: C_4  and  C_6
REMARK    5  A    between atoms: C_6  and  C_7
REMARK    6  A    between atoms: C_6  and  C_8
REMARK    7  A    between atoms: C_6  and  O_9
REMARK    8  A    between atoms: O_9  and  C_10
REMARK                            x       y       z     vdW  Elec       q    Type
REMARK                         _______ _______ _______ _____ _____    ______ ____
ROOT
ATOM      1  C   UNL     1      -8.854  -2.409 124.076  0.00  0.00    +0.000 C 
ATOM      2  C   UNL     1      -9.742  -3.396 123.305  0.00  0.00    +0.000 C 
ATOM      3  C   UNL     1      -7.451  -2.992 124.277  0.00  0.00    +0.000 C 
ENDROOT
BRANCH   1   4
ATOM      4  C   UNL     1      -8.689  -1.114 123.215  0.00  0.00    +0.000 C 
ATOM      5  O   UNL     1      -7.616  -0.572 122.956  0.00  0.00    +0.000 OA
BRANCH   4   6
ATOM      6  O   UNL     1      -9.896  -0.642 122.752  0.00  0.00    +0.000 OA
BRANCH   6   8
ATOM      7  C   UNL     1     -10.273   1.323 124.134  0.00  0.00    +0.000 C 
ATOM      8  C   UNL     1     -10.021   0.795 122.729  0.00  0.00    +0.000 C 
ENDBRANCH   6   8
ENDBRANCH   4   6
ENDBRANCH   1   4
BRANCH   1   9
ATOM      9  O   UNL     1      -9.474  -2.027 125.341  0.00  0.00    +0.000 OA
BRANCH   9  10
ATOM     10  C   UNL     1      -8.857  -2.363 126.519  0.00  0.00    +0.000 A 
ATOM     11  C   UNL     1      -7.959  -1.531 127.185  0.00  0.00    +0.000 A 
ATOM     12  C   UNL     1      -7.279  -1.961 128.325  0.00  0.00    +0.000 A 
ATOM     13  C   UNL     1      -7.592  -3.192 128.883  0.00  0.00    +0.000 A 
ATOM     14 CL   UNL     1      -6.770  -3.707 130.303  0.00  0.00    +0.000 Cl
ATOM     15  C   UNL     1      -8.585  -3.983 128.310  0.00  0.00    +0.000 A 
ATOM     16  C   UNL     1      -9.215  -3.570 127.125  0.00  0.00    +0.000 A 
ENDBRANCH   9  10
ENDBRANCH   1   9
TORSDOF 5
ENDMDL
MODEL 2
REMARK VINA RESULT:      -5.7      1.336      2.906
REMARK  Name = Clofibrate
REMARK  8 active torsions:
REMARK  status: ('A' for Active; 'I' for Inactive)
REMARK    1  A    between atoms: C_1  and  C_2
REMARK    2  A    between atoms: C_2  and  O_3
REMARK    3  A    between atoms: O_3  and  C_4
REMARK    4  A    between atoms: C_4  and  C_6
REMARK    5  A    between atoms: C_6  and  C_7
REMARK    6  A    between atoms: C_6  and  C_8
REMARK    7  A    between atoms: C_6  and  O_9
REMARK    8  A    between atoms: O_9  and  C_10
REMARK                            x       y       z     vdW  Elec       q    Type
REMARK                         _______ _______ _______ _____ _____    ______ ____
ROOT
ATOM      1  C   UNL     1      -8.909  -1.917 123.785  0.00  0.00    +0.000 C 
ATOM      2  C   UNL     1      -9.398  -1.006 122.650  0.00  0.00    +0.000 C 
ATOM      3  C   UNL     1      -9.281  -3.376 123.501  0.00  0.00    +0.000 C 
ENDROOT
BRANCH   1   4
ATOM      4  C   UNL     1      -7.347  -1.847 123.837  0.00  0.00    +0.000 C 
ATOM      5  O   UNL     1      -6.688  -0.810 123.823  0.00  0.00    +0.000 OA
BRANCH   4   6
ATOM      6  O   UNL     1      -6.775  -3.096 123.920  0.00  0.00    +0.000 OA
BRANCH   6   8
ATOM      7  C   UNL     1      -4.563  -4.046 123.574  0.00  0.00    +0.000 C 
ATOM      8  C   UNL     1      -5.421  -3.115 124.418  0.00  0.00    +0.000 C 
ENDBRANCH   6   8
ENDBRANCH   4   6
ENDBRANCH   1   4
BRANCH   1   9
ATOM      9  O   UNL     1      -9.418  -1.462 125.075  0.00  0.00    +0.000 OA
BRANCH   9  10
ATOM     10  C   UNL     1      -8.866  -1.962 126.228  0.00  0.00    +0.000 A 
ATOM     11  C   UNL     1      -8.017  -1.229 127.057  0.00  0.00    +0.000 A 
ATOM     12  C   UNL     1      -7.398  -1.815 128.161  0.00  0.00    +0.000 A 
ATOM     13  C   UNL     1      -7.727  -3.115 128.519  0.00  0.00    +0.000 A 
ATOM     14 CL   UNL     1      -6.981  -3.824 129.896  0.00  0.00    +0.000 Cl
ATOM     15  C   UNL     1      -8.676  -3.820 127.782  0.00  0.00    +0.000 A 
ATOM     16  C   UNL     1      -9.243  -3.244 126.633  0.00  0.00    +0.000 A 
ENDBRANCH   9  10
ENDBRANCH   1   9
TORSDOF 5
ENDMDL
MODEL 3
REMARK VINA RESULT:      -5.6      9.044     11.251
REMARK  Name = Clofibrate
REMARK  8 active torsions:
REMARK  status: ('A' for Active; 'I' for Inactive)
REMARK    1  A    between atoms: C_1  and  C_2
REMARK    2  A    between atoms: C_2  and  O_3
REMARK    3  A    between atoms: O_3  and  C_4
REMARK    4  A    between atoms: C_4  and  C_6
REMARK    5  A    between atoms: C_6  and  C_7
REMARK    6  A    between atoms: C_6  and  C_8
REMARK    7  A    between atoms: C_6  and  O_9
REMARK    8  A    between atoms: O_9  and  C_10
REMARK                            x       y       z     vdW  Elec       q    Type
REMARK                         _______ _______ _______ _____ _____    ______ ____
ROOT
ATOM      1  C   UNL     1      -9.584   5.156 130.336  0.00  0.00    +0.000 C 
ATOM      2  C   UNL     1      -9.188   6.463 131.036  0.00  0.00    +0.000 C 
ATOM      3  C   UNL     1      -8.471   4.695 129.388  0.00  0.00    +0.000 C 
ENDROOT
BRANCH   1   4
ATOM      4  C   UNL     1      -9.746   4.042 131.422  0.00  0.00    +0.000 C 
ATOM      5  O   UNL     1      -9.961   2.855 131.186  0.00  0.00    +0.000 OA
BRANCH   4   6
ATOM      6  O   UNL     1      -9.602   4.537 132.698  0.00  0.00    +0.000 OA
BRANCH   6   8
ATOM      7  C   UNL     1      -8.164   4.389 134.653  0.00  0.00    +0.000 C 
ATOM      8  C   UNL     1      -9.007   3.624 133.643  0.00  0.00    +0.000 C 
ENDBRANCH   6   8
ENDBRANCH   4   6
ENDBRANCH   1   4
BRANCH   1   9
ATOM      9  O   UNL     1     -10.864   5.297 129.649  0.00  0.00    +0.000 OA
BRANCH   9  10
ATOM     10  C   UNL     1     -11.471   6.527 129.609  0.00  0.00    +0.000 A 
ATOM     11  C   UNL     1     -11.351   7.412 128.538  0.00  0.00    +0.000 A 
ATOM     12  C   UNL     1     -11.902   8.692 128.589  0.00  0.00    +0.000 A 
ATOM     13  C   UNL     1     -12.691   9.053 129.672  0.00  0.00    +0.000 A 
ATOM     14 CL   UNL     1     -13.388  10.624 129.719  0.00  0.00    +0.000 Cl
ATOM     15  C   UNL     1     -12.934   8.136 130.691  0.00  0.00    +0.000 A 
ATOM     16  C   UNL     1     -12.321   6.873 130.662  0.00  0.00    +0.000 A 
ENDBRANCH   9  10
ENDBRANCH   1   9
TORSDOF 5
ENDMDL
MODEL 4
REMARK VINA RESULT:      -5.6      8.558     10.546
REMARK  Name = Clofibrate
REMARK  8 active torsions:
REMARK  status: ('A' for Active; 'I' for Inactive)
REMARK    1  A    between atoms: C_1  and  C_2
REMARK    2  A    between atoms: C_2  and  O_3
REMARK    3  A    between atoms: O_3  and  C_4
REMARK    4  A    between atoms: C_4  and  C_6
REMARK    5  A    between atoms: C_6  and  C_7
REMARK    6  A    between atoms: C_6  and  C_8
REMARK    7  A    between atoms: C_6  and  O_9
REMARK    8  A    between atoms: O_9  and  C_10
REMARK                            x       y       z     vdW  Elec       q    Type
REMARK                         _______ _______ _______ _____ _____    ______ ____
ROOT
ATOM      1  C   UNL     1      -9.584   5.286 130.242  0.00  0.00    +0.000 C 
ATOM      2  C   UNL     1      -9.584   4.274 131.397  0.00  0.00    +0.000 C 
ATOM      3  C   UNL     1      -9.043   6.640 130.715  0.00  0.00    +0.000 C 
ENDROOT
BRANCH   1   4
ATOM      4  C   UNL     1      -8.612   4.770 129.131  0.00  0.00    +0.000 C 
ATOM      5  O   UNL     1      -8.619   5.143 127.960  0.00  0.00    +0.000 OA
BRANCH   4   6
ATOM      6  O   UNL     1      -7.714   3.846 129.616  0.00  0.00    +0.000 OA
BRANCH   6   8
ATOM      7  C   UNL     1      -8.464   1.671 128.827  0.00  0.00    +0.000 C 
ATOM      8  C   UNL     1      -7.409   2.762 128.714  0.00  0.00    +0.000 C 
ENDBRANCH   6   8
ENDBRANCH   4   6
ENDBRANCH   1   4
BRANCH   1   9
ATOM      9  O   UNL     1     -10.913   5.404 129.650  0.00  0.00    +0.000 OA
BRANCH   9  10
ATOM     10  C   UNL     1     -11.529   6.630 129.622  0.00  0.00    +0.000 A 
ATOM     11  C   UNL     1     -11.472   7.496 128.531  0.00  0.00    +0.000 A 
ATOM     12  C   UNL     1     -12.027   8.775 128.590  0.00  0.00    +0.000 A 
ATOM     13  C   UNL     1     -12.758   9.151 129.707  0.00  0.00    +0.000 A 
ATOM     14 CL   UNL     1     -13.462  10.719 129.765  0.00  0.00    +0.000 Cl
ATOM     15  C   UNL     1     -12.941   8.250 130.754  0.00  0.00    +0.000 A 
ATOM     16  C   UNL     1     -12.322   6.990 130.713  0.00  0.00    +0.000 A 
ENDBRANCH   9  10
ENDBRANCH   1   9
TORSDOF 5
ENDMDL
MODEL 5
REMARK VINA RESULT:      -5.4      3.087      4.564
REMARK  Name = Clofibrate
REMARK  8 active torsions:
REMARK  status: ('A' for Active; 'I' for Inactive)
REMARK    1  A    between atoms: C_1  and  C_2
REMARK    2  A    between atoms: C_2  and  O_3
REMARK    3  A    between atoms: O_3  and  C_4
REMARK    4  A    between atoms: C_4  and  C_6
REMARK    5  A    between atoms: C_6  and  C_7
REMARK    6  A    between atoms: C_6  and  C_8
REMARK    7  A    between atoms: C_6  and  O_9
REMARK    8  A    between atoms: O_9  and  C_10
REMARK                            x       y       z     vdW  Elec       q    Type
REMARK                         _______ _______ _______ _____ _____    ______ ____
ROOT
ATOM      1  C   UNL     1      -8.226   1.001 124.843  0.00  0.00    +0.000 C 
ATOM      2  C   UNL     1      -6.752   1.072 125.266  0.00  0.00    +0.000 C 
ATOM      3  C   UNL     1      -9.127   0.808 126.067  0.00  0.00    +0.000 C 
ENDROOT
BRANCH   1   4
ATOM      4  C   UNL     1      -8.622   2.370 124.198  0.00  0.00    +0.000 C 
ATOM      5  O   UNL     1      -9.004   3.358 124.821  0.00  0.00    +0.000 OA
BRANCH   4   6
ATOM      6  O   UNL     1      -8.480   2.359 122.829  0.00  0.00    +0.000 OA
BRANCH   6   8
ATOM      7  C   UNL     1      -6.307   2.914 121.888  0.00  0.00    +0.000 C 
ATOM      8  C   UNL     1      -7.681   3.432 122.290  0.00  0.00    +0.000 C 
ENDBRANCH   6   8
ENDBRANCH   4   6
ENDBRANCH   1   4
BRANCH   1   9
ATOM      9  O   UNL     1      -8.432  -0.039 123.841  0.00  0.00    +0.000 OA
BRANCH   9  10
ATOM     10  C   UNL     1      -7.613  -1.140 123.837  0.00  0.00    +0.000 A 
ATOM     11  C   UNL     1      -7.769  -2.221 124.704  0.00  0.00    +0.000 A 
ATOM     12  C   UNL     1      -6.847  -3.268 124.732  0.00  0.00    +0.000 A 
ATOM     13  C   UNL     1      -5.824  -3.301 123.796  0.00  0.00    +0.000 A 
ATOM     14 CL   UNL     1      -4.705  -4.607 123.818  0.00  0.00    +0.000 Cl
ATOM     15  C   UNL     1      -5.728  -2.299 122.833  0.00  0.00    +0.000 A 
ATOM     16  C   UNL     1      -6.621  -1.215 122.857  0.00  0.00    +0.000 A 
ENDBRANCH   9  10
ENDBRANCH   1   9
TORSDOF 5
ENDMDL
MODEL 6
REMARK VINA RESULT:      -5.3      8.891     11.040
REMARK  Name = Clofibrate
REMARK  8 active torsions:
REMARK  status: ('A' for Active; 'I' for Inactive)
REMARK    1  A    between atoms: C_1  and  C_2
REMARK    2  A    between atoms: C_2  and  O_3
REMARK    3  A    between atoms: O_3  and  C_4
REMARK    4  A    between atoms: C_4  and  C_6
REMARK    5  A    between atoms: C_6  and  C_7
REMARK    6  A    between atoms: C_6  and  C_8
REMARK    7  A    between atoms: C_6  and  O_9
REMARK    8  A    between atoms: O_9  and  C_10
REMARK                            x       y       z     vdW  Elec       q    Type
REMARK                         _______ _______ _______ _____ _____    ______ ____
ROOT
ATOM      1  C   UNL     1      -9.093   5.642 131.281  0.00  0.00    +0.000 C 
ATOM      2  C   UNL     1      -9.622   5.740 132.719  0.00  0.00    +0.000 C 
ATOM      3  C   UNL     1      -8.186   6.834 130.959  0.00  0.00    +0.000 C 
ENDROOT
BRANCH   1   4
ATOM      4  C   UNL     1      -8.211   4.355 131.164  0.00  0.00    +0.000 C 
ATOM      5  O   UNL     1      -7.123   4.195 131.714  0.00  0.00    +0.000 OA
BRANCH   4   6
ATOM      6  O   UNL     1      -8.801   3.391 130.379  0.00  0.00    +0.000 OA
BRANCH   6   8
ATOM      7  C   UNL     1      -9.886   1.939 132.000  0.00  0.00    +0.000 C 
ATOM      8  C   UNL     1      -8.801   2.063 130.940  0.00  0.00    +0.000 C 
ENDBRANCH   6   8
ENDBRANCH   4   6
ENDBRANCH   1   4
BRANCH   1   9
ATOM      9  O   UNL     1     -10.191   5.516 130.328  0.00  0.00    +0.000 OA
BRANCH   9  10
ATOM     10  C   UNL     1     -10.966   6.614 130.048  0.00  0.00    +0.000 A 
ATOM     11  C   UNL     1     -12.014   7.045 130.860  0.00  0.00    +0.000 A 
ATOM     12  C   UNL     1     -12.838   8.104 130.479  0.00  0.00    +0.000 A 
ATOM     13  C   UNL     1     -12.537   8.826 129.333  0.00  0.00    +0.000 A 
ATOM     14 CL   UNL     1     -13.540  10.147 128.881  0.00  0.00    +0.000 Cl
ATOM     15  C   UNL     1     -11.413   8.496 128.579  0.00  0.00    +0.000 A 
ATOM     16  C   UNL     1     -10.629   7.386 128.935  0.00  0.00    +0.000 A 
ENDBRANCH   9  10
ENDBRANCH   1   9
TORSDOF 5
ENDMDL
MODEL 7
REMARK VINA RESULT:      -5.3      9.085      9.862
REMARK  Name = Clofibrate
REMARK  8 active torsions:
REMARK  status: ('A' for Active; 'I' for Inactive)
REMARK    1  A    between atoms: C_1  and  C_2
REMARK    2  A    between atoms: C_2  and  O_3
REMARK    3  A    between atoms: O_3  and  C_4
REMARK    4  A    between atoms: C_4  and  C_6
REMARK    5  A    between atoms: C_6  and  C_7
REMARK    6  A    between atoms: C_6  and  C_8
REMARK    7  A    between atoms: C_6  and  O_9
REMARK    8  A    between atoms: O_9  and  C_10
REMARK                            x       y       z     vdW  Elec       q    Type
REMARK                         _______ _______ _______ _____ _____    ______ ____
ROOT
ATOM      1  C   UNL     1     -10.688   6.480 130.900  0.00  0.00    +0.000 C 
ATOM      2  C   UNL     1     -12.028   6.723 131.608  0.00  0.00    +0.000 C 
ATOM      3  C   UNL     1     -10.673   5.098 130.238  0.00  0.00    +0.000 C 
ENDROOT
BRANCH   1   4
ATOM      4  C   UNL     1     -10.534   7.535 129.756  0.00  0.00    +0.000 C 
ATOM      5  O   UNL     1      -9.509   7.719 129.102  0.00  0.00    +0.000 OA
BRANCH   4   6
ATOM      6  O   UNL     1     -11.695   8.240 129.541  0.00  0.00    +0.000 OA
BRANCH   6   8
ATOM      7  C   UNL     1     -13.327   7.384 127.955  0.00  0.00    +0.000 C 
ATOM      8  C   UNL     1     -12.129   8.298 128.166  0.00  0.00    +0.000 C 
ENDBRANCH   6   8
ENDBRANCH   4   6
ENDBRANCH   1   4
BRANCH   1   9
ATOM      9  O   UNL     1      -9.570   6.657 131.822  0.00  0.00    +0.000 OA
BRANCH   9  10
ATOM     10  C   UNL     1      -8.885   5.554 132.266  0.00  0.00    +0.000 A 
ATOM     11  C   UNL     1      -7.651   5.155 131.754  0.00  0.00    +0.000 A 
ATOM     12  C   UNL     1      -7.044   3.968 132.165  0.00  0.00    +0.000 A 
ATOM     13  C   UNL     1      -7.613   3.231 133.193  0.00  0.00    +0.000 A 
ATOM     14 CL   UNL     1      -6.848   1.782 133.714  0.00  0.00    +0.000 Cl
ATOM     15  C   UNL     1      -8.777   3.683 133.812  0.00  0.00    +0.000 A 
ATOM     16  C   UNL     1      -9.415   4.843 133.345  0.00  0.00    +0.000 A 
ENDBRANCH   9  10
ENDBRANCH   1   9
TORSDOF 5
ENDMDL
MODEL 8
REMARK VINA RESULT:      -5.3      2.489      3.744
REMARK  Name = Clofibrate
REMARK  8 active torsions:
REMARK  status: ('A' for Active; 'I' for Inactive)
REMARK    1  A    between atoms: C_1  and  C_2
REMARK    2  A    between atoms: C_2  and  O_3
REMARK    3  A    between atoms: O_3  and  C_4
REMARK    4  A    between atoms: C_4  and  C_6
REMARK    5  A    between atoms: C_6  and  C_7
REMARK    6  A    between atoms: C_6  and  C_8
REMARK    7  A    between atoms: C_6  and  O_9
REMARK    8  A    between atoms: O_9  and  C_10
REMARK                            x       y       z     vdW  Elec       q    Type
REMARK                         _______ _______ _______ _____ _____    ______ ____
ROOT
ATOM      1  C   UNL     1      -9.063   0.997 123.732  0.00  0.00    +0.000 C 
ATOM      2  C   UNL     1      -9.919   1.153 124.997  0.00  0.00    +0.000 C 
ATOM      3  C   UNL     1      -9.951   0.739 122.511  0.00  0.00    +0.000 C 
ENDROOT
BRANCH   1   4
ATOM      4  C   UNL     1      -8.313   2.346 123.473  0.00  0.00    +0.000 C 
ATOM      5  O   UNL     1      -8.619   3.428 123.968  0.00  0.00    +0.000 OA
BRANCH   4   6
ATOM      6  O   UNL     1      -7.239   2.187 122.627  0.00  0.00    +0.000 OA
BRANCH   6   8
ATOM      7  C   UNL     1      -5.663   3.167 121.056  0.00  0.00    +0.000 C 
ATOM      8  C   UNL     1      -6.574   3.411 122.250  0.00  0.00    +0.000 C 
ENDBRANCH   6   8
ENDBRANCH   4   6
ENDBRANCH   1   4
BRANCH   1   9
ATOM      9  O   UNL     1      -8.056  -0.045 123.908  0.00  0.00    +0.000 OA
BRANCH   9  10
ATOM     10  C   UNL     1      -8.271  -1.036 124.832  0.00  0.00    +0.000 A 
ATOM     11  C   UNL     1      -9.012  -2.188 124.569  0.00  0.00    +0.000 A 
ATOM     12  C   UNL     1      -9.290  -3.116 125.572  0.00  0.00    +0.000 A 
ATOM     13  C   UNL     1      -8.716  -2.960 126.825  0.00  0.00    +0.000 A 
ATOM     14 CL   UNL     1      -9.041  -4.121 128.051  0.00  0.00    +0.000 Cl
ATOM     15  C   UNL     1      -7.862  -1.887 127.070  0.00  0.00    +0.000 A 
ATOM     16  C   UNL     1      -7.643  -0.922 126.074  0.00  0.00    +0.000 A 
ENDBRANCH   9  10
ENDBRANCH   1   9
TORSDOF 5
ENDMDL
MODEL 9
REMARK VINA RESULT:      -5.3      7.833      9.173
REMARK  Name = Clofibrate
REMARK  8 active torsions:
REMARK  status: ('A' for Active; 'I' for Inactive)
REMARK    1  A    between atoms: C_1  and  C_2
REMARK    2  A    between atoms: C_2  and  O_3
REMARK    3  A    between atoms: O_3  and  C_4
REMARK    4  A    between atoms: C_4  and  C_6
REMARK    5  A    between atoms: C_6  and  C_7
REMARK    6  A    between atoms: C_6  and  C_8
REMARK    7  A    between atoms: C_6  and  O_9
REMARK    8  A    between atoms: O_9  and  C_10
REMARK                            x       y       z     vdW  Elec       q    Type
REMARK                         _______ _______ _______ _____ _____    ______ ____
ROOT
ATOM      1  C   UNL     1     -10.305   6.600 130.298  0.00  0.00    +0.000 C 
ATOM      2  C   UNL     1      -8.919   6.887 130.893  0.00  0.00    +0.000 C 
ATOM      3  C   UNL     1     -11.362   6.534 131.405  0.00  0.00    +0.000 C 
ENDROOT
BRANCH   1   4
ATOM      4  C   UNL     1     -10.699   7.791 129.363  0.00  0.00    +0.000 C 
ATOM      5  O   UNL     1     -10.001   8.232 128.452  0.00  0.00    +0.000 OA
BRANCH   4   6
ATOM      6  O   UNL     1     -11.944   8.296 129.663  0.00  0.00    +0.000 OA
BRANCH   6   8
ATOM      7  C   UNL     1     -13.555   7.297 128.140  0.00  0.00    +0.000 C 
ATOM      8  C   UNL     1     -12.788   8.555 128.523  0.00  0.00    +0.000 C 
ENDBRANCH   6   8
ENDBRANCH   4   6
ENDBRANCH   1   4
BRANCH   1   9
ATOM      9  O   UNL     1     -10.285   5.387 129.487  0.00  0.00    +0.000 OA
BRANCH   9  10
ATOM     10  C   UNL     1      -9.821   4.219 130.038  0.00  0.00    +0.000 A 
ATOM     11  C   UNL     1     -10.590   3.393 130.857  0.00  0.00    +0.000 A 
ATOM     12  C   UNL     1     -10.041   2.271 131.478  0.00  0.00    +0.000 A 
ATOM     13  C   UNL     1      -8.740   1.894 131.179  0.00  0.00    +0.000 A 
ATOM     14 CL   UNL     1      -8.075   0.496 131.927  0.00  0.00    +0.000 Cl
ATOM     15  C   UNL     1      -7.996   2.630 130.259  0.00  0.00    +0.000 A 
ATOM     16  C   UNL     1      -8.536   3.795 129.691  0.00  0.00    +0.000 A 
ENDBRANCH   9  10
ENDBRANCH   1   9
TORSDOF 5
ENDMDL
