MODEL 1
REMARK VINA RESULT:      -6.9      0.000      0.000
REMARK  Name = Clofedanol
REMARK  8 active torsions:
REMARK  status: ('A' for Active; 'I' for Inactive)
REMARK    1  A    between atoms: C_1  and  N_2
REMARK    2  A    between atoms: N_2  and  C_3
REMARK    3  A    between atoms: N_2  and  C_4
REMARK    4  A    between atoms: C_4  and  C_5
REMARK    5  A    between atoms: C_5  and  C_6
REMARK    6  A    between atoms: C_6  and  O_7
REMARK    7  A    between atoms: C_6  and  C_8
REMARK    8  A    between atoms: C_6  and  C_14
REMARK                            x       y       z     vdW  Elec       q    Type
REMARK                         _______ _______ _______ _____ _____    ______ ____
ROOT
ATOM      1  C   UNL     1      -8.232  -1.447 125.388  0.00  0.00    +0.000 C 
ENDROOT
BRANCH   1   2
ATOM      2  C   UNL     1      -8.249  -2.082 126.805  0.00  0.00    +0.000 A 
ATOM      3  C   UNL     1      -8.939  -3.319 126.914  0.00  0.00    +0.000 A 
ATOM      4  C   UNL     1      -9.047  -4.002 128.126  0.00  0.00    +0.000 A 
ATOM      5  C   UNL     1      -8.468  -3.478 129.269  0.00  0.00    +0.000 A 
ATOM      6  C   UNL     1      -7.779  -2.277 129.201  0.00  0.00    +0.000 A 
ATOM      7  C   UNL     1      -7.650  -1.583 127.991  0.00  0.00    +0.000 A 
ATOM      8 CL   UNL     1      -6.671  -0.163 128.187  0.00  0.00    +0.000 Cl
ENDBRANCH   1   2
BRANCH   1   9
ATOM      9  C   UNL     1      -7.025  -1.869 124.526  0.00  0.00    +0.000 A 
ATOM     10  C   UNL     1      -6.994  -1.580 123.151  0.00  0.00    +0.000 A 
ATOM     11  C   UNL     1      -6.003  -2.112 122.324  0.00  0.00    +0.000 A 
ATOM     12  C   UNL     1      -5.025  -2.940 122.856  0.00  0.00    +0.000 A 
ATOM     13  C   UNL     1      -5.017  -3.227 124.216  0.00  0.00    +0.000 A 
ATOM     14  C   UNL     1      -5.992  -2.671 125.049  0.00  0.00    +0.000 A 
ENDBRANCH   1   9
BRANCH   1  15
ATOM     15  O   UNL     1      -9.448  -1.914 124.776  0.00  0.00    +0.000 OA
ATOM     16  H   UNL     1      -9.758  -1.251 124.143  0.00  0.00    +0.000 HD
ENDBRANCH   1  15
BRANCH   1  17
ATOM     17  C   UNL     1      -8.276   0.083 125.460  0.00  0.00    +0.000 C 
BRANCH  17  18
ATOM     18  C   UNL     1      -9.604   0.789 125.657  0.00  0.00    +0.000 C 
BRANCH  18  20
ATOM     19  C   UNL     1      -8.693   2.764 124.701  0.00  0.00    +0.000 C 
ATOM     20  N   UNL     1      -9.815   1.831 124.638  0.00  0.00    +0.000 NA
ATOM     21  C   UNL     1      -9.950   1.278 123.290  0.00  0.00    +0.000 C 
ENDBRANCH  18  20
ENDBRANCH  17  18
ENDBRANCH   1  17
TORSDOF 6
ENDMDL
MODEL 2
REMARK VINA RESULT:      -6.8      7.595     10.056
REMARK  Name = Clofedanol
REMARK  8 active torsions:
REMARK  status: ('A' for Active; 'I' for Inactive)
REMARK    1  A    between atoms: C_1  and  N_2
REMARK    2  A    between atoms: N_2  and  C_3
REMARK    3  A    between atoms: N_2  and  C_4
REMARK    4  A    between atoms: C_4  and  C_5
REMARK    5  A    between atoms: C_5  and  C_6
REMARK    6  A    between atoms: C_6  and  O_7
REMARK    7  A    between atoms: C_6  and  C_8
REMARK    8  A    between atoms: C_6  and  C_14
REMARK                            x       y       z     vdW  Elec       q    Type
REMARK                         _______ _______ _______ _____ _____    ______ ____
ROOT
ATOM      1  C   UNL     1      -9.311   6.150 131.767  0.00  0.00    +0.000 C 
ENDROOT
BRANCH   1   2
ATOM      2  C   UNL     1      -9.161   4.607 131.673  0.00  0.00    +0.000 A 
ATOM      3  C   UNL     1      -9.374   3.895 132.883  0.00  0.00    +0.000 A 
ATOM      4  C   UNL     1      -9.265   2.506 132.955  0.00  0.00    +0.000 A 
ATOM      5  C   UNL     1      -8.942   1.779 131.821  0.00  0.00    +0.000 A 
ATOM      6  C   UNL     1      -8.734   2.438 130.619  0.00  0.00    +0.000 A 
ATOM      7  C   UNL     1      -8.852   3.830 130.527  0.00  0.00    +0.000 A 
ATOM      8 CL   UNL     1      -8.621   4.368 128.892  0.00  0.00    +0.000 Cl
ENDBRANCH   1   2
BRANCH   1   9
ATOM      9  C   UNL     1     -10.546   6.707 131.031  0.00  0.00    +0.000 A 
ATOM     10  C   UNL     1     -10.399   7.416 129.826  0.00  0.00    +0.000 A 
ATOM     11  C   UNL     1     -11.480   8.081 129.245  0.00  0.00    +0.000 A 
ATOM     12  C   UNL     1     -12.725   8.049 129.855  0.00  0.00    +0.000 A 
ATOM     13  C   UNL     1     -12.906   7.339 131.036  0.00  0.00    +0.000 A 
ATOM     14  C   UNL     1     -11.832   6.648 131.603  0.00  0.00    +0.000 A 
ENDBRANCH   1   9
BRANCH   1  15
ATOM     15  O   UNL     1      -9.435   6.409 133.179  0.00  0.00    +0.000 OA
ATOM     16  H   UNL     1      -9.023   7.260 133.382  0.00  0.00    +0.000 HD
ENDBRANCH   1  15
BRANCH   1  17
ATOM     17  C   UNL     1      -8.061   6.867 131.247  0.00  0.00    +0.000 C 
BRANCH  17  18
ATOM     18  C   UNL     1      -6.685   6.326 131.589  0.00  0.00    +0.000 C 
BRANCH  18  20
ATOM     19  C   UNL     1      -4.751   7.308 130.622  0.00  0.00    +0.000 C 
ATOM     20  N   UNL     1      -5.803   6.317 130.411  0.00  0.00    +0.000 NA
ATOM     21  C   UNL     1      -5.224   4.998 130.152  0.00  0.00    +0.000 C 
ENDBRANCH  18  20
ENDBRANCH  17  18
ENDBRANCH   1  17
TORSDOF 6
ENDMDL
MODEL 3
REMARK VINA RESULT:      -6.7      3.700      5.601
REMARK  Name = Clofedanol
REMARK  8 active torsions:
REMARK  status: ('A' for Active; 'I' for Inactive)
REMARK    1  A    between atoms: C_1  and  N_2
REMARK    2  A    between atoms: N_2  and  C_3
REMARK    3  A    between atoms: N_2  and  C_4
REMARK    4  A    between atoms: C_4  and  C_5
REMARK    5  A    between atoms: C_5  and  C_6
REMARK    6  A    between atoms: C_6  and  O_7
REMARK    7  A    between atoms: C_6  and  C_8
REMARK    8  A    between atoms: C_6  and  C_14
REMARK                            x       y       z     vdW  Elec       q    Type
REMARK                         _______ _______ _______ _____ _____    ______ ____
ROOT
ATOM      1  C   UNL     1      -7.628   2.025 123.799  0.00  0.00    +0.000 C 
ENDROOT
BRANCH   1   2
ATOM      2  C   UNL     1      -7.824   0.506 123.549  0.00  0.00    +0.000 A 
ATOM      3  C   UNL     1      -6.727  -0.322 123.906  0.00  0.00    +0.000 A 
ATOM      4  C   UNL     1      -6.755  -1.706 123.730  0.00  0.00    +0.000 A 
ATOM      5  C   UNL     1      -7.878  -2.312 123.194  0.00  0.00    +0.000 A 
ATOM      6  C   UNL     1      -8.973  -1.538 122.840  0.00  0.00    +0.000 A 
ATOM      7  C   UNL     1      -8.967  -0.150 123.021  0.00  0.00    +0.000 A 
ATOM      8 CL   UNL     1     -10.493   0.544 122.569  0.00  0.00    +0.000 Cl
ENDBRANCH   1   2
BRANCH   1   9
ATOM      9  C   UNL     1      -7.463   2.857 122.511  0.00  0.00    +0.000 A 
ATOM     10  C   UNL     1      -8.589   3.269 121.778  0.00  0.00    +0.000 A 
ATOM     11  C   UNL     1      -8.454   3.860 120.521  0.00  0.00    +0.000 A 
ATOM     12  C   UNL     1      -7.193   4.052 119.975  0.00  0.00    +0.000 A 
ATOM     13  C   UNL     1      -6.059   3.676 120.686  0.00  0.00    +0.000 A 
ATOM     14  C   UNL     1      -6.193   3.110 121.957  0.00  0.00    +0.000 A 
ENDBRANCH   1   9
BRANCH   1  15
ATOM     15  O   UNL     1      -8.828   2.430 124.483  0.00  0.00    +0.000 OA
ATOM     16  H   UNL     1      -9.105   3.295 124.152  0.00  0.00    +0.000 HD
ENDBRANCH   1  15
BRANCH   1  17
ATOM     17  C   UNL     1      -6.429   2.292 124.716  0.00  0.00    +0.000 C 
BRANCH  17  18
ATOM     18  C   UNL     1      -6.628   3.051 126.014  0.00  0.00    +0.000 C 
BRANCH  18  20
ATOM     19  C   UNL     1      -4.408   3.867 125.800  0.00  0.00    +0.000 C 
ATOM     20  N   UNL     1      -5.790   4.260 126.064  0.00  0.00    +0.000 NA
ATOM     21  C   UNL     1      -6.225   5.284 125.113  0.00  0.00    +0.000 C 
ENDBRANCH  18  20
ENDBRANCH  17  18
ENDBRANCH   1  17
TORSDOF 6
ENDMDL
MODEL 4
REMARK VINA RESULT:      -6.6      2.192      2.690
REMARK  Name = Clofedanol
REMARK  8 active torsions:
REMARK  status: ('A' for Active; 'I' for Inactive)
REMARK    1  A    between atoms: C_1  and  N_2
REMARK    2  A    between atoms: N_2  and  C_3
REMARK    3  A    between atoms: N_2  and  C_4
REMARK    4  A    between atoms: C_4  and  C_5
REMARK    5  A    between atoms: C_5  and  C_6
REMARK    6  A    between atoms: C_6  and  O_7
REMARK    7  A    between atoms: C_6  and  C_8
REMARK    8  A    between atoms: C_6  and  C_14
REMARK                            x       y       z     vdW  Elec       q    Type
REMARK                         _______ _______ _______ _____ _____    ______ ____
ROOT
ATOM      1  C   UNL     1      -7.038  -0.810 126.196  0.00  0.00    +0.000 C 
ENDROOT
BRANCH   1   2
ATOM      2  C   UNL     1      -7.694  -1.883 127.106  0.00  0.00    +0.000 A 
ATOM      3  C   UNL     1      -7.375  -1.795 128.487  0.00  0.00    +0.000 A 
ATOM      4  C   UNL     1      -7.883  -2.695 129.423  0.00  0.00    +0.000 A 
ATOM      5  C   UNL     1      -8.728  -3.713 129.016  0.00  0.00    +0.000 A 
ATOM      6  C   UNL     1      -9.069  -3.827 127.677  0.00  0.00    +0.000 A 
ATOM      7  C   UNL     1      -8.579  -2.925 126.725  0.00  0.00    +0.000 A 
ATOM      8 CL   UNL     1      -9.235  -3.259 125.153  0.00  0.00    +0.000 Cl
ENDBRANCH   1   2
BRANCH   1   9
ATOM      9  C   UNL     1      -6.385  -1.382 124.921  0.00  0.00    +0.000 A 
ATOM     10  C   UNL     1      -6.846  -1.000 123.650  0.00  0.00    +0.000 A 
ATOM     11  C   UNL     1      -6.394  -1.643 122.496  0.00  0.00    +0.000 A 
ATOM     12  C   UNL     1      -5.473  -2.676 122.591  0.00  0.00    +0.000 A 
ATOM     13  C   UNL     1      -4.983  -3.062 123.833  0.00  0.00    +0.000 A 
ATOM     14  C   UNL     1      -5.413  -2.400 124.986  0.00  0.00    +0.000 A 
ENDBRANCH   1   9
BRANCH   1  15
ATOM     15  O   UNL     1      -8.126   0.059 125.831  0.00  0.00    +0.000 OA
ATOM     16  H   UNL     1      -8.614   0.307 126.628  0.00  0.00    +0.000 HD
ENDBRANCH   1  15
BRANCH   1  17
ATOM     17  C   UNL     1      -5.993   0.010 126.960  0.00  0.00    +0.000 C 
BRANCH  17  18
ATOM     18  C   UNL     1      -5.234   1.115 126.248  0.00  0.00    +0.000 C 
BRANCH  18  20
ATOM     19  C   UNL     1      -6.463   2.816 127.361  0.00  0.00    +0.000 C 
ATOM     20  N   UNL     1      -6.078   2.304 126.048  0.00  0.00    +0.000 NA
ATOM     21  C   UNL     1      -5.407   3.344 125.266  0.00  0.00    +0.000 C 
ENDBRANCH  18  20
ENDBRANCH  17  18
ENDBRANCH   1  17
TORSDOF 6
ENDMDL
MODEL 5
REMARK VINA RESULT:      -6.5      7.451     10.017
REMARK  Name = Clofedanol
REMARK  8 active torsions:
REMARK  status: ('A' for Active; 'I' for Inactive)
REMARK    1  A    between atoms: C_1  and  N_2
REMARK    2  A    between atoms: N_2  and  C_3
REMARK    3  A    between atoms: N_2  and  C_4
REMARK    4  A    between atoms: C_4  and  C_5
REMARK    5  A    between atoms: C_5  and  C_6
REMARK    6  A    between atoms: C_6  and  O_7
REMARK    7  A    between atoms: C_6  and  C_8
REMARK    8  A    between atoms: C_6  and  C_14
REMARK                            x       y       z     vdW  Elec       q    Type
REMARK                         _______ _______ _______ _____ _____    ______ ____
ROOT
ATOM      1  C   UNL     1      -8.874   6.127 130.521  0.00  0.00    +0.000 C 
ENDROOT
BRANCH   1   2
ATOM      2  C   UNL     1      -8.807   5.306 131.838  0.00  0.00    +0.000 A 
ATOM      3  C   UNL     1      -8.073   5.904 132.897  0.00  0.00    +0.000 A 
ATOM      4  C   UNL     1      -7.919   5.279 134.135  0.00  0.00    +0.000 A 
ATOM      5  C   UNL     1      -8.493   4.040 134.361  0.00  0.00    +0.000 A 
ATOM      6  C   UNL     1      -9.223   3.428 133.354  0.00  0.00    +0.000 A 
ATOM      7  C   UNL     1      -9.399   4.045 132.109  0.00  0.00    +0.000 A 
ATOM      8 CL   UNL     1     -10.421   3.092 131.079  0.00  0.00    +0.000 Cl
ENDBRANCH   1   2
BRANCH   1   9
ATOM      9  C   UNL     1     -10.183   6.922 130.343  0.00  0.00    +0.000 A 
ATOM     10  C   UNL     1     -11.282   6.687 131.187  0.00  0.00    +0.000 A 
ATOM     11  C   UNL     1     -12.527   7.261 130.926  0.00  0.00    +0.000 A 
ATOM     12  C   UNL     1     -12.696   8.080 129.819  0.00  0.00    +0.000 A 
ATOM     13  C   UNL     1     -11.623   8.348 128.978  0.00  0.00    +0.000 A 
ATOM     14  C   UNL     1     -10.369   7.797 129.255  0.00  0.00    +0.000 A 
ENDBRANCH   1   9
BRANCH   1  15
ATOM     15  O   UNL     1      -7.765   7.041 130.617  0.00  0.00    +0.000 OA
ATOM     16  H   UNL     1      -7.083   6.652 131.182  0.00  0.00    +0.000 HD
ENDBRANCH   1  15
BRANCH   1  17
ATOM     17  C   UNL     1      -8.666   5.235 129.294  0.00  0.00    +0.000 C 
BRANCH  17  18
ATOM     18  C   UNL     1      -7.533   4.225 129.278  0.00  0.00    +0.000 C 
BRANCH  18  20
ATOM     19  C   UNL     1      -5.413   4.587 130.285  0.00  0.00    +0.000 C 
ATOM     20  N   UNL     1      -6.228   4.885 129.110  0.00  0.00    +0.000 NA
ATOM     21  C   UNL     1      -5.541   4.468 127.887  0.00  0.00    +0.000 C 
ENDBRANCH  18  20
ENDBRANCH  17  18
ENDBRANCH   1  17
TORSDOF 6
ENDMDL
MODEL 6
REMARK VINA RESULT:      -6.3      2.574      4.813
REMARK  Name = Clofedanol
REMARK  8 active torsions:
REMARK  status: ('A' for Active; 'I' for Inactive)
REMARK    1  A    between atoms: C_1  and  N_2
REMARK    2  A    between atoms: N_2  and  C_3
REMARK    3  A    between atoms: N_2  and  C_4
REMARK    4  A    between atoms: C_4  and  C_5
REMARK    5  A    between atoms: C_5  and  C_6
REMARK    6  A    between atoms: C_6  and  O_7
REMARK    7  A    between atoms: C_6  and  C_8
REMARK    8  A    between atoms: C_6  and  C_14
REMARK                            x       y       z     vdW  Elec       q    Type
REMARK                         _______ _______ _______ _____ _____    ______ ____
ROOT
ATOM      1  C   UNL     1      -6.284  -1.325 127.688  0.00  0.00    +0.000 C 
ENDROOT
BRANCH   1   2
ATOM      2  C   UNL     1      -6.530  -1.963 126.294  0.00  0.00    +0.000 A 
ATOM      3  C   UNL     1      -5.567  -1.651 125.298  0.00  0.00    +0.000 A 
ATOM      4  C   UNL     1      -5.661  -2.144 123.996  0.00  0.00    +0.000 A 
ATOM      5  C   UNL     1      -6.718  -2.966 123.643  0.00  0.00    +0.000 A 
ATOM      6  C   UNL     1      -7.674  -3.299 124.590  0.00  0.00    +0.000 A 
ATOM      7  C   UNL     1      -7.589  -2.824 125.904  0.00  0.00    +0.000 A 
ATOM      8 CL   UNL     1      -8.869  -3.466 126.885  0.00  0.00    +0.000 Cl
ENDBRANCH   1   2
BRANCH   1   9
ATOM      9  C   UNL     1      -5.822  -2.328 128.765  0.00  0.00    +0.000 A 
ATOM     10  C   UNL     1      -4.485  -2.757 128.814  0.00  0.00    +0.000 A 
ATOM     11  C   UNL     1      -4.092  -3.797 129.658  0.00  0.00    +0.000 A 
ATOM     12  C   UNL     1      -5.026  -4.424 130.469  0.00  0.00    +0.000 A 
ATOM     13  C   UNL     1      -6.351  -4.007 130.459  0.00  0.00    +0.000 A 
ATOM     14  C   UNL     1      -6.740  -2.947 129.635  0.00  0.00    +0.000 A 
ENDBRANCH   1   9
BRANCH   1  15
ATOM     15  O   UNL     1      -5.245  -0.355 127.456  0.00  0.00    +0.000 OA
ATOM     16  H   UNL     1      -4.388  -0.753 127.664  0.00  0.00    +0.000 HD
ENDBRANCH   1  15
BRANCH   1  17
ATOM     17  C   UNL     1      -7.530  -0.593 128.197  0.00  0.00    +0.000 C 
BRANCH  17  18
ATOM     18  C   UNL     1      -7.608   0.919 128.100  0.00  0.00    +0.000 C 
BRANCH  18  20
ATOM     19  C   UNL     1      -9.029   0.882 126.197  0.00  0.00    +0.000 C 
ATOM     20  N   UNL     1      -7.745   1.361 126.703  0.00  0.00    +0.000 NA
ATOM     21  C   UNL     1      -7.646   2.814 126.562  0.00  0.00    +0.000 C 
ENDBRANCH  18  20
ENDBRANCH  17  18
ENDBRANCH   1  17
TORSDOF 6
ENDMDL
MODEL 7
REMARK VINA RESULT:      -6.3      2.330      4.503
REMARK  Name = Clofedanol
REMARK  8 active torsions:
REMARK  status: ('A' for Active; 'I' for Inactive)
REMARK    1  A    between atoms: C_1  and  N_2
REMARK    2  A    between atoms: N_2  and  C_3
REMARK    3  A    between atoms: N_2  and  C_4
REMARK    4  A    between atoms: C_4  and  C_5
REMARK    5  A    between atoms: C_5  and  C_6
REMARK    6  A    between atoms: C_6  and  O_7
REMARK    7  A    between atoms: C_6  and  C_8
REMARK    8  A    between atoms: C_6  and  C_14
REMARK                            x       y       z     vdW  Elec       q    Type
REMARK                         _______ _______ _______ _____ _____    ______ ____
ROOT
ATOM      1  C   UNL     1      -6.912  -0.650 126.011  0.00  0.00    +0.000 C 
ENDROOT
BRANCH   1   2
ATOM      2  C   UNL     1      -7.636  -1.772 126.804  0.00  0.00    +0.000 A 
ATOM      3  C   UNL     1      -7.405  -1.780 128.205  0.00  0.00    +0.000 A 
ATOM      4  C   UNL     1      -7.980  -2.734 129.045  0.00  0.00    +0.000 A 
ATOM      5  C   UNL     1      -8.808  -3.710 128.518  0.00  0.00    +0.000 A 
ATOM      6  C   UNL     1      -9.063  -3.731 127.155  0.00  0.00    +0.000 A 
ATOM      7  C   UNL     1      -8.504  -2.775 126.299  0.00  0.00    +0.000 A 
ATOM      8 CL   UNL     1      -9.061  -2.994 124.669  0.00  0.00    +0.000 Cl
ENDBRANCH   1   2
BRANCH   1   9
ATOM      9  C   UNL     1      -7.861   0.273 125.220  0.00  0.00    +0.000 A 
ATOM     10  C   UNL     1      -9.167   0.515 125.678  0.00  0.00    +0.000 A 
ATOM     11  C   UNL     1     -10.094   1.195 124.887  0.00  0.00    +0.000 A 
ATOM     12  C   UNL     1      -9.733   1.645 123.625  0.00  0.00    +0.000 A 
ATOM     13  C   UNL     1      -8.443   1.439 123.153  0.00  0.00    +0.000 A 
ATOM     14  C   UNL     1      -7.505   0.784 123.957  0.00  0.00    +0.000 A 
ENDBRANCH   1   9
BRANCH   1  15
ATOM     15  O   UNL     1      -6.229   0.114 127.022  0.00  0.00    +0.000 OA
ATOM     16  H   UNL     1      -6.479  -0.220 127.895  0.00  0.00    +0.000 HD
ENDBRANCH   1  15
BRANCH   1  17
ATOM     17  C   UNL     1      -5.869  -1.228 125.048  0.00  0.00    +0.000 C 
BRANCH  17  18
ATOM     18  C   UNL     1      -5.423  -2.671 125.198  0.00  0.00    +0.000 C 
BRANCH  18  20
ATOM     19  C   UNL     1      -5.791  -2.450 122.862  0.00  0.00    +0.000 C 
ATOM     20  N   UNL     1      -5.580  -3.415 123.938  0.00  0.00    +0.000 NA
ATOM     21  C   UNL     1      -4.429  -4.271 123.645  0.00  0.00    +0.000 C 
ENDBRANCH  18  20
ENDBRANCH  17  18
ENDBRANCH   1  17
TORSDOF 6
ENDMDL
MODEL 8
REMARK VINA RESULT:      -6.2      2.575      5.111
REMARK  Name = Clofedanol
REMARK  8 active torsions:
REMARK  status: ('A' for Active; 'I' for Inactive)
REMARK    1  A    between atoms: C_1  and  N_2
REMARK    2  A    between atoms: N_2  and  C_3
REMARK    3  A    between atoms: N_2  and  C_4
REMARK    4  A    between atoms: C_4  and  C_5
REMARK    5  A    between atoms: C_5  and  C_6
REMARK    6  A    between atoms: C_6  and  O_7
REMARK    7  A    between atoms: C_6  and  C_8
REMARK    8  A    between atoms: C_6  and  C_14
REMARK                            x       y       z     vdW  Elec       q    Type
REMARK                         _______ _______ _______ _____ _____    ______ ____
ROOT
ATOM      1  C   UNL     1      -6.452  -1.001 126.645  0.00  0.00    +0.000 C 
ENDROOT
BRANCH   1   2
ATOM      2  C   UNL     1      -6.416  -1.335 125.129  0.00  0.00    +0.000 A 
ATOM      3  C   UNL     1      -5.368  -2.199 124.715  0.00  0.00    +0.000 A 
ATOM      4  C   UNL     1      -5.204  -2.578 123.383  0.00  0.00    +0.000 A 
ATOM      5  C   UNL     1      -6.080  -2.113 122.418  0.00  0.00    +0.000 A 
ATOM      6  C   UNL     1      -7.121  -1.274 122.784  0.00  0.00    +0.000 A 
ATOM      7  C   UNL     1      -7.309  -0.891 124.118  0.00  0.00    +0.000 A 
ATOM      8 CL   UNL     1      -8.731   0.089 124.293  0.00  0.00    +0.000 Cl
ENDBRANCH   1   2
BRANCH   1   9
ATOM      9  C   UNL     1      -7.399  -1.902 127.464  0.00  0.00    +0.000 A 
ATOM     10  C   UNL     1      -7.375  -1.873 128.869  0.00  0.00    +0.000 A 
ATOM     11  C   UNL     1      -8.089  -2.806 129.622  0.00  0.00    +0.000 A 
ATOM     12  C   UNL     1      -8.840  -3.783 128.985  0.00  0.00    +0.000 A 
ATOM     13  C   UNL     1      -8.901  -3.825 127.598  0.00  0.00    +0.000 A 
ATOM     14  C   UNL     1      -8.210  -2.872 126.843  0.00  0.00    +0.000 A 
ENDBRANCH   1   9
BRANCH   1  15
ATOM     15  O   UNL     1      -5.095  -1.204 127.084  0.00  0.00    +0.000 OA
ATOM     16  H   UNL     1      -4.950  -0.706 127.901  0.00  0.00    +0.000 HD
ENDBRANCH   1  15
BRANCH   1  17
ATOM     17  C   UNL     1      -6.831   0.463 126.888  0.00  0.00    +0.000 C 
BRANCH  17  18
ATOM     18  C   UNL     1      -5.765   1.457 127.312  0.00  0.00    +0.000 C 
BRANCH  18  20
ATOM     19  C   UNL     1      -5.770   2.549 125.202  0.00  0.00    +0.000 C 
ATOM     20  N   UNL     1      -4.923   1.861 126.174  0.00  0.00    +0.000 NA
ATOM     21  C   UNL     1      -3.805   2.714 126.577  0.00  0.00    +0.000 C 
ENDBRANCH  18  20
ENDBRANCH  17  18
ENDBRANCH   1  17
TORSDOF 6
ENDMDL
MODEL 9
REMARK VINA RESULT:      -6.2      2.650      4.835
REMARK  Name = Clofedanol
REMARK  8 active torsions:
REMARK  status: ('A' for Active; 'I' for Inactive)
REMARK    1  A    between atoms: C_1  and  N_2
REMARK    2  A    between atoms: N_2  and  C_3
REMARK    3  A    between atoms: N_2  and  C_4
REMARK    4  A    between atoms: C_4  and  C_5
REMARK    5  A    between atoms: C_5  and  C_6
REMARK    6  A    between atoms: C_6  and  O_7
REMARK    7  A    between atoms: C_6  and  C_8
REMARK    8  A    between atoms: C_6  and  C_14
REMARK                            x       y       z     vdW  Elec       q    Type
REMARK                         _______ _______ _______ _____ _____    ______ ____
ROOT
ATOM      1  C   UNL     1      -7.448   0.380 125.428  0.00  0.00    +0.000 C 
ENDROOT
BRANCH   1   2
ATOM      2  C   UNL     1      -7.959  -1.029 125.024  0.00  0.00    +0.000 A 
ATOM      3  C   UNL     1      -8.953  -1.587 125.870  0.00  0.00    +0.000 A 
ATOM      4  C   UNL     1      -9.500  -2.850 125.637  0.00  0.00    +0.000 A 
ATOM      5  C   UNL     1      -9.077  -3.597 124.552  0.00  0.00    +0.000 A 
ATOM      6  C   UNL     1      -8.113  -3.083 123.698  0.00  0.00    +0.000 A 
ATOM      7  C   UNL     1      -7.561  -1.813 123.909  0.00  0.00    +0.000 A 
ATOM      8 CL   UNL     1      -6.447  -1.398 122.644  0.00  0.00    +0.000 Cl
ENDBRANCH   1   2
BRANCH   1   9
ATOM      9  C   UNL     1      -7.681   1.465 124.357  0.00  0.00    +0.000 A 
ATOM     10  C   UNL     1      -8.917   1.560 123.695  0.00  0.00    +0.000 A 
ATOM     11  C   UNL     1      -9.085   2.410 122.601  0.00  0.00    +0.000 A 
ATOM     12  C   UNL     1      -8.024   3.180 122.150  0.00  0.00    +0.000 A 
ATOM     13  C   UNL     1      -6.795   3.124 122.797  0.00  0.00    +0.000 A 
ATOM     14  C   UNL     1      -6.634   2.295 123.911  0.00  0.00    +0.000 A 
ENDBRANCH   1   9
BRANCH   1  15
ATOM     15  O   UNL     1      -8.200   0.703 126.613  0.00  0.00    +0.000 OA
ATOM     16  H   UNL     1      -9.046   1.093 126.353  0.00  0.00    +0.000 HD
ENDBRANCH   1  15
BRANCH   1  17
ATOM     17  C   UNL     1      -5.959   0.354 125.788  0.00  0.00    +0.000 C 
BRANCH  17  18
ATOM     18  C   UNL     1      -5.414  -0.761 126.661  0.00  0.00    +0.000 C 
BRANCH  18  20
ATOM     19  C   UNL     1      -6.158  -2.133 128.451  0.00  0.00    +0.000 C 
ATOM     20  N   UNL     1      -6.036  -0.751 127.995  0.00  0.00    +0.000 NA
ATOM     21  C   UNL     1      -5.277   0.045 128.962  0.00  0.00    +0.000 C 
ENDBRANCH  18  20
ENDBRANCH  17  18
ENDBRANCH   1  17
TORSDOF 6
ENDMDL
