MODEL 1
REMARK VINA RESULT:      -7.5      0.000      0.000
REMARK  Name = Clomipramine
REMARK  6 active torsions:
REMARK  status: ('A' for Active; 'I' for Inactive)
REMARK    1  A    between atoms: C_1  and  N_2
REMARK    2  A    between atoms: N_2  and  C_3
REMARK    3  A    between atoms: N_2  and  C_4
REMARK    4  A    between atoms: C_4  and  C_5
REMARK    5  A    between atoms: C_5  and  C_6
REMARK    6  A    between atoms: C_6  and  N_7
REMARK                            x       y       z     vdW  Elec       q    Type
REMARK                         _______ _______ _______ _____ _____    ______ ____
ROOT
ATOM      1  N   UNL     1      -6.315  -1.766 127.471  0.00  0.00    +0.000 N 
ATOM      2  C   UNL     1      -5.917  -2.578 128.548  0.00  0.00    +0.000 A 
ATOM      3  C   UNL     1      -4.559  -2.854 128.761  0.00  0.00    +0.000 A 
ATOM      4  C   UNL     1      -4.144  -3.697 129.789  0.00  0.00    +0.000 A 
ATOM      5  C   UNL     1      -5.092  -4.302 130.604  0.00  0.00    +0.000 A 
ATOM      6  C   UNL     1      -6.450  -4.066 130.389  0.00  0.00    +0.000 A 
ATOM      7  C   UNL     1      -6.867  -3.207 129.359  0.00  0.00    +0.000 A 
ATOM      8  C   UNL     1      -8.324  -3.004 129.047  0.00  0.00    +0.000 C 
ATOM      9  C   UNL     1      -8.689  -3.683 127.724  0.00  0.00    +0.000 C 
ATOM     10  C   UNL     1      -8.073  -3.168 126.433  0.00  0.00    +0.000 A 
ATOM     11  C   UNL     1      -7.021  -2.230 126.350  0.00  0.00    +0.000 A 
ATOM     12  C   UNL     1      -6.582  -1.822 125.073  0.00  0.00    +0.000 A 
ATOM     13  C   UNL     1      -7.149  -2.334 123.912  0.00  0.00    +0.000 A 
ATOM     14 CL   UNL     1      -6.575  -1.812 122.377  0.00  0.00    +0.000 Cl
ATOM     15  C   UNL     1      -8.162  -3.278 123.990  0.00  0.00    +0.000 A 
ATOM     16  C   UNL     1      -8.616  -3.690 125.240  0.00  0.00    +0.000 A 
ENDROOT
BRANCH   1  17
ATOM     17  C   UNL     1      -6.187  -0.305 127.647  0.00  0.00    +0.000 C 
BRANCH  17  18
ATOM     18  C   UNL     1      -7.561   0.348 127.669  0.00  0.00    +0.000 C 
BRANCH  18  19
ATOM     19  C   UNL     1      -7.620   1.667 126.913  0.00  0.00    +0.000 C 
BRANCH  19  21
ATOM     20  C   UNL     1      -8.665   2.558 124.941  0.00  0.00    +0.000 C 
ATOM     21  N   UNL     1      -8.886   1.786 126.164  0.00  0.00    +0.000 NA
ATOM     22  C   UNL     1      -9.457   0.480 125.817  0.00  0.00    +0.000 C 
ENDBRANCH  19  21
ENDBRANCH  18  19
ENDBRANCH  17  18
ENDBRANCH   1  17
TORSDOF 4
ENDMDL
MODEL 2
REMARK VINA RESULT:      -7.4      0.849      1.331
REMARK  Name = Clomipramine
REMARK  6 active torsions:
REMARK  status: ('A' for Active; 'I' for Inactive)
REMARK    1  A    between atoms: C_1  and  N_2
REMARK    2  A    between atoms: N_2  and  C_3
REMARK    3  A    between atoms: N_2  and  C_4
REMARK    4  A    between atoms: C_4  and  C_5
REMARK    5  A    between atoms: C_5  and  C_6
REMARK    6  A    between atoms: C_6  and  N_7
REMARK                            x       y       z     vdW  Elec       q    Type
REMARK                         _______ _______ _______ _____ _____    ______ ____
ROOT
ATOM      1  N   UNL     1      -6.395  -1.760 127.526  0.00  0.00    +0.000 N 
ATOM      2  C   UNL     1      -5.957  -2.578 128.583  0.00  0.00    +0.000 A 
ATOM      3  C   UNL     1      -4.587  -2.809 128.776  0.00  0.00    +0.000 A 
ATOM      4  C   UNL     1      -4.131  -3.656 129.783  0.00  0.00    +0.000 A 
ATOM      5  C   UNL     1      -5.047  -4.311 130.595  0.00  0.00    +0.000 A 
ATOM      6  C   UNL     1      -6.415  -4.121 130.399  0.00  0.00    +0.000 A 
ATOM      7  C   UNL     1      -6.874  -3.257 129.391  0.00  0.00    +0.000 A 
ATOM      8  C   UNL     1      -8.340  -3.101 129.097  0.00  0.00    +0.000 C 
ATOM      9  C   UNL     1      -8.695  -3.767 127.765  0.00  0.00    +0.000 C 
ATOM     10  C   UNL     1      -8.112  -3.204 126.478  0.00  0.00    +0.000 A 
ATOM     11  C   UNL     1      -7.096  -2.227 126.403  0.00  0.00    +0.000 A 
ATOM     12  C   UNL     1      -6.686  -1.779 125.131  0.00  0.00    +0.000 A 
ATOM     13  C   UNL     1      -7.246  -2.288 123.966  0.00  0.00    +0.000 A 
ATOM     14 CL   UNL     1      -6.708  -1.715 122.436  0.00  0.00    +0.000 Cl
ATOM     15  C   UNL     1      -8.223  -3.270 124.034  0.00  0.00    +0.000 A 
ATOM     16  C   UNL     1      -8.649  -3.723 125.281  0.00  0.00    +0.000 A 
ENDROOT
BRANCH   1  17
ATOM     17  C   UNL     1      -6.319  -0.299 127.731  0.00  0.00    +0.000 C 
BRANCH  17  18
ATOM     18  C   UNL     1      -7.650   0.235 128.238  0.00  0.00    +0.000 C 
BRANCH  18  19
ATOM     19  C   UNL     1      -8.360   1.142 127.245  0.00  0.00    +0.000 C 
BRANCH  19  21
ATOM     20  C   UNL     1      -8.755   2.308 129.308  0.00  0.00    +0.000 C 
ATOM     21  N   UNL     1      -8.667   2.449 127.854  0.00  0.00    +0.000 NA
ATOM     22  C   UNL     1      -7.666   3.470 127.525  0.00  0.00    +0.000 C 
ENDBRANCH  19  21
ENDBRANCH  18  19
ENDBRANCH  17  18
ENDBRANCH   1  17
TORSDOF 4
ENDMDL
MODEL 3
REMARK VINA RESULT:      -6.7      2.879      5.620
REMARK  Name = Clomipramine
REMARK  6 active torsions:
REMARK  status: ('A' for Active; 'I' for Inactive)
REMARK    1  A    between atoms: C_1  and  N_2
REMARK    2  A    between atoms: N_2  and  C_3
REMARK    3  A    between atoms: N_2  and  C_4
REMARK    4  A    between atoms: C_4  and  C_5
REMARK    5  A    between atoms: C_5  and  C_6
REMARK    6  A    between atoms: C_6  and  N_7
REMARK                            x       y       z     vdW  Elec       q    Type
REMARK                         _______ _______ _______ _____ _____    ______ ____
ROOT
ATOM      1  N   UNL     1      -7.505  -0.776 125.487  0.00  0.00    +0.000 N 
ATOM      2  C   UNL     1      -8.382  -0.319 124.487  0.00  0.00    +0.000 A 
ATOM      3  C   UNL     1      -8.901   0.983 124.545  0.00  0.00    +0.000 A 
ATOM      4  C   UNL     1      -9.811   1.442 123.596  0.00  0.00    +0.000 A 
ATOM      5  C   UNL     1     -10.240   0.588 122.588  0.00  0.00    +0.000 A 
ATOM      6  C   UNL     1      -9.761  -0.721 122.532  0.00  0.00    +0.000 A 
ATOM      7  C   UNL     1      -8.834  -1.180 123.482  0.00  0.00    +0.000 A 
ATOM      8  C   UNL     1      -8.369  -2.609 123.501  0.00  0.00    +0.000 C 
ATOM      9  C   UNL     1      -8.962  -3.351 124.701  0.00  0.00    +0.000 C 
ATOM     10  C   UNL     1      -8.559  -2.929 126.106  0.00  0.00    +0.000 A 
ATOM     11  C   UNL     1      -7.826  -1.767 126.428  0.00  0.00    +0.000 A 
ATOM     12  C   UNL     1      -7.497  -1.532 127.778  0.00  0.00    +0.000 A 
ATOM     13  C   UNL     1      -7.890  -2.405 128.785  0.00  0.00    +0.000 A 
ATOM     14 CL   UNL     1      -7.470  -2.073 130.420  0.00  0.00    +0.000 Cl
ATOM     15  C   UNL     1      -8.636  -3.533 128.476  0.00  0.00    +0.000 A 
ATOM     16  C   UNL     1      -8.967  -3.789 127.147  0.00  0.00    +0.000 A 
ENDROOT
BRANCH   1  17
ATOM     17  C   UNL     1      -6.092  -0.356 125.384  0.00  0.00    +0.000 C 
BRANCH  17  18
ATOM     18  C   UNL     1      -5.955   1.124 125.708  0.00  0.00    +0.000 C 
BRANCH  18  19
ATOM     19  C   UNL     1      -5.076   1.403 126.918  0.00  0.00    +0.000 C 
BRANCH  19  21
ATOM     20  C   UNL     1      -4.622   3.505 125.845  0.00  0.00    +0.000 C 
ATOM     21  N   UNL     1      -4.032   2.393 126.591  0.00  0.00    +0.000 NA
ATOM     22  C   UNL     1      -3.359   2.913 127.787  0.00  0.00    +0.000 C 
ENDBRANCH  19  21
ENDBRANCH  18  19
ENDBRANCH  17  18
ENDBRANCH   1  17
TORSDOF 4
ENDMDL
MODEL 4
REMARK VINA RESULT:      -6.5      2.429      2.915
REMARK  Name = Clomipramine
REMARK  6 active torsions:
REMARK  status: ('A' for Active; 'I' for Inactive)
REMARK    1  A    between atoms: C_1  and  N_2
REMARK    2  A    between atoms: N_2  and  C_3
REMARK    3  A    between atoms: N_2  and  C_4
REMARK    4  A    between atoms: C_4  and  C_5
REMARK    5  A    between atoms: C_5  and  C_6
REMARK    6  A    between atoms: C_6  and  N_7
REMARK                            x       y       z     vdW  Elec       q    Type
REMARK                         _______ _______ _______ _____ _____    ______ ____
ROOT
ATOM      1  N   UNL     1      -7.153  -1.307 128.026  0.00  0.00    +0.000 N 
ATOM      2  C   UNL     1      -6.352  -2.188 128.775  0.00  0.00    +0.000 A 
ATOM      3  C   UNL     1      -4.956  -2.059 128.759  0.00  0.00    +0.000 A 
ATOM      4  C   UNL     1      -4.139  -2.950 129.450  0.00  0.00    +0.000 A 
ATOM      5  C   UNL     1      -4.713  -4.007 130.146  0.00  0.00    +0.000 A 
ATOM      6  C   UNL     1      -6.098  -4.172 130.147  0.00  0.00    +0.000 A 
ATOM      7  C   UNL     1      -6.922  -3.266 129.460  0.00  0.00    +0.000 A 
ATOM      8  C   UNL     1      -8.408  -3.468 129.369  0.00  0.00    +0.000 C 
ATOM      9  C   UNL     1      -8.808  -3.881 127.950  0.00  0.00    +0.000 C 
ATOM     10  C   UNL     1      -8.611  -2.895 126.809  0.00  0.00    +0.000 A 
ATOM     11  C   UNL     1      -7.897  -1.681 126.896  0.00  0.00    +0.000 A 
ATOM     12  C   UNL     1      -7.834  -0.854 125.756  0.00  0.00    +0.000 A 
ATOM     13  C   UNL     1      -8.441  -1.218 124.560  0.00  0.00    +0.000 A 
ATOM     14 CL   UNL     1      -8.330  -0.179 123.193  0.00  0.00    +0.000 Cl
ATOM     15  C   UNL     1      -9.117  -2.425 124.462  0.00  0.00    +0.000 A 
ATOM     16  C   UNL     1      -9.199  -3.254 125.578  0.00  0.00    +0.000 A 
ENDROOT
BRANCH   1  17
ATOM     17  C   UNL     1      -7.407   0.028 128.606  0.00  0.00    +0.000 C 
BRANCH  17  18
ATOM     18  C   UNL     1      -7.710  -0.090 130.093  0.00  0.00    +0.000 C 
BRANCH  18  19
ATOM     19  C   UNL     1      -7.546   1.218 130.853  0.00  0.00    +0.000 C 
BRANCH  19  21
ATOM     20  C   UNL     1      -7.749   2.181 133.045  0.00  0.00    +0.000 C 
ATOM     21  N   UNL     1      -8.295   1.184 132.123  0.00  0.00    +0.000 NA
ATOM     22  C   UNL     1      -9.729   1.430 131.936  0.00  0.00    +0.000 C 
ENDBRANCH  19  21
ENDBRANCH  18  19
ENDBRANCH  17  18
ENDBRANCH   1  17
TORSDOF 4
ENDMDL
MODEL 5
REMARK VINA RESULT:      -6.5      6.750      9.248
REMARK  Name = Clomipramine
REMARK  6 active torsions:
REMARK  status: ('A' for Active; 'I' for Inactive)
REMARK    1  A    between atoms: C_1  and  N_2
REMARK    2  A    between atoms: N_2  and  C_3
REMARK    3  A    between atoms: N_2  and  C_4
REMARK    4  A    between atoms: C_4  and  C_5
REMARK    5  A    between atoms: C_5  and  C_6
REMARK    6  A    between atoms: C_6  and  N_7
REMARK                            x       y       z     vdW  Elec       q    Type
REMARK                         _______ _______ _______ _____ _____    ______ ____
ROOT
ATOM      1  N   UNL     1      -8.714   5.251 130.297  0.00  0.00    +0.000 N 
ATOM      2  C   UNL     1      -8.882   4.061 131.027  0.00  0.00    +0.000 A 
ATOM      3  C   UNL     1      -8.763   2.818 130.389  0.00  0.00    +0.000 A 
ATOM      4  C   UNL     1      -8.975   1.627 131.078  0.00  0.00    +0.000 A 
ATOM      5  C   UNL     1      -9.343   1.666 132.417  0.00  0.00    +0.000 A 
ATOM      6  C   UNL     1      -9.498   2.893 133.062  0.00  0.00    +0.000 A 
ATOM      7  C   UNL     1      -9.272   4.094 132.369  0.00  0.00    +0.000 A 
ATOM      8  C   UNL     1      -9.518   5.430 133.011  0.00  0.00    +0.000 C 
ATOM      9  C   UNL     1     -10.761   6.093 132.411  0.00  0.00    +0.000 C 
ATOM     10  C   UNL     1     -10.745   6.508 130.948  0.00  0.00    +0.000 A 
ATOM     11  C   UNL     1      -9.748   6.157 130.013  0.00  0.00    +0.000 A 
ATOM     12  C   UNL     1      -9.855   6.652 128.697  0.00  0.00    +0.000 A 
ATOM     13  C   UNL     1     -10.920   7.454 128.307  0.00  0.00    +0.000 A 
ATOM     14 CL   UNL     1     -11.012   8.028 126.688  0.00  0.00    +0.000 Cl
ATOM     15  C   UNL     1     -11.918   7.776 129.215  0.00  0.00    +0.000 A 
ATOM     16  C   UNL     1     -11.829   7.304 130.523  0.00  0.00    +0.000 A 
ENDROOT
BRANCH   1  17
ATOM     17  C   UNL     1      -7.327   5.680 130.021  0.00  0.00    +0.000 C 
BRANCH  17  18
ATOM     18  C   UNL     1      -6.881   6.715 131.043  0.00  0.00    +0.000 C 
BRANCH  18  19
ATOM     19  C   UNL     1      -5.369   6.823 131.180  0.00  0.00    +0.000 C 
BRANCH  19  21
ATOM     20  C   UNL     1      -4.131   8.348 129.796  0.00  0.00    +0.000 C 
ATOM     21  N   UNL     1      -4.735   7.017 129.862  0.00  0.00    +0.000 NA
ATOM     22  C   UNL     1      -3.711   6.005 129.578  0.00  0.00    +0.000 C 
ENDBRANCH  19  21
ENDBRANCH  18  19
ENDBRANCH  17  18
ENDBRANCH   1  17
TORSDOF 4
ENDMDL
MODEL 6
REMARK VINA RESULT:      -6.2      6.855      9.038
REMARK  Name = Clomipramine
REMARK  6 active torsions:
REMARK  status: ('A' for Active; 'I' for Inactive)
REMARK    1  A    between atoms: C_1  and  N_2
REMARK    2  A    between atoms: N_2  and  C_3
REMARK    3  A    between atoms: N_2  and  C_4
REMARK    4  A    between atoms: C_4  and  C_5
REMARK    5  A    between atoms: C_5  and  C_6
REMARK    6  A    between atoms: C_6  and  N_7
REMARK                            x       y       z     vdW  Elec       q    Type
REMARK                         _______ _______ _______ _____ _____    ______ ____
ROOT
ATOM      1  N   UNL     1      -5.845   4.245 130.324  0.00  0.00    +0.000 N 
ATOM      2  C   UNL     1      -7.062   4.947 130.375  0.00  0.00    +0.000 A 
ATOM      3  C   UNL     1      -8.167   4.501 129.636  0.00  0.00    +0.000 A 
ATOM      4  C   UNL     1      -9.367   5.207 129.630  0.00  0.00    +0.000 A 
ATOM      5  C   UNL     1      -9.467   6.394 130.344  0.00  0.00    +0.000 A 
ATOM      6  C   UNL     1      -8.369   6.873 131.060  0.00  0.00    +0.000 A 
ATOM      7  C   UNL     1      -7.163   6.154 131.075  0.00  0.00    +0.000 A 
ATOM      8  C   UNL     1      -5.938   6.689 131.762  0.00  0.00    +0.000 C 
ATOM      9  C   UNL     1      -4.893   7.125 130.732  0.00  0.00    +0.000 C 
ATOM     10  C   UNL     1      -4.251   6.076 129.838  0.00  0.00    +0.000 A 
ATOM     11  C   UNL     1      -4.674   4.735 129.723  0.00  0.00    +0.000 A 
ATOM     12  C   UNL     1      -3.950   3.870 128.876  0.00  0.00    +0.000 A 
ATOM     13  C   UNL     1      -2.853   4.316 128.150  0.00  0.00    +0.000 A 
ATOM     14 CL   UNL     1      -2.006   3.226 127.124  0.00  0.00    +0.000 Cl
ATOM     15  C   UNL     1      -2.452   5.641 128.237  0.00  0.00    +0.000 A 
ATOM     16  C   UNL     1      -3.148   6.511 129.073  0.00  0.00    +0.000 A 
ENDROOT
BRANCH   1  17
ATOM     17  C   UNL     1      -5.735   3.028 131.155  0.00  0.00    +0.000 C 
BRANCH  17  18
ATOM     18  C   UNL     1      -6.452   3.228 132.482  0.00  0.00    +0.000 C 
BRANCH  18  19
ATOM     19  C   UNL     1      -7.225   2.003 132.946  0.00  0.00    +0.000 C 
BRANCH  19  21
ATOM     20  C   UNL     1      -8.719   3.781 133.562  0.00  0.00    +0.000 C 
ATOM     21  N   UNL     1      -8.624   2.353 133.260  0.00  0.00    +0.000 NA
ATOM     22  C   UNL     1      -9.543   2.027 132.164  0.00  0.00    +0.000 C 
ENDBRANCH  19  21
ENDBRANCH  18  19
ENDBRANCH  17  18
ENDBRANCH   1  17
TORSDOF 4
ENDMDL
MODEL 7
REMARK VINA RESULT:      -6.0      7.098      9.435
REMARK  Name = Clomipramine
REMARK  6 active torsions:
REMARK  status: ('A' for Active; 'I' for Inactive)
REMARK    1  A    between atoms: C_1  and  N_2
REMARK    2  A    between atoms: N_2  and  C_3
REMARK    3  A    between atoms: N_2  and  C_4
REMARK    4  A    between atoms: C_4  and  C_5
REMARK    5  A    between atoms: C_5  and  C_6
REMARK    6  A    between atoms: C_6  and  N_7
REMARK                            x       y       z     vdW  Elec       q    Type
REMARK                         _______ _______ _______ _____ _____    ______ ____
ROOT
ATOM      1  N   UNL     1      -4.510   4.108 131.371  0.00  0.00    +0.000 N 
ATOM      2  C   UNL     1      -3.276   4.763 131.531  0.00  0.00    +0.000 A 
ATOM      3  C   UNL     1      -2.386   4.357 132.535  0.00  0.00    +0.000 A 
ATOM      4  C   UNL     1      -1.181   5.022 132.748  0.00  0.00    +0.000 A 
ATOM      5  C   UNL     1      -0.864   6.130 131.971  0.00  0.00    +0.000 A 
ATOM      6  C   UNL     1      -1.751   6.570 130.988  0.00  0.00    +0.000 A 
ATOM      7  C   UNL     1      -2.960   5.891 130.767  0.00  0.00    +0.000 A 
ATOM      8  C   UNL     1      -3.974   6.394 129.778  0.00  0.00    +0.000 C 
ATOM      9  C   UNL     1      -5.196   6.963 130.504  0.00  0.00    +0.000 C 
ATOM     10  C   UNL     1      -6.073   6.028 131.321  0.00  0.00    +0.000 A 
ATOM     11  C   UNL     1      -5.757   4.691 131.647  0.00  0.00    +0.000 A 
ATOM     12  C   UNL     1      -6.694   3.938 132.384  0.00  0.00    +0.000 A 
ATOM     13  C   UNL     1      -7.899   4.488 132.803  0.00  0.00    +0.000 A 
ATOM     14 CL   UNL     1      -9.008   3.532 133.707  0.00  0.00    +0.000 Cl
ATOM     15  C   UNL     1      -8.201   5.810 132.511  0.00  0.00    +0.000 A 
ATOM     16  C   UNL     1      -7.293   6.570 131.778  0.00  0.00    +0.000 A 
ENDROOT
BRANCH   1  17
ATOM     17  C   UNL     1      -4.498   2.820 130.648  0.00  0.00    +0.000 C 
BRANCH  17  18
ATOM     18  C   UNL     1      -4.723   3.046 129.160  0.00  0.00    +0.000 C 
BRANCH  18  19
ATOM     19  C   UNL     1      -3.586   2.533 128.288  0.00  0.00    +0.000 C 
BRANCH  19  21
ATOM     20  C   UNL     1      -1.830   3.130 126.761  0.00  0.00    +0.000 C 
ATOM     21  N   UNL     1      -2.953   3.640 127.547  0.00  0.00    +0.000 NA
ATOM     22  C   UNL     1      -3.895   4.329 126.656  0.00  0.00    +0.000 C 
ENDBRANCH  19  21
ENDBRANCH  18  19
ENDBRANCH  17  18
ENDBRANCH   1  17
TORSDOF 4
ENDMDL
MODEL 8
REMARK VINA RESULT:      -6.0      3.115      5.516
REMARK  Name = Clomipramine
REMARK  6 active torsions:
REMARK  status: ('A' for Active; 'I' for Inactive)
REMARK    1  A    between atoms: C_1  and  N_2
REMARK    2  A    between atoms: N_2  and  C_3
REMARK    3  A    between atoms: N_2  and  C_4
REMARK    4  A    between atoms: C_4  and  C_5
REMARK    5  A    between atoms: C_5  and  C_6
REMARK    6  A    between atoms: C_6  and  N_7
REMARK                            x       y       z     vdW  Elec       q    Type
REMARK                         _______ _______ _______ _____ _____    ______ ____
ROOT
ATOM      1  N   UNL     1      -7.325  -2.367 129.829  0.00  0.00    +0.000 N 
ATOM      2  C   UNL     1      -7.545  -2.567 128.455  0.00  0.00    +0.000 A 
ATOM      3  C   UNL     1      -8.695  -3.239 128.015  0.00  0.00    +0.000 A 
ATOM      4  C   UNL     1      -8.911  -3.496 126.664  0.00  0.00    +0.000 A 
ATOM      5  C   UNL     1      -7.958  -3.107 125.732  0.00  0.00    +0.000 A 
ATOM      6  C   UNL     1      -6.792  -2.467 126.151  0.00  0.00    +0.000 A 
ATOM      7  C   UNL     1      -6.580  -2.198 127.513  0.00  0.00    +0.000 A 
ATOM      8  C   UNL     1      -5.295  -1.591 128.004  0.00  0.00    +0.000 C 
ATOM      9  C   UNL     1      -4.466  -2.630 128.764  0.00  0.00    +0.000 C 
ATOM     10  C   UNL     1      -5.003  -3.193 130.070  0.00  0.00    +0.000 A 
ATOM     11  C   UNL     1      -6.309  -2.996 130.567  0.00  0.00    +0.000 A 
ATOM     12  C   UNL     1      -6.645  -3.555 131.817  0.00  0.00    +0.000 A 
ATOM     13  C   UNL     1      -5.730  -4.299 132.550  0.00  0.00    +0.000 A 
ATOM     14 CL   UNL     1      -6.189  -4.967 134.067  0.00  0.00    +0.000 Cl
ATOM     15  C   UNL     1      -4.455  -4.520 132.052  0.00  0.00    +0.000 A 
ATOM     16  C   UNL     1      -4.098  -3.972 130.822  0.00  0.00    +0.000 A 
ENDROOT
BRANCH   1  17
ATOM     17  C   UNL     1      -8.053  -1.254 130.471  0.00  0.00    +0.000 C 
BRANCH  17  18
ATOM     18  C   UNL     1      -7.094  -0.125 130.819  0.00  0.00    +0.000 C 
BRANCH  18  19
ATOM     19  C   UNL     1      -7.004   0.950 129.746  0.00  0.00    +0.000 C 
BRANCH  19  21
ATOM     20  C   UNL     1      -8.912   2.410 129.688  0.00  0.00    +0.000 C 
ATOM     21  N   UNL     1      -8.323   1.191 129.132  0.00  0.00    +0.000 NA
ATOM     22  C   UNL     1      -8.248   1.310 127.672  0.00  0.00    +0.000 C 
ENDBRANCH  19  21
ENDBRANCH  18  19
ENDBRANCH  17  18
ENDBRANCH   1  17
TORSDOF 4
ENDMDL
MODEL 9
REMARK VINA RESULT:      -5.9      2.901      5.650
REMARK  Name = Clomipramine
REMARK  6 active torsions:
REMARK  status: ('A' for Active; 'I' for Inactive)
REMARK    1  A    between atoms: C_1  and  N_2
REMARK    2  A    between atoms: N_2  and  C_3
REMARK    3  A    between atoms: N_2  and  C_4
REMARK    4  A    between atoms: C_4  and  C_5
REMARK    5  A    between atoms: C_5  and  C_6
REMARK    6  A    between atoms: C_6  and  N_7
REMARK                            x       y       z     vdW  Elec       q    Type
REMARK                         _______ _______ _______ _____ _____    ______ ____
ROOT
ATOM      1  N   UNL     1      -7.102  -0.058 125.847  0.00  0.00    +0.000 N 
ATOM      2  C   UNL     1      -7.471   1.034 125.043  0.00  0.00    +0.000 A 
ATOM      3  C   UNL     1      -8.240   2.077 125.578  0.00  0.00    +0.000 A 
ATOM      4  C   UNL     1      -8.662   3.145 124.789  0.00  0.00    +0.000 A 
ATOM      5  C   UNL     1      -8.342   3.166 123.438  0.00  0.00    +0.000 A 
ATOM      6  C   UNL     1      -7.605   2.122 122.878  0.00  0.00    +0.000 A 
ATOM      7  C   UNL     1      -7.171   1.052 123.677  0.00  0.00    +0.000 A 
ATOM      8  C   UNL     1      -6.453  -0.130 123.086  0.00  0.00    +0.000 C 
ATOM      9  C   UNL     1      -7.359  -1.365 123.090  0.00  0.00    +0.000 C 
ATOM     10  C   UNL     1      -7.789  -1.962 124.420  0.00  0.00    +0.000 A 
ATOM     11  C   UNL     1      -7.595  -1.363 125.683  0.00  0.00    +0.000 A 
ATOM     12  C   UNL     1      -8.019  -2.062 126.832  0.00  0.00    +0.000 A 
ATOM     13  C   UNL     1      -8.631  -3.305 126.741  0.00  0.00    +0.000 A 
ATOM     14 CL   UNL     1      -9.138  -4.117 128.171  0.00  0.00    +0.000 Cl
ATOM     15  C   UNL     1      -8.851  -3.884 125.500  0.00  0.00    +0.000 A 
ATOM     16  C   UNL     1      -8.434  -3.215 124.352  0.00  0.00    +0.000 A 
ENDROOT
BRANCH   1  17
ATOM     17  C   UNL     1      -5.956   0.135 126.759  0.00  0.00    +0.000 C 
BRANCH  17  18
ATOM     18  C   UNL     1      -5.025   1.209 126.218  0.00  0.00    +0.000 C 
BRANCH  18  19
ATOM     19  C   UNL     1      -4.543   2.188 127.279  0.00  0.00    +0.000 C 
BRANCH  19  21
ATOM     20  C   UNL     1      -2.760   3.578 126.464  0.00  0.00    +0.000 C 
ATOM     21  N   UNL     1      -4.205   3.491 126.676  0.00  0.00    +0.000 NA
ATOM     22  C   UNL     1      -4.897   3.715 125.401  0.00  0.00    +0.000 C 
ENDBRANCH  19  21
ENDBRANCH  18  19
ENDBRANCH  17  18
ENDBRANCH   1  17
TORSDOF 4
ENDMDL
