MODEL 1
REMARK VINA RESULT:      -7.6      0.000      0.000
REMARK  Name = Clomifene
REMARK  11 active torsions:
REMARK  status: ('A' for Active; 'I' for Inactive)
REMARK    1  A    between atoms: C_1  and  C_2
REMARK    2  A    between atoms: C_2  and  N_3
REMARK    3  A    between atoms: N_3  and  C_4
REMARK    4  A    between atoms: N_3  and  C_6
REMARK    5  A    between atoms: C_4  and  C_5
REMARK    6  A    between atoms: C_6  and  C_7
REMARK    7  A    between atoms: C_7  and  O_8
REMARK    8  A    between atoms: O_8  and  C_9
REMARK    9  A    between atoms: C_12  and  C_15
REMARK   10  A    between atoms: C_15  and  C_24
REMARK   11  A    between atoms: C_16  and  C_18
REMARK                            x       y       z     vdW  Elec       q    Type
REMARK                         _______ _______ _______ _____ _____    ______ ____
ROOT
ATOM      1  C   UNL     1      -6.943   2.723 123.263  0.00  0.00    +0.000 C 
ATOM      2  C   UNL     1      -6.322   3.354 124.320  0.00  0.00    +0.000 C 
ATOM      3 CL   UNL     1      -5.615   4.967 124.170  0.00  0.00    +0.000 Cl
ENDROOT
BRANCH   1   7
ATOM      4  C   UNL     1      -9.069  -1.082 123.230  0.00  0.00    +0.000 A 
ATOM      5  C   UNL     1      -7.700  -1.035 123.066  0.00  0.00    +0.000 A 
ATOM      6  C   UNL     1      -7.038   0.149 123.343  0.00  0.00    +0.000 A 
ATOM      7  C   UNL     1      -7.673   1.389 123.395  0.00  0.00    +0.000 A 
ATOM      8  C   UNL     1      -9.066   1.324 123.566  0.00  0.00    +0.000 A 
ATOM      9  C   UNL     1      -9.741   0.094 123.543  0.00  0.00    +0.000 A 
BRANCH   4  10
ATOM     10  O   UNL     1      -9.566  -2.348 123.177  0.00  0.00    +0.000 OA
BRANCH  10  11
ATOM     11  C   UNL     1      -8.910  -3.271 124.027  0.00  0.00    +0.000 C 
BRANCH  11  12
ATOM     12  C   UNL     1      -9.381  -3.067 125.469  0.00  0.00    +0.000 C 
BRANCH  12  13
ATOM     13  N   UNL     1      -8.302  -3.298 126.470  0.00  0.00    +0.000 NA
BRANCH  13  15
ATOM     14  C   UNL     1      -8.314  -0.779 126.746  0.00  0.00    +0.000 C 
ATOM     15  C   UNL     1      -7.508  -2.059 126.574  0.00  0.00    +0.000 C 
ENDBRANCH  13  15
BRANCH  13  16
ATOM     16  C   UNL     1      -8.888  -3.751 127.750  0.00  0.00    +0.000 C 
ATOM     17  C   UNL     1      -8.024  -3.597 128.992  0.00  0.00    +0.000 C 
ENDBRANCH  13  16
ENDBRANCH  12  13
ENDBRANCH  11  12
ENDBRANCH  10  11
ENDBRANCH   4  10
ENDBRANCH   1   7
BRANCH   2  18
ATOM     18  C   UNL     1      -6.162   2.847 125.711  0.00  0.00    +0.000 A 
ATOM     19  C   UNL     1      -7.130   3.108 126.697  0.00  0.00    +0.000 A 
ATOM     20  C   UNL     1      -7.049   2.498 127.952  0.00  0.00    +0.000 A 
ATOM     21  C   UNL     1      -6.079   1.527 128.194  0.00  0.00    +0.000 A 
ATOM     22  C   UNL     1      -5.113   1.258 127.229  0.00  0.00    +0.000 A 
ATOM     23  C   UNL     1      -5.095   1.990 126.039  0.00  0.00    +0.000 A 
ENDBRANCH   2  18
BRANCH   1  24
ATOM     24  C   UNL     1      -6.836   3.391 121.916  0.00  0.00    +0.000 A 
ATOM     25  C   UNL     1      -7.962   3.638 121.108  0.00  0.00    +0.000 A 
ATOM     26  C   UNL     1      -7.815   4.156 119.819  0.00  0.00    +0.000 A 
ATOM     27  C   UNL     1      -6.556   4.546 119.368  0.00  0.00    +0.000 A 
ATOM     28  C   UNL     1      -5.444   4.392 120.191  0.00  0.00    +0.000 A 
ATOM     29  C   UNL     1      -5.579   3.797 121.446  0.00  0.00    +0.000 A 
ENDBRANCH   1  24
TORSDOF 9
ENDMDL
MODEL 2
REMARK VINA RESULT:      -7.5      1.090      2.062
REMARK  Name = Clomifene
REMARK  11 active torsions:
REMARK  status: ('A' for Active; 'I' for Inactive)
REMARK    1  A    between atoms: C_1  and  C_2
REMARK    2  A    between atoms: C_2  and  N_3
REMARK    3  A    between atoms: N_3  and  C_4
REMARK    4  A    between atoms: N_3  and  C_6
REMARK    5  A    between atoms: C_4  and  C_5
REMARK    6  A    between atoms: C_6  and  C_7
REMARK    7  A    between atoms: C_7  and  O_8
REMARK    8  A    between atoms: O_8  and  C_9
REMARK    9  A    between atoms: C_12  and  C_15
REMARK   10  A    between atoms: C_15  and  C_24
REMARK   11  A    between atoms: C_16  and  C_18
REMARK                            x       y       z     vdW  Elec       q    Type
REMARK                         _______ _______ _______ _____ _____    ______ ____
ROOT
ATOM      1  C   UNL     1      -6.935   2.507 123.724  0.00  0.00    +0.000 C 
ATOM      2  C   UNL     1      -6.195   3.277 124.596  0.00  0.00    +0.000 C 
ATOM      3 CL   UNL     1      -5.653   4.908 124.182  0.00  0.00    +0.000 Cl
ENDROOT
BRANCH   1   7
ATOM      4  C   UNL     1      -8.840  -1.347 124.447  0.00  0.00    +0.000 A 
ATOM      5  C   UNL     1      -7.689  -1.256 123.691  0.00  0.00    +0.000 A 
ATOM      6  C   UNL     1      -6.976  -0.069 123.705  0.00  0.00    +0.000 A 
ATOM      7  C   UNL     1      -7.525   1.150 124.099  0.00  0.00    +0.000 A 
ATOM      8  C   UNL     1      -8.695   1.041 124.870  0.00  0.00    +0.000 A 
ATOM      9  C   UNL     1      -9.305  -0.204 125.087  0.00  0.00    +0.000 A 
BRANCH   4  10
ATOM     10  O   UNL     1      -9.305  -2.622 124.555  0.00  0.00    +0.000 OA
BRANCH  10  11
ATOM     11  C   UNL     1      -9.735  -2.979 125.857  0.00  0.00    +0.000 C 
BRANCH  11  12
ATOM     12  C   UNL     1      -8.554  -3.539 126.652  0.00  0.00    +0.000 C 
BRANCH  12  13
ATOM     13  N   UNL     1      -8.104  -2.626 127.741  0.00  0.00    +0.000 NA
BRANCH  13  15
ATOM     14  C   UNL     1      -7.164  -3.227 130.016  0.00  0.00    +0.000 C 
ATOM     15  C   UNL     1      -8.319  -3.315 129.028  0.00  0.00    +0.000 C 
ENDBRANCH  13  15
BRANCH  13  16
ATOM     16  C   UNL     1      -6.706  -2.207 127.504  0.00  0.00    +0.000 C 
ATOM     17  C   UNL     1      -6.447  -0.713 127.392  0.00  0.00    +0.000 C 
ENDBRANCH  13  16
ENDBRANCH  12  13
ENDBRANCH  11  12
ENDBRANCH  10  11
ENDBRANCH   4  10
ENDBRANCH   1   7
BRANCH   2  18
ATOM     18  C   UNL     1      -5.762   2.922 125.975  0.00  0.00    +0.000 A 
ATOM     19  C   UNL     1      -4.456   2.468 126.235  0.00  0.00    +0.000 A 
ATOM     20  C   UNL     1      -4.014   2.289 127.549  0.00  0.00    +0.000 A 
ATOM     21  C   UNL     1      -4.821   2.681 128.615  0.00  0.00    +0.000 A 
ATOM     22  C   UNL     1      -6.116   3.131 128.376  0.00  0.00    +0.000 A 
ATOM     23  C   UNL     1      -6.615   3.150 127.071  0.00  0.00    +0.000 A 
ENDBRANCH   2  18
BRANCH   1  24
ATOM     24  C   UNL     1      -7.112   3.042 122.327  0.00  0.00    +0.000 A 
ATOM     25  C   UNL     1      -6.023   3.259 121.461  0.00  0.00    +0.000 A 
ATOM     26  C   UNL     1      -6.212   3.861 120.214  0.00  0.00    +0.000 A 
ATOM     27  C   UNL     1      -7.501   4.143 119.768  0.00  0.00    +0.000 A 
ATOM     28  C   UNL     1      -8.596   3.851 120.577  0.00  0.00    +0.000 A 
ATOM     29  C   UNL     1      -8.401   3.327 121.856  0.00  0.00    +0.000 A 
ENDBRANCH   1  24
TORSDOF 9
ENDMDL
MODEL 3
REMARK VINA RESULT:      -7.4      7.469     10.816
REMARK  Name = Clomifene
REMARK  11 active torsions:
REMARK  status: ('A' for Active; 'I' for Inactive)
REMARK    1  A    between atoms: C_1  and  C_2
REMARK    2  A    between atoms: C_2  and  N_3
REMARK    3  A    between atoms: N_3  and  C_4
REMARK    4  A    between atoms: N_3  and  C_6
REMARK    5  A    between atoms: C_4  and  C_5
REMARK    6  A    between atoms: C_6  and  C_7
REMARK    7  A    between atoms: C_7  and  O_8
REMARK    8  A    between atoms: O_8  and  C_9
REMARK    9  A    between atoms: C_12  and  C_15
REMARK   10  A    between atoms: C_15  and  C_24
REMARK   11  A    between atoms: C_16  and  C_18
REMARK                            x       y       z     vdW  Elec       q    Type
REMARK                         _______ _______ _______ _____ _____    ______ ____
ROOT
ATOM      1  C   UNL     1      -3.415   6.872 131.938  0.00  0.00    +0.000 C 
ATOM      2  C   UNL     1      -2.458   6.244 131.170  0.00  0.00    +0.000 C 
ATOM      3 CL   UNL     1      -0.728   6.482 131.443  0.00  0.00    +0.000 Cl
ENDROOT
BRANCH   1   7
ATOM      4  C   UNL     1      -7.747   6.405 131.797  0.00  0.00    +0.000 A 
ATOM      5  C   UNL     1      -7.086   7.171 130.858  0.00  0.00    +0.000 A 
ATOM      6  C   UNL     1      -5.706   7.081 130.779  0.00  0.00    +0.000 A 
ATOM      7  C   UNL     1      -4.909   6.589 131.811  0.00  0.00    +0.000 A 
ATOM      8  C   UNL     1      -5.596   5.810 132.757  0.00  0.00    +0.000 A 
ATOM      9  C   UNL     1      -6.992   5.675 132.708  0.00  0.00    +0.000 A 
BRANCH   4  10
ATOM     10  O   UNL     1      -9.095   6.384 131.610  0.00  0.00    +0.000 OA
BRANCH  10  11
ATOM     11  C   UNL     1      -9.516   5.661 130.467  0.00  0.00    +0.000 C 
BRANCH  11  12
ATOM     12  C   UNL     1     -11.045   5.639 130.408  0.00  0.00    +0.000 C 
BRANCH  12  13
ATOM     13  N   UNL     1     -11.586   6.240 129.156  0.00  0.00    +0.000 NA
BRANCH  13  15
ATOM     14  C   UNL     1     -12.885   7.368 131.016  0.00  0.00    +0.000 C 
ATOM     15  C   UNL     1     -12.715   7.115 129.525  0.00  0.00    +0.000 C 
ENDBRANCH  13  15
BRANCH  13  16
ATOM     16  C   UNL     1     -10.505   6.926 128.416  0.00  0.00    +0.000 C 
ATOM     17  C   UNL     1     -10.644   8.429 128.237  0.00  0.00    +0.000 C 
ENDBRANCH  13  16
ENDBRANCH  12  13
ENDBRANCH  11  12
ENDBRANCH  10  11
ENDBRANCH   4  10
ENDBRANCH   1   7
BRANCH   2  18
ATOM     18  C   UNL     1      -2.678   5.283 130.055  0.00  0.00    +0.000 A 
ATOM     19  C   UNL     1      -3.309   4.045 130.273  0.00  0.00    +0.000 A 
ATOM     20  C   UNL     1      -3.651   3.222 129.196  0.00  0.00    +0.000 A 
ATOM     21  C   UNL     1      -3.485   3.678 127.890  0.00  0.00    +0.000 A 
ATOM     22  C   UNL     1      -2.861   4.899 127.657  0.00  0.00    +0.000 A 
ATOM     23  C   UNL     1      -2.368   5.645 128.730  0.00  0.00    +0.000 A 
ENDBRANCH   2  18
BRANCH   1  24
ATOM     24  C   UNL     1      -2.928   7.917 132.910  0.00  0.00    +0.000 A 
ATOM     25  C   UNL     1      -2.850   7.678 134.294  0.00  0.00    +0.000 A 
ATOM     26  C   UNL     1      -2.502   8.703 135.177  0.00  0.00    +0.000 A 
ATOM     27  C   UNL     1      -2.110   9.944 134.679  0.00  0.00    +0.000 A 
ATOM     28  C   UNL     1      -2.095  10.168 133.305  0.00  0.00    +0.000 A 
ATOM     29  C   UNL     1      -2.524   9.170 132.428  0.00  0.00    +0.000 A 
ENDBRANCH   1  24
TORSDOF 9
ENDMDL
MODEL 4
REMARK VINA RESULT:      -7.3      3.217      8.514
REMARK  Name = Clomifene
REMARK  11 active torsions:
REMARK  status: ('A' for Active; 'I' for Inactive)
REMARK    1  A    between atoms: C_1  and  C_2
REMARK    2  A    between atoms: C_2  and  N_3
REMARK    3  A    between atoms: N_3  and  C_4
REMARK    4  A    between atoms: N_3  and  C_6
REMARK    5  A    between atoms: C_4  and  C_5
REMARK    6  A    between atoms: C_6  and  C_7
REMARK    7  A    between atoms: C_7  and  O_8
REMARK    8  A    between atoms: O_8  and  C_9
REMARK    9  A    between atoms: C_12  and  C_15
REMARK   10  A    between atoms: C_15  and  C_24
REMARK   11  A    between atoms: C_16  and  C_18
REMARK                            x       y       z     vdW  Elec       q    Type
REMARK                         _______ _______ _______ _____ _____    ______ ____
ROOT
ATOM      1  C   UNL     1      -7.284  -2.140 128.177  0.00  0.00    +0.000 C 
ATOM      2  C   UNL     1      -8.226  -2.842 127.455  0.00  0.00    +0.000 C 
ATOM      3 CL   UNL     1      -9.154  -4.170 128.161  0.00  0.00    +0.000 Cl
ENDROOT
BRANCH   1   7
ATOM      4  C   UNL     1      -5.524   1.410 126.360  0.00  0.00    +0.000 A 
ATOM      5  C   UNL     1      -6.459   1.520 127.370  0.00  0.00    +0.000 A 
ATOM      6  C   UNL     1      -6.792   0.388 128.093  0.00  0.00    +0.000 A 
ATOM      7  C   UNL     1      -6.561  -0.909 127.637  0.00  0.00    +0.000 A 
ATOM      8  C   UNL     1      -5.605  -1.005 126.611  0.00  0.00    +0.000 A 
ATOM      9  C   UNL     1      -5.054   0.146 126.027  0.00  0.00    +0.000 A 
BRANCH   4  10
ATOM     10  O   UNL     1      -5.096   2.618 125.901  0.00  0.00    +0.000 OA
BRANCH  10  11
ATOM     11  C   UNL     1      -5.998   3.686 126.131  0.00  0.00    +0.000 C 
BRANCH  11  12
ATOM     12  C   UNL     1      -6.281   4.412 124.814  0.00  0.00    +0.000 C 
BRANCH  12  13
ATOM     13  N   UNL     1      -5.892   3.614 123.617  0.00  0.00    +0.000 NA
BRANCH  13  15
ATOM     14  C   UNL     1      -7.156   1.471 123.139  0.00  0.00    +0.000 C 
ATOM     15  C   UNL     1      -7.113   2.991 123.072  0.00  0.00    +0.000 C 
ENDBRANCH  13  15
BRANCH  13  16
ATOM     16  C   UNL     1      -5.168   4.470 122.653  0.00  0.00    +0.000 C 
ATOM     17  C   UNL     1      -5.216   4.049 121.193  0.00  0.00    +0.000 C 
ENDBRANCH  13  16
ENDBRANCH  12  13
ENDBRANCH  11  12
ENDBRANCH  10  11
ENDBRANCH   4  10
ENDBRANCH   1   7
BRANCH   2  18
ATOM     18  C   UNL     1      -8.640  -2.614 126.044  0.00  0.00    +0.000 A 
ATOM     19  C   UNL     1      -9.120  -1.363 125.617  0.00  0.00    +0.000 A 
ATOM     20  C   UNL     1      -9.356  -1.116 124.262  0.00  0.00    +0.000 A 
ATOM     21  C   UNL     1      -8.997  -2.065 123.308  0.00  0.00    +0.000 A 
ATOM     22  C   UNL     1      -8.522  -3.309 123.712  0.00  0.00    +0.000 A 
ATOM     23  C   UNL     1      -8.445  -3.615 125.073  0.00  0.00    +0.000 A 
ENDBRANCH   2  18
BRANCH   1  24
ATOM     24  C   UNL     1      -6.945  -2.670 129.547  0.00  0.00    +0.000 A 
ATOM     25  C   UNL     1      -5.936  -3.629 129.753  0.00  0.00    +0.000 A 
ATOM     26  C   UNL     1      -5.724  -4.181 131.020  0.00  0.00    +0.000 A 
ATOM     27  C   UNL     1      -6.434  -3.694 132.116  0.00  0.00    +0.000 A 
ATOM     28  C   UNL     1      -7.372  -2.680 131.942  0.00  0.00    +0.000 A 
ATOM     29  C   UNL     1      -7.643  -2.189 130.664  0.00  0.00    +0.000 A 
ENDBRANCH   1  24
TORSDOF 9
ENDMDL
MODEL 5
REMARK VINA RESULT:      -7.2      4.141      8.550
REMARK  Name = Clomifene
REMARK  11 active torsions:
REMARK  status: ('A' for Active; 'I' for Inactive)
REMARK    1  A    between atoms: C_1  and  C_2
REMARK    2  A    between atoms: C_2  and  N_3
REMARK    3  A    between atoms: N_3  and  C_4
REMARK    4  A    between atoms: N_3  and  C_6
REMARK    5  A    between atoms: C_4  and  C_5
REMARK    6  A    between atoms: C_6  and  C_7
REMARK    7  A    between atoms: C_7  and  O_8
REMARK    8  A    between atoms: O_8  and  C_9
REMARK    9  A    between atoms: C_12  and  C_15
REMARK   10  A    between atoms: C_15  and  C_24
REMARK   11  A    between atoms: C_16  and  C_18
REMARK                            x       y       z     vdW  Elec       q    Type
REMARK                         _______ _______ _______ _____ _____    ______ ____
ROOT
ATOM      1  C   UNL     1      -7.545  -1.904 127.968  0.00  0.00    +0.000 C 
ATOM      2  C   UNL     1      -8.131  -2.912 127.231  0.00  0.00    +0.000 C 
ATOM      3 CL   UNL     1      -8.907  -4.305 127.992  0.00  0.00    +0.000 Cl
ENDROOT
BRANCH   1   7
ATOM      4  C   UNL     1      -5.961   1.546 125.826  0.00  0.00    +0.000 A 
ATOM      5  C   UNL     1      -7.321   1.364 125.969  0.00  0.00    +0.000 A 
ATOM      6  C   UNL     1      -7.774   0.414 126.869  0.00  0.00    +0.000 A 
ATOM      7  C   UNL     1      -6.983  -0.630 127.345  0.00  0.00    +0.000 A 
ATOM      8  C   UNL     1      -5.600  -0.428 127.195  0.00  0.00    +0.000 A 
ATOM      9  C   UNL     1      -5.102   0.681 126.495  0.00  0.00    +0.000 A 
BRANCH   4  10
ATOM     10  O   UNL     1      -5.647   2.664 125.116  0.00  0.00    +0.000 OA
BRANCH  10  11
ATOM     11  C   UNL     1      -5.619   3.855 125.883  0.00  0.00    +0.000 C 
BRANCH  11  12
ATOM     12  C   UNL     1      -4.171   4.315 126.067  0.00  0.00    +0.000 C 
BRANCH  12  13
ATOM     13  N   UNL     1      -3.786   4.457 127.499  0.00  0.00    +0.000 NA
BRANCH  13  15
ATOM     14  C   UNL     1      -1.848   3.116 126.567  0.00  0.00    +0.000 C 
ATOM     15  C   UNL     1      -2.695   3.502 127.771  0.00  0.00    +0.000 C 
ENDBRANCH  13  15
BRANCH  13  16
ATOM     16  C   UNL     1      -3.444   5.865 127.793  0.00  0.00    +0.000 C 
ATOM     17  C   UNL     1      -2.300   6.104 128.767  0.00  0.00    +0.000 C 
ENDBRANCH  13  16
ENDBRANCH  12  13
ENDBRANCH  11  12
ENDBRANCH  10  11
ENDBRANCH   4  10
ENDBRANCH   1   7
BRANCH   2  18
ATOM     18  C   UNL     1      -8.244  -3.003 125.749  0.00  0.00    +0.000 A 
ATOM     19  C   UNL     1      -9.496  -3.116 125.119  0.00  0.00    +0.000 A 
ATOM     20  C   UNL     1      -9.601  -3.042 123.727  0.00  0.00    +0.000 A 
ATOM     21  C   UNL     1      -8.481  -2.728 122.960  0.00  0.00    +0.000 A 
ATOM     22  C   UNL     1      -7.235  -2.615 123.567  0.00  0.00    +0.000 A 
ATOM     23  C   UNL     1      -7.103  -2.855 124.937  0.00  0.00    +0.000 A 
ENDBRANCH   2  18
BRANCH   1  24
ATOM     24  C   UNL     1      -7.432  -2.128 129.454  0.00  0.00    +0.000 A 
ATOM     25  C   UNL     1      -8.060  -1.286 130.391  0.00  0.00    +0.000 A 
ATOM     26  C   UNL     1      -7.843  -1.456 131.761  0.00  0.00    +0.000 A 
ATOM     27  C   UNL     1      -7.096  -2.540 132.216  0.00  0.00    +0.000 A 
ATOM     28  C   UNL     1      -6.543  -3.434 131.303  0.00  0.00    +0.000 A 
ATOM     29  C   UNL     1      -6.689  -3.216 129.933  0.00  0.00    +0.000 A 
ENDBRANCH   1  24
TORSDOF 9
ENDMDL
MODEL 6
REMARK VINA RESULT:      -7.2      3.254      8.182
REMARK  Name = Clomifene
REMARK  11 active torsions:
REMARK  status: ('A' for Active; 'I' for Inactive)
REMARK    1  A    between atoms: C_1  and  C_2
REMARK    2  A    between atoms: C_2  and  N_3
REMARK    3  A    between atoms: N_3  and  C_4
REMARK    4  A    between atoms: N_3  and  C_6
REMARK    5  A    between atoms: C_4  and  C_5
REMARK    6  A    between atoms: C_6  and  C_7
REMARK    7  A    between atoms: C_7  and  O_8
REMARK    8  A    between atoms: O_8  and  C_9
REMARK    9  A    between atoms: C_12  and  C_15
REMARK   10  A    between atoms: C_15  and  C_24
REMARK   11  A    between atoms: C_16  and  C_18
REMARK                            x       y       z     vdW  Elec       q    Type
REMARK                         _______ _______ _______ _____ _____    ______ ____
ROOT
ATOM      1  C   UNL     1      -7.646  -1.708 128.109  0.00  0.00    +0.000 C 
ATOM      2  C   UNL     1      -8.122  -2.786 127.393  0.00  0.00    +0.000 C 
ATOM      3 CL   UNL     1      -8.772  -4.227 128.182  0.00  0.00    +0.000 Cl
ENDROOT
BRANCH   1   7
ATOM      4  C   UNL     1      -6.284   2.161 126.633  0.00  0.00    +0.000 A 
ATOM      5  C   UNL     1      -5.393   1.127 126.838  0.00  0.00    +0.000 A 
ATOM      6  C   UNL     1      -5.891  -0.148 127.051  0.00  0.00    +0.000 A 
ATOM      7  C   UNL     1      -7.199  -0.402 127.460  0.00  0.00    +0.000 A 
ATOM      8  C   UNL     1      -8.094   0.659 127.241  0.00  0.00    +0.000 A 
ATOM      9  C   UNL     1      -7.643   1.903 126.776  0.00  0.00    +0.000 A 
BRANCH   4  10
ATOM     10  O   UNL     1      -5.684   3.298 126.187  0.00  0.00    +0.000 OA
BRANCH  10  11
ATOM     11  C   UNL     1      -6.425   4.006 125.209  0.00  0.00    +0.000 C 
BRANCH  11  12
ATOM     12  C   UNL     1      -5.977   3.572 123.811  0.00  0.00    +0.000 C 
BRANCH  12  13
ATOM     13  N   UNL     1      -7.113   3.431 122.857  0.00  0.00    +0.000 NA
BRANCH  13  15
ATOM     14  C   UNL     1      -5.182   4.087 121.353  0.00  0.00    +0.000 C 
ATOM     15  C   UNL     1      -6.560   3.457 121.489  0.00  0.00    +0.000 C 
ENDBRANCH  13  15
BRANCH  13  16
ATOM     16  C   UNL     1      -7.890   2.213 123.172  0.00  0.00    +0.000 C 
ATOM     17  C   UNL     1      -7.114   0.909 123.263  0.00  0.00    +0.000 C 
ENDBRANCH  13  16
ENDBRANCH  12  13
ENDBRANCH  11  12
ENDBRANCH  10  11
ENDBRANCH   4  10
ENDBRANCH   1   7
BRANCH   2  18
ATOM     18  C   UNL     1      -8.204  -2.925 125.913  0.00  0.00    +0.000 A 
ATOM     19  C   UNL     1      -9.443  -2.905 125.247  0.00  0.00    +0.000 A 
ATOM     20  C   UNL     1      -9.499  -2.878 123.850  0.00  0.00    +0.000 A 
ATOM     21  C   UNL     1      -8.327  -2.742 123.109  0.00  0.00    +0.000 A 
ATOM     22  C   UNL     1      -7.093  -2.762 123.752  0.00  0.00    +0.000 A 
ATOM     23  C   UNL     1      -7.032  -2.958 125.134  0.00  0.00    +0.000 A 
ENDBRANCH   2  18
BRANCH   1  24
ATOM     24  C   UNL     1      -7.534  -1.882 129.602  0.00  0.00    +0.000 A 
ATOM     25  C   UNL     1      -6.842  -2.960 130.184  0.00  0.00    +0.000 A 
ATOM     26  C   UNL     1      -6.853  -3.152 131.568  0.00  0.00    +0.000 A 
ATOM     27  C   UNL     1      -7.452  -2.204 132.395  0.00  0.00    +0.000 A 
ATOM     28  C   UNL     1      -8.062  -1.083 131.839  0.00  0.00    +0.000 A 
ATOM     29  C   UNL     1      -8.124  -0.936 130.452  0.00  0.00    +0.000 A 
ENDBRANCH   1  24
TORSDOF 9
ENDMDL
MODEL 7
REMARK VINA RESULT:      -7.0      7.112      9.905
REMARK  Name = Clomifene
REMARK  11 active torsions:
REMARK  status: ('A' for Active; 'I' for Inactive)
REMARK    1  A    between atoms: C_1  and  C_2
REMARK    2  A    between atoms: C_2  and  N_3
REMARK    3  A    between atoms: N_3  and  C_4
REMARK    4  A    between atoms: N_3  and  C_6
REMARK    5  A    between atoms: C_4  and  C_5
REMARK    6  A    between atoms: C_6  and  C_7
REMARK    7  A    between atoms: C_7  and  O_8
REMARK    8  A    between atoms: O_8  and  C_9
REMARK    9  A    between atoms: C_12  and  C_15
REMARK   10  A    between atoms: C_15  and  C_24
REMARK   11  A    between atoms: C_16  and  C_18
REMARK                            x       y       z     vdW  Elec       q    Type
REMARK                         _______ _______ _______ _____ _____    ______ ____
ROOT
ATOM      1  C   UNL     1      -9.772   5.505 131.070  0.00  0.00    +0.000 C 
ATOM      2  C   UNL     1     -10.125   4.201 130.794  0.00  0.00    +0.000 C 
ATOM      3 CL   UNL     1     -11.671   3.782 130.048  0.00  0.00    +0.000 Cl
ENDROOT
BRANCH   1   7
ATOM      4  C   UNL     1      -5.692   6.334 132.359  0.00  0.00    +0.000 A 
ATOM      5  C   UNL     1      -6.171   6.828 131.162  0.00  0.00    +0.000 A 
ATOM      6  C   UNL     1      -7.532   6.768 130.916  0.00  0.00    +0.000 A 
ATOM      7  C   UNL     1      -8.397   5.909 131.593  0.00  0.00    +0.000 A 
ATOM      8  C   UNL     1      -7.896   5.418 132.810  0.00  0.00    +0.000 A 
ATOM      9  C   UNL     1      -6.577   5.683 133.210  0.00  0.00    +0.000 A 
BRANCH   4  10
ATOM     10  O   UNL     1      -4.395   6.677 132.593  0.00  0.00    +0.000 OA
BRANCH  10  11
ATOM     11  C   UNL     1      -3.498   6.315 131.557  0.00  0.00    +0.000 C 
BRANCH  11  12
ATOM     12  C   UNL     1      -3.228   4.810 131.613  0.00  0.00    +0.000 C 
BRANCH  12  13
ATOM     13  N   UNL     1      -3.300   4.158 130.275  0.00  0.00    +0.000 NA
BRANCH  13  15
ATOM     14  C   UNL     1      -4.842   2.773 131.732  0.00  0.00    +0.000 C 
ATOM     15  C   UNL     1      -4.337   3.110 130.336  0.00  0.00    +0.000 C 
ENDBRANCH  13  15
BRANCH  13  16
ATOM     16  C   UNL     1      -3.530   5.176 129.228  0.00  0.00    +0.000 C 
ATOM     17  C   UNL     1      -2.581   5.165 128.040  0.00  0.00    +0.000 C 
ENDBRANCH  13  16
ENDBRANCH  12  13
ENDBRANCH  11  12
ENDBRANCH  10  11
ENDBRANCH   4  10
ENDBRANCH   1   7
BRANCH   2  18
ATOM     18  C   UNL     1      -9.313   2.975 131.026  0.00  0.00    +0.000 A 
ATOM     19  C   UNL     1      -9.570   2.127 132.118  0.00  0.00    +0.000 A 
ATOM     20  C   UNL     1      -8.909   0.901 132.238  0.00  0.00    +0.000 A 
ATOM     21  C   UNL     1      -8.083   0.452 131.210  0.00  0.00    +0.000 A 
ATOM     22  C   UNL     1      -7.816   1.279 130.123  0.00  0.00    +0.000 A 
ATOM     23  C   UNL     1      -8.345   2.572 130.086  0.00  0.00    +0.000 A 
ENDBRANCH   2  18
BRANCH   1  24
ATOM     24  C   UNL     1     -10.839   6.552 130.876  0.00  0.00    +0.000 A 
ATOM     25  C   UNL     1     -11.869   6.759 131.812  0.00  0.00    +0.000 A 
ATOM     26  C   UNL     1     -12.905   7.659 131.548  0.00  0.00    +0.000 A 
ATOM     27  C   UNL     1     -12.859   8.451 130.402  0.00  0.00    +0.000 A 
ATOM     28  C   UNL     1     -11.798   8.323 129.511  0.00  0.00    +0.000 A 
ATOM     29  C   UNL     1     -10.808   7.364 129.733  0.00  0.00    +0.000 A 
ENDBRANCH   1  24
TORSDOF 9
ENDMDL
MODEL 8
REMARK VINA RESULT:      -6.8      3.612      8.243
REMARK  Name = Clomifene
REMARK  11 active torsions:
REMARK  status: ('A' for Active; 'I' for Inactive)
REMARK    1  A    between atoms: C_1  and  C_2
REMARK    2  A    between atoms: C_2  and  N_3
REMARK    3  A    between atoms: N_3  and  C_4
REMARK    4  A    between atoms: N_3  and  C_6
REMARK    5  A    between atoms: C_4  and  C_5
REMARK    6  A    between atoms: C_6  and  C_7
REMARK    7  A    between atoms: C_7  and  O_8
REMARK    8  A    between atoms: O_8  and  C_9
REMARK    9  A    between atoms: C_12  and  C_15
REMARK   10  A    between atoms: C_15  and  C_24
REMARK   11  A    between atoms: C_16  and  C_18
REMARK                            x       y       z     vdW  Elec       q    Type
REMARK                         _______ _______ _______ _____ _____    ______ ____
ROOT
ATOM      1  C   UNL     1      -6.758  -2.163 130.698  0.00  0.00    +0.000 C 
ATOM      2  C   UNL     1      -6.537  -0.847 131.043  0.00  0.00    +0.000 C 
ATOM      3 CL   UNL     1      -5.729  -0.390 132.547  0.00  0.00    +0.000 Cl
ENDROOT
BRANCH   1   7
ATOM      4  C   UNL     1      -8.675  -3.075 126.891  0.00  0.00    +0.000 A 
ATOM      5  C   UNL     1      -7.644  -2.160 126.964  0.00  0.00    +0.000 A 
ATOM      6  C   UNL     1      -6.895  -2.094 128.127  0.00  0.00    +0.000 A 
ATOM      7  C   UNL     1      -7.336  -2.592 129.352  0.00  0.00    +0.000 A 
ATOM      8  C   UNL     1      -8.383  -3.524 129.261  0.00  0.00    +0.000 A 
ATOM      9  C   UNL     1      -8.999  -3.802 128.031  0.00  0.00    +0.000 A 
BRANCH   4  10
ATOM     10  O   UNL     1      -9.164  -3.223 125.630  0.00  0.00    +0.000 OA
BRANCH  10  11
ATOM     11  C   UNL     1      -8.247  -3.786 124.708  0.00  0.00    +0.000 C 
BRANCH  11  12
ATOM     12  C   UNL     1      -8.125  -2.876 123.484  0.00  0.00    +0.000 C 
BRANCH  12  13
ATOM     13  N   UNL     1      -6.728  -2.424 123.235  0.00  0.00    +0.000 NA
BRANCH  13  15
ATOM     14  C   UNL     1      -8.047  -0.295 123.620  0.00  0.00    +0.000 C 
ATOM     15  C   UNL     1      -6.705  -0.951 123.327  0.00  0.00    +0.000 C 
ENDBRANCH  13  15
BRANCH  13  16
ATOM     16  C   UNL     1      -5.802  -3.102 124.167  0.00  0.00    +0.000 C 
ATOM     17  C   UNL     1      -4.604  -3.807 123.552  0.00  0.00    +0.000 C 
ENDBRANCH  13  16
ENDBRANCH  12  13
ENDBRANCH  11  12
ENDBRANCH  10  11
ENDBRANCH   4  10
ENDBRANCH   1   7
BRANCH   2  18
ATOM     18  C   UNL     1      -6.884   0.367 130.254  0.00  0.00    +0.000 A 
ATOM     19  C   UNL     1      -5.911   1.054 129.506  0.00  0.00    +0.000 A 
ATOM     20  C   UNL     1      -6.277   2.094 128.647  0.00  0.00    +0.000 A 
ATOM     21  C   UNL     1      -7.624   2.376 128.428  0.00  0.00    +0.000 A 
ATOM     22  C   UNL     1      -8.600   1.707 129.161  0.00  0.00    +0.000 A 
ATOM     23  C   UNL     1      -8.224   0.785 130.141  0.00  0.00    +0.000 A 
ENDBRANCH   2  18
BRANCH   1  24
ATOM     24  C   UNL     1      -6.444  -3.201 131.746  0.00  0.00    +0.000 A 
ATOM     25  C   UNL     1      -5.402  -4.134 131.591  0.00  0.00    +0.000 A 
ATOM     26  C   UNL     1      -5.210  -5.152 132.529  0.00  0.00    +0.000 A 
ATOM     27  C   UNL     1      -5.978  -5.177 133.691  0.00  0.00    +0.000 A 
ATOM     28  C   UNL     1      -6.953  -4.206 133.902  0.00  0.00    +0.000 A 
ATOM     29  C   UNL     1      -7.201  -3.240 132.926  0.00  0.00    +0.000 A 
ENDBRANCH   1  24
TORSDOF 9
ENDMDL
MODEL 9
REMARK VINA RESULT:      -6.8      2.392      5.059
REMARK  Name = Clomifene
REMARK  11 active torsions:
REMARK  status: ('A' for Active; 'I' for Inactive)
REMARK    1  A    between atoms: C_1  and  C_2
REMARK    2  A    between atoms: C_2  and  N_3
REMARK    3  A    between atoms: N_3  and  C_4
REMARK    4  A    between atoms: N_3  and  C_6
REMARK    5  A    between atoms: C_4  and  C_5
REMARK    6  A    between atoms: C_6  and  C_7
REMARK    7  A    between atoms: C_7  and  O_8
REMARK    8  A    between atoms: O_8  and  C_9
REMARK    9  A    between atoms: C_12  and  C_15
REMARK   10  A    between atoms: C_15  and  C_24
REMARK   11  A    between atoms: C_16  and  C_18
REMARK                            x       y       z     vdW  Elec       q    Type
REMARK                         _______ _______ _______ _____ _____    ______ ____
ROOT
ATOM      1  C   UNL     1      -5.549   2.371 126.061  0.00  0.00    +0.000 C 
ATOM      2  C   UNL     1      -6.106   2.758 124.862  0.00  0.00    +0.000 C 
ATOM      3 CL   UNL     1      -5.489   4.132 123.937  0.00  0.00    +0.000 Cl
ENDROOT
BRANCH   1   7
ATOM      4  C   UNL     1      -6.947  -1.341 127.870  0.00  0.00    +0.000 A 
ATOM      5  C   UNL     1      -5.741  -1.289 127.199  0.00  0.00    +0.000 A 
ATOM      6  C   UNL     1      -5.214  -0.051 126.873  0.00  0.00    +0.000 A 
ATOM      7  C   UNL     1      -5.976   1.116 126.817  0.00  0.00    +0.000 A 
ATOM      8  C   UNL     1      -7.198   1.048 127.506  0.00  0.00    +0.000 A 
ATOM      9  C   UNL     1      -7.642  -0.155 128.076  0.00  0.00    +0.000 A 
BRANCH   4  10
ATOM     10  O   UNL     1      -7.231  -2.580 128.355  0.00  0.00    +0.000 OA
BRANCH  10  11
ATOM     11  C   UNL     1      -8.463  -3.116 127.906  0.00  0.00    +0.000 C 
BRANCH  11  12
ATOM     12  C   UNL     1      -8.237  -3.916 126.621  0.00  0.00    +0.000 C 
BRANCH  12  13
ATOM     13  N   UNL     1      -8.128  -3.052 125.412  0.00  0.00    +0.000 NA
BRANCH  13  15
ATOM     14  C   UNL     1      -6.082  -2.737 123.951  0.00  0.00    +0.000 C 
ATOM     15  C   UNL     1      -7.151  -3.673 124.498  0.00  0.00    +0.000 C 
ENDBRANCH  13  15
BRANCH  13  16
ATOM     16  C   UNL     1      -9.466  -2.844 124.817  0.00  0.00    +0.000 C 
ATOM     17  C   UNL     1      -9.663  -3.328 123.389  0.00  0.00    +0.000 C 
ENDBRANCH  13  16
ENDBRANCH  12  13
ENDBRANCH  11  12
ENDBRANCH  10  11
ENDBRANCH   4  10
ENDBRANCH   1   7
BRANCH   2  18
ATOM     18  C   UNL     1      -7.243   2.120 124.142  0.00  0.00    +0.000 A 
ATOM     19  C   UNL     1      -7.107   0.855 123.541  0.00  0.00    +0.000 A 
ATOM     20  C   UNL     1      -8.219   0.199 123.007  0.00  0.00    +0.000 A 
ATOM     21  C   UNL     1      -9.494   0.735 123.179  0.00  0.00    +0.000 A 
ATOM     22  C   UNL     1      -9.646   1.986 123.769  0.00  0.00    +0.000 A 
ATOM     23  C   UNL     1      -8.518   2.716 124.152  0.00  0.00    +0.000 A 
ENDBRANCH   2  18
BRANCH   1  24
ATOM     24  C   UNL     1      -4.500   3.281 126.648  0.00  0.00    +0.000 A 
ATOM     25  C   UNL     1      -3.123   3.024 126.513  0.00  0.00    +0.000 A 
ATOM     26  C   UNL     1      -2.181   3.826 127.164  0.00  0.00    +0.000 A 
ATOM     27  C   UNL     1      -2.596   4.962 127.855  0.00  0.00    +0.000 A 
ATOM     28  C   UNL     1      -3.950   5.279 127.921  0.00  0.00    +0.000 A 
ATOM     29  C   UNL     1      -4.896   4.432 127.342  0.00  0.00    +0.000 A 
ENDBRANCH   1  24
TORSDOF 9
ENDMDL
