MODEL 1
REMARK VINA RESULT:      -6.1      0.000      0.000
REMARK  Name = Clonidine
REMARK  1 active torsions:
REMARK  status: ('A' for Active; 'I' for Inactive)
REMARK    1  A    between atoms: C_8  and  N_9
REMARK                            x       y       z     vdW  Elec       q    Type
REMARK                         _______ _______ _______ _____ _____    ______ ____
ROOT
ATOM      1 CL   UNL     1      -9.066   3.180 120.974  0.00  0.00    +0.000 Cl
ATOM      2  C   UNL     1      -7.559   3.877 120.515  0.00  0.00    +0.000 A 
ATOM      3  C   UNL     1      -7.618   4.441 119.230  0.00  0.00    +0.000 A 
ATOM      4  C   UNL     1      -6.548   5.141 118.703  0.00  0.00    +0.000 A 
ATOM      5  C   UNL     1      -5.403   5.289 119.470  0.00  0.00    +0.000 A 
ATOM      6  C   UNL     1      -5.322   4.703 120.747  0.00  0.00    +0.000 A 
ATOM      7 CL   UNL     1      -3.844   4.956 121.620  0.00  0.00    +0.000 Cl
ATOM      8  C   UNL     1      -6.397   3.961 121.314  0.00  0.00    +0.000 A 
ENDROOT
BRANCH   8   9
ATOM      9  N   UNL     1      -6.173   3.267 122.553  0.00  0.00    +0.000 N 
ATOM     10  C   UNL     1      -6.349   3.799 123.799  0.00  0.00    +0.000 C 
ATOM     11  N   UNL     1      -5.409   4.184 124.612  0.00  0.00    +0.000 NA
ATOM     12  C   UNL     1      -6.164   4.682 125.812  0.00  0.00    +0.000 C 
ATOM     13  C   UNL     1      -7.622   4.804 125.368  0.00  0.00    +0.000 C 
ATOM     14  N   UNL     1      -7.628   3.860 124.272  0.00  0.00    +0.000 N 
ATOM     15  H   UNL     1      -5.287   2.769 122.490  0.00  0.00    +0.000 HD
ATOM     16  H   UNL     1      -8.365   3.923 123.586  0.00  0.00    +0.000 HD
ENDBRANCH   8   9
TORSDOF 1
ENDMDL
MODEL 2
REMARK VINA RESULT:      -6.0      2.939      3.661
REMARK  Name = Clonidine
REMARK  1 active torsions:
REMARK  status: ('A' for Active; 'I' for Inactive)
REMARK    1  A    between atoms: C_8  and  N_9
REMARK                            x       y       z     vdW  Elec       q    Type
REMARK                         _______ _______ _______ _____ _____    ______ ____
ROOT
ATOM      1 CL   UNL     1      -9.318   3.841 119.881  0.00  0.00    +0.000 Cl
ATOM      2  C   UNL     1      -7.822   3.793 120.733  0.00  0.00    +0.000 A 
ATOM      3  C   UNL     1      -6.753   4.214 119.926  0.00  0.00    +0.000 A 
ATOM      4  C   UNL     1      -5.475   4.347 120.439  0.00  0.00    +0.000 A 
ATOM      5  C   UNL     1      -5.259   4.064 121.778  0.00  0.00    +0.000 A 
ATOM      6  C   UNL     1      -6.317   3.613 122.589  0.00  0.00    +0.000 A 
ATOM      7 CL   UNL     1      -5.935   3.293 124.250  0.00  0.00    +0.000 Cl
ATOM      8  C   UNL     1      -7.641   3.447 122.091  0.00  0.00    +0.000 A 
ENDROOT
BRANCH   8   9
ATOM      9  N   UNL     1      -8.624   2.835 122.943  0.00  0.00    +0.000 N 
ATOM     10  C   UNL     1      -8.937   1.506 122.959  0.00  0.00    +0.000 C 
ATOM     11  N   UNL     1     -10.004   0.960 122.452  0.00  0.00    +0.000 NA
ATOM     12  C   UNL     1      -9.826  -0.502 122.750  0.00  0.00    +0.000 C 
ATOM     13  C   UNL     1      -8.369  -0.667 123.183  0.00  0.00    +0.000 C 
ATOM     14  N   UNL     1      -8.093   0.678 123.641  0.00  0.00    +0.000 N 
ATOM     15  H   UNL     1      -9.465   3.409 122.933  0.00  0.00    +0.000 HD
ATOM     16  H   UNL     1      -7.131   0.972 123.719  0.00  0.00    +0.000 HD
ENDBRANCH   8   9
TORSDOF 1
ENDMDL
MODEL 3
REMARK VINA RESULT:      -5.5      5.142      6.203
REMARK  Name = Clonidine
REMARK  1 active torsions:
REMARK  status: ('A' for Active; 'I' for Inactive)
REMARK    1  A    between atoms: C_8  and  N_9
REMARK                            x       y       z     vdW  Elec       q    Type
REMARK                         _______ _______ _______ _____ _____    ______ ____
ROOT
ATOM      1 CL   UNL     1     -10.061  -0.381 122.261  0.00  0.00    +0.000 Cl
ATOM      2  C   UNL     1      -8.965  -1.404 123.109  0.00  0.00    +0.000 A 
ATOM      3  C   UNL     1      -9.552  -2.638 123.432  0.00  0.00    +0.000 A 
ATOM      4  C   UNL     1      -8.819  -3.648 124.028  0.00  0.00    +0.000 A 
ATOM      5  C   UNL     1      -7.477  -3.430 124.300  0.00  0.00    +0.000 A 
ATOM      6  C   UNL     1      -6.886  -2.186 124.007  0.00  0.00    +0.000 A 
ATOM      7 CL   UNL     1      -5.201  -2.026 124.385  0.00  0.00    +0.000 Cl
ATOM      8  C   UNL     1      -7.614  -1.119 123.411  0.00  0.00    +0.000 A 
ENDROOT
BRANCH   8   9
ATOM      9  N   UNL     1      -6.976   0.164 123.290  0.00  0.00    +0.000 N 
ATOM     10  C   UNL     1      -7.390   1.313 123.903  0.00  0.00    +0.000 C 
ATOM     11  N   UNL     1      -8.009   2.308 123.337  0.00  0.00    +0.000 NA
ATOM     12  C   UNL     1      -8.220   3.278 124.466  0.00  0.00    +0.000 C 
ATOM     13  C   UNL     1      -7.921   2.500 125.748  0.00  0.00    +0.000 C 
ATOM     14  N   UNL     1      -7.054   1.470 125.217  0.00  0.00    +0.000 N 
ATOM     15  H   UNL     1      -6.764   0.330 122.308  0.00  0.00    +0.000 HD
ATOM     16  H   UNL     1      -6.919   0.629 125.756  0.00  0.00    +0.000 HD
ENDBRANCH   8   9
TORSDOF 1
ENDMDL
MODEL 4
REMARK VINA RESULT:      -5.4      5.012      6.495
REMARK  Name = Clonidine
REMARK  1 active torsions:
REMARK  status: ('A' for Active; 'I' for Inactive)
REMARK    1  A    between atoms: C_8  and  N_9
REMARK                            x       y       z     vdW  Elec       q    Type
REMARK                         _______ _______ _______ _____ _____    ______ ____
ROOT
ATOM      1 CL   UNL     1      -5.366  -1.532 125.079  0.00  0.00    +0.000 Cl
ATOM      2  C   UNL     1      -6.873  -1.848 124.308  0.00  0.00    +0.000 A 
ATOM      3  C   UNL     1      -7.286  -3.176 124.503  0.00  0.00    +0.000 A 
ATOM      4  C   UNL     1      -8.517  -3.618 124.052  0.00  0.00    +0.000 A 
ATOM      5  C   UNL     1      -9.353  -2.723 123.404  0.00  0.00    +0.000 A 
ATOM      6  C   UNL     1      -8.937  -1.398 123.177  0.00  0.00    +0.000 A 
ATOM      7 CL   UNL     1     -10.065  -0.363 122.361  0.00  0.00    +0.000 Cl
ATOM      8  C   UNL     1      -7.671  -0.913 123.611  0.00  0.00    +0.000 A 
ENDROOT
BRANCH   8   9
ATOM      9  N   UNL     1      -7.263   0.404 123.202  0.00  0.00    +0.000 N 
ATOM     10  C   UNL     1      -7.481   1.552 123.909  0.00  0.00    +0.000 C 
ATOM     11  N   UNL     1      -8.368   2.465 123.640  0.00  0.00    +0.000 NA
ATOM     12  C   UNL     1      -8.168   3.481 124.729  0.00  0.00    +0.000 C 
ATOM     13  C   UNL     1      -7.285   2.803 125.777  0.00  0.00    +0.000 C 
ATOM     14  N   UNL     1      -6.635   1.810 124.949  0.00  0.00    +0.000 N 
ATOM     15  H   UNL     1      -7.503   0.527 122.220  0.00  0.00    +0.000 HD
ATOM     16  H   UNL     1      -6.209   1.013 125.397  0.00  0.00    +0.000 HD
ENDBRANCH   8   9
TORSDOF 1
ENDMDL
MODEL 5
REMARK VINA RESULT:      -5.3      8.634     10.229
REMARK  Name = Clonidine
REMARK  1 active torsions:
REMARK  status: ('A' for Active; 'I' for Inactive)
REMARK    1  A    between atoms: C_8  and  N_9
REMARK                            x       y       z     vdW  Elec       q    Type
REMARK                         _______ _______ _______ _____ _____    ______ ____
ROOT
ATOM      1 CL   UNL     1      -9.026   5.067 128.938  0.00  0.00    +0.000 Cl
ATOM      2  C   UNL     1     -10.146   6.325 129.295  0.00  0.00    +0.000 A 
ATOM      3  C   UNL     1     -10.095   7.352 128.338  0.00  0.00    +0.000 A 
ATOM      4  C   UNL     1     -10.979   8.415 128.378  0.00  0.00    +0.000 A 
ATOM      5  C   UNL     1     -11.935   8.453 129.380  0.00  0.00    +0.000 A 
ATOM      6  C   UNL     1     -11.976   7.445 130.361  0.00  0.00    +0.000 A 
ATOM      7 CL   UNL     1     -13.216   7.591 131.566  0.00  0.00    +0.000 Cl
ATOM      8  C   UNL     1     -11.071   6.346 130.362  0.00  0.00    +0.000 A 
ENDROOT
BRANCH   8   9
ATOM      9  N   UNL     1     -11.083   5.448 131.486  0.00  0.00    +0.000 N 
ATOM     10  C   UNL     1     -10.004   5.150 132.269  0.00  0.00    +0.000 C 
ATOM     11  N   UNL     1      -9.314   4.047 132.241  0.00  0.00    +0.000 NA
ATOM     12  C   UNL     1      -8.262   4.264 133.292  0.00  0.00    +0.000 C 
ATOM     13  C   UNL     1      -8.307   5.755 133.627  0.00  0.00    +0.000 C 
ATOM     14  N   UNL     1      -9.664   6.059 133.229  0.00  0.00    +0.000 N 
ATOM     15  H   UNL     1     -11.588   4.605 131.221  0.00  0.00    +0.000 HD
ATOM     16  H   UNL     1      -9.911   7.021 133.053  0.00  0.00    +0.000 HD
ENDBRANCH   8   9
TORSDOF 1
ENDMDL
MODEL 6
REMARK VINA RESULT:      -5.1      7.926      9.032
REMARK  Name = Clonidine
REMARK  1 active torsions:
REMARK  status: ('A' for Active; 'I' for Inactive)
REMARK    1  A    between atoms: C_8  and  N_9
REMARK                            x       y       z     vdW  Elec       q    Type
REMARK                         _______ _______ _______ _____ _____    ______ ____
ROOT
ATOM      1 CL   UNL     1      -9.132  -3.963 127.972  0.00  0.00    +0.000 Cl
ATOM      2  C   UNL     1      -8.149  -3.266 126.741  0.00  0.00    +0.000 A 
ATOM      3  C   UNL     1      -8.478  -3.766 125.471  0.00  0.00    +0.000 A 
ATOM      4  C   UNL     1      -7.879  -3.270 124.327  0.00  0.00    +0.000 A 
ATOM      5  C   UNL     1      -6.944  -2.255 124.448  0.00  0.00    +0.000 A 
ATOM      6  C   UNL     1      -6.585  -1.767 125.719  0.00  0.00    +0.000 A 
ATOM      7 CL   UNL     1      -5.408  -0.493 125.752  0.00  0.00    +0.000 Cl
ATOM      8  C   UNL     1      -7.167  -2.266 126.918  0.00  0.00    +0.000 A 
ENDROOT
BRANCH   8   9
ATOM      9  N   UNL     1      -6.632  -1.823 128.177  0.00  0.00    +0.000 N 
ATOM     10  C   UNL     1      -5.716  -2.503 128.928  0.00  0.00    +0.000 C 
ATOM     11  N   UNL     1      -5.957  -3.169 130.020  0.00  0.00    +0.000 NA
ATOM     12  C   UNL     1      -4.609  -3.707 130.409  0.00  0.00    +0.000 C 
ATOM     13  C   UNL     1      -3.708  -3.501 129.190  0.00  0.00    +0.000 C 
ATOM     14  N   UNL     1      -4.409  -2.411 128.545  0.00  0.00    +0.000 N 
ATOM     15  H   UNL     1      -7.399  -1.484 128.754  0.00  0.00    +0.000 HD
ATOM     16  H   UNL     1      -4.232  -2.237 127.568  0.00  0.00    +0.000 HD
ENDBRANCH   8   9
TORSDOF 1
ENDMDL
MODEL 7
REMARK VINA RESULT:      -5.1      6.284      8.332
REMARK  Name = Clonidine
REMARK  1 active torsions:
REMARK  status: ('A' for Active; 'I' for Inactive)
REMARK    1  A    between atoms: C_8  and  N_9
REMARK                            x       y       z     vdW  Elec       q    Type
REMARK                         _______ _______ _______ _____ _____    ______ ____
ROOT
ATOM      1 CL   UNL     1      -6.747   0.110 127.889  0.00  0.00    +0.000 Cl
ATOM      2  C   UNL     1      -7.530  -1.341 127.391  0.00  0.00    +0.000 A 
ATOM      3  C   UNL     1      -7.769  -2.200 128.476  0.00  0.00    +0.000 A 
ATOM      4  C   UNL     1      -8.475  -3.378 128.317  0.00  0.00    +0.000 A 
ATOM      5  C   UNL     1      -8.959  -3.704 127.059  0.00  0.00    +0.000 A 
ATOM      6  C   UNL     1      -8.700  -2.865 125.959  0.00  0.00    +0.000 A 
ATOM      7 CL   UNL     1      -9.357  -3.367 124.434  0.00  0.00    +0.000 Cl
ATOM      8  C   UNL     1      -7.962  -1.654 126.082  0.00  0.00    +0.000 A 
ENDROOT
BRANCH   8   9
ATOM      9  N   UNL     1      -7.611  -0.939 124.885  0.00  0.00    +0.000 N 
ATOM     10  C   UNL     1      -8.341   0.071 124.326  0.00  0.00    +0.000 C 
ATOM     11  N   UNL     1      -9.086  -0.015 123.263  0.00  0.00    +0.000 NA
ATOM     12  C   UNL     1      -9.645   1.372 123.113  0.00  0.00    +0.000 C 
ATOM     13  C   UNL     1      -9.347   2.088 124.431  0.00  0.00    +0.000 C 
ATOM     14  N   UNL     1      -8.215   1.310 124.886  0.00  0.00    +0.000 N 
ATOM     15  H   UNL     1      -7.318  -1.613 124.180  0.00  0.00    +0.000 HD
ATOM     16  H   UNL     1      -7.968   1.344 125.863  0.00  0.00    +0.000 HD
ENDBRANCH   8   9
TORSDOF 1
ENDMDL
MODEL 8
REMARK VINA RESULT:      -5.1      4.119      5.846
REMARK  Name = Clonidine
REMARK  1 active torsions:
REMARK  status: ('A' for Active; 'I' for Inactive)
REMARK    1  A    between atoms: C_8  and  N_9
REMARK                            x       y       z     vdW  Elec       q    Type
REMARK                         _______ _______ _______ _____ _____    ______ ____
ROOT
ATOM      1 CL   UNL     1      -5.333   0.089 125.869  0.00  0.00    +0.000 Cl
ATOM      2  C   UNL     1      -6.451  -0.524 124.712  0.00  0.00    +0.000 A 
ATOM      3  C   UNL     1      -6.182  -1.864 124.389  0.00  0.00    +0.000 A 
ATOM      4  C   UNL     1      -7.017  -2.582 123.553  0.00  0.00    +0.000 A 
ATOM      5  C   UNL     1      -8.142  -1.961 123.036  0.00  0.00    +0.000 A 
ATOM      6  C   UNL     1      -8.406  -0.610 123.329  0.00  0.00    +0.000 A 
ATOM      7 CL   UNL     1      -9.844   0.065 122.632  0.00  0.00    +0.000 Cl
ATOM      8  C   UNL     1      -7.559   0.166 124.171  0.00  0.00    +0.000 A 
ENDROOT
BRANCH   8   9
ATOM      9  N   UNL     1      -7.816   1.576 124.291  0.00  0.00    +0.000 N 
ATOM     10  C   UNL     1      -7.053   2.567 123.742  0.00  0.00    +0.000 C 
ATOM     11  N   UNL     1      -6.220   3.338 124.378  0.00  0.00    +0.000 NA
ATOM     12  C   UNL     1      -5.665   4.222 123.296  0.00  0.00    +0.000 C 
ATOM     13  C   UNL     1      -6.081   3.578 121.974  0.00  0.00    +0.000 C 
ATOM     14  N   UNL     1      -7.238   2.830 122.416  0.00  0.00    +0.000 N 
ATOM     15  H   UNL     1      -8.041   1.782 125.263  0.00  0.00    +0.000 HD
ATOM     16  H   UNL     1      -7.567   2.067 121.842  0.00  0.00    +0.000 HD
ENDBRANCH   8   9
TORSDOF 1
ENDMDL
MODEL 9
REMARK VINA RESULT:      -5.0      5.528      7.173
REMARK  Name = Clonidine
REMARK  1 active torsions:
REMARK  status: ('A' for Active; 'I' for Inactive)
REMARK    1  A    between atoms: C_8  and  N_9
REMARK                            x       y       z     vdW  Elec       q    Type
REMARK                         _______ _______ _______ _____ _____    ______ ____
ROOT
ATOM      1 CL   UNL     1      -5.583   0.115 126.106  0.00  0.00    +0.000 Cl
ATOM      2  C   UNL     1      -6.228  -1.243 125.267  0.00  0.00    +0.000 A 
ATOM      3  C   UNL     1      -5.215  -2.110 124.826  0.00  0.00    +0.000 A 
ATOM      4  C   UNL     1      -5.515  -3.314 124.215  0.00  0.00    +0.000 A 
ATOM      5  C   UNL     1      -6.845  -3.666 124.046  0.00  0.00    +0.000 A 
ATOM      6  C   UNL     1      -7.869  -2.791 124.458  0.00  0.00    +0.000 A 
ATOM      7 CL   UNL     1      -9.496  -3.334 124.203  0.00  0.00    +0.000 Cl
ATOM      8  C   UNL     1      -7.597  -1.537 125.074  0.00  0.00    +0.000 A 
ENDROOT
BRANCH   8   9
ATOM      9  N   UNL     1      -8.694  -0.640 125.320  0.00  0.00    +0.000 N 
ATOM     10  C   UNL     1      -8.835   0.603 124.773  0.00  0.00    +0.000 C 
ATOM     11  N   UNL     1      -8.639   1.738 125.380  0.00  0.00    +0.000 NA
ATOM     12  C   UNL     1      -8.930   2.760 124.317  0.00  0.00    +0.000 C 
ATOM     13  C   UNL     1      -8.979   1.989 122.997  0.00  0.00    +0.000 C 
ATOM     14  N   UNL     1      -9.304   0.669 123.493  0.00  0.00    +0.000 N 
ATOM     15  H   UNL     1      -8.881  -0.624 126.321  0.00  0.00    +0.000 HD
ATOM     16  H   UNL     1      -9.122  -0.127 122.900  0.00  0.00    +0.000 HD
ENDBRANCH   8   9
TORSDOF 1
ENDMDL
