MODEL 1
REMARK VINA RESULT:      -7.9      0.000      0.000
REMARK  Name = Clonazepam
REMARK  2 active torsions:
REMARK  status: ('A' for Active; 'I' for Inactive)
REMARK    1  A    between atoms: N_2  and  C_4
REMARK    2  A    between atoms: C_13  and  C_14
REMARK                            x       y       z     vdW  Elec       q    Type
REMARK                         _______ _______ _______ _____ _____    ______ ____
ROOT
ATOM      1  C   UNL     1      -7.578  -0.141 123.505  0.00  0.00    +0.000 A 
ATOM      2  C   UNL     1      -6.928   1.051 123.174  0.00  0.00    +0.000 A 
ATOM      3  C   UNL     1      -7.275   2.230 123.851  0.00  0.00    +0.000 A 
ATOM      4  C   UNL     1      -8.282   2.204 124.837  0.00  0.00    +0.000 A 
ATOM      5  N   UNL     1      -8.728   3.335 125.536  0.00  0.00    +0.000 N 
ATOM      6  C   UNL     1      -7.958   4.387 125.955  0.00  0.00    +0.000 C 
ATOM      7  O   UNL     1      -8.469   5.272 126.648  0.00  0.00    +0.000 OA
ATOM      8  C   UNL     1      -6.472   4.330 125.653  0.00  0.00    +0.000 C 
ATOM      9  N   UNL     1      -6.245   4.446 124.217  0.00  0.00    +0.000 NA
ATOM     10  C   UNL     1      -6.630   3.502 123.427  0.00  0.00    +0.000 C 
ATOM     11  C   UNL     1      -8.921   0.996 125.146  0.00  0.00    +0.000 A 
ATOM     12  C   UNL     1      -8.556  -0.185 124.501  0.00  0.00    +0.000 A 
ATOM     13  H   UNL     1      -9.665   3.346 125.921  0.00  0.00    +0.000 HD
ENDROOT
BRANCH  10  14
ATOM     14  C   UNL     1      -6.408   3.748 121.975  0.00  0.00    +0.000 A 
ATOM     15  C   UNL     1      -5.132   4.175 121.581  0.00  0.00    +0.000 A 
ATOM     16  C   UNL     1      -4.943   4.701 120.305  0.00  0.00    +0.000 A 
ATOM     17  C   UNL     1      -5.993   4.700 119.388  0.00  0.00    +0.000 A 
ATOM     18  C   UNL     1      -7.227   4.148 119.738  0.00  0.00    +0.000 A 
ATOM     19  C   UNL     1      -7.457   3.720 121.048  0.00  0.00    +0.000 A 
ATOM     20 CL   UNL     1      -9.062   3.242 121.465  0.00  0.00    +0.000 Cl
ENDBRANCH  10  14
BRANCH   1  22
ATOM     21  O   UNL     1      -6.066  -1.617 122.583  0.00  0.00    +0.000 OA
ATOM     22  N   UNL     1      -7.263  -1.360 122.771  0.00  0.00    +0.000 N 
ATOM     23  O   UNL     1      -8.216  -2.047 122.384  0.00  0.00    +0.000 OA
ENDBRANCH   1  22
TORSDOF 2
ENDMDL
MODEL 2
REMARK VINA RESULT:      -7.8      3.140      5.267
REMARK  Name = Clonazepam
REMARK  2 active torsions:
REMARK  status: ('A' for Active; 'I' for Inactive)
REMARK    1  A    between atoms: N_2  and  C_4
REMARK    2  A    between atoms: C_13  and  C_14
REMARK                            x       y       z     vdW  Elec       q    Type
REMARK                         _______ _______ _______ _____ _____    ______ ____
ROOT
ATOM      1  C   UNL     1      -6.263   4.404 120.832  0.00  0.00    +0.000 A 
ATOM      2  C   UNL     1      -5.910   3.884 122.080  0.00  0.00    +0.000 A 
ATOM      3  C   UNL     1      -6.847   3.120 122.793  0.00  0.00    +0.000 A 
ATOM      4  C   UNL     1      -8.132   2.904 122.256  0.00  0.00    +0.000 A 
ATOM      5  N   UNL     1      -9.148   2.194 122.910  0.00  0.00    +0.000 N 
ATOM      6  C   UNL     1      -8.988   1.085 123.697  0.00  0.00    +0.000 C 
ATOM      7  O   UNL     1      -9.986   0.502 124.131  0.00  0.00    +0.000 OA
ATOM      8  C   UNL     1      -7.578   0.552 123.876  0.00  0.00    +0.000 C 
ATOM      9  N   UNL     1      -6.780   1.494 124.652  0.00  0.00    +0.000 NA
ATOM     10  C   UNL     1      -6.479   2.646 124.155  0.00  0.00    +0.000 C 
ATOM     11  C   UNL     1      -8.461   3.442 121.004  0.00  0.00    +0.000 A 
ATOM     12  C   UNL     1      -7.522   4.171 120.276  0.00  0.00    +0.000 A 
ATOM     13  H   UNL     1     -10.117   2.389 122.686  0.00  0.00    +0.000 HD
ENDROOT
BRANCH  10  14
ATOM     14  C   UNL     1      -5.716   3.554 125.053  0.00  0.00    +0.000 A 
ATOM     15  C   UNL     1      -4.359   3.269 125.258  0.00  0.00    +0.000 A 
ATOM     16  C   UNL     1      -3.671   3.888 126.300  0.00  0.00    +0.000 A 
ATOM     17  C   UNL     1      -4.301   4.869 127.063  0.00  0.00    +0.000 A 
ATOM     18  C   UNL     1      -5.612   5.252 126.770  0.00  0.00    +0.000 A 
ATOM     19  C   UNL     1      -6.343   4.560 125.800  0.00  0.00    +0.000 A 
ATOM     20 CL   UNL     1      -8.016   4.945 125.632  0.00  0.00    +0.000 Cl
ENDBRANCH  10  14
BRANCH   1  22
ATOM     21  O   UNL     1      -4.491   5.878 120.779  0.00  0.00    +0.000 OA
ATOM     22  N   UNL     1      -5.315   5.243 120.109  0.00  0.00    +0.000 N 
ATOM     23  O   UNL     1      -5.408   5.262 118.875  0.00  0.00    +0.000 OA
ENDBRANCH   1  22
TORSDOF 2
ENDMDL
MODEL 3
REMARK VINA RESULT:      -7.2      3.181      5.242
REMARK  Name = Clonazepam
REMARK  2 active torsions:
REMARK  status: ('A' for Active; 'I' for Inactive)
REMARK    1  A    between atoms: N_2  and  C_4
REMARK    2  A    between atoms: C_13  and  C_14
REMARK                            x       y       z     vdW  Elec       q    Type
REMARK                         _______ _______ _______ _____ _____    ______ ____
ROOT
ATOM      1  C   UNL     1      -6.538   3.463 122.365  0.00  0.00    +0.000 A 
ATOM      2  C   UNL     1      -7.226   2.419 122.988  0.00  0.00    +0.000 A 
ATOM      3  C   UNL     1      -6.946   2.120 124.330  0.00  0.00    +0.000 A 
ATOM      4  C   UNL     1      -5.966   2.856 125.025  0.00  0.00    +0.000 A 
ATOM      5  N   UNL     1      -5.586   2.605 126.350  0.00  0.00    +0.000 N 
ATOM      6  C   UNL     1      -6.409   2.209 127.371  0.00  0.00    +0.000 C 
ATOM      7  O   UNL     1      -5.953   2.119 128.515  0.00  0.00    +0.000 OA
ATOM      8  C   UNL     1      -7.882   2.036 127.054  0.00  0.00    +0.000 C 
ATOM      9  N   UNL     1      -8.074   0.899 126.159  0.00  0.00    +0.000 NA
ATOM     10  C   UNL     1      -7.630   0.952 124.949  0.00  0.00    +0.000 C 
ATOM     11  C   UNL     1      -5.288   3.896 124.374  0.00  0.00    +0.000 A 
ATOM     12  C   UNL     1      -5.587   4.220 123.052  0.00  0.00    +0.000 A 
ATOM     13  H   UNL     1      -4.661   2.875 126.664  0.00  0.00    +0.000 HD
ENDROOT
BRANCH  10  14
ATOM     14  C   UNL     1      -7.822  -0.283 124.140  0.00  0.00    +0.000 A 
ATOM     15  C   UNL     1      -9.020  -0.406 123.424  0.00  0.00    +0.000 A 
ATOM     16  C   UNL     1      -9.387  -1.643 122.898  0.00  0.00    +0.000 A 
ATOM     17  C   UNL     1      -8.513  -2.725 122.987  0.00  0.00    +0.000 A 
ATOM     18  C   UNL     1      -7.259  -2.565 123.580  0.00  0.00    +0.000 A 
ATOM     19  C   UNL     1      -6.929  -1.361 124.207  0.00  0.00    +0.000 A 
ATOM     20 CL   UNL     1      -5.452  -1.299 125.098  0.00  0.00    +0.000 Cl
ENDBRANCH  10  14
BRANCH   1  22
ATOM     21  O   UNL     1      -5.794   3.884 120.224  0.00  0.00    +0.000 OA
ATOM     22  N   UNL     1      -6.783   3.747 120.956  0.00  0.00    +0.000 N 
ATOM     23  O   UNL     1      -7.963   3.837 120.597  0.00  0.00    +0.000 OA
ENDBRANCH   1  22
TORSDOF 2
ENDMDL
MODEL 4
REMARK VINA RESULT:      -7.1      3.509      5.470
REMARK  Name = Clonazepam
REMARK  2 active torsions:
REMARK  status: ('A' for Active; 'I' for Inactive)
REMARK    1  A    between atoms: N_2  and  C_4
REMARK    2  A    between atoms: C_13  and  C_14
REMARK                            x       y       z     vdW  Elec       q    Type
REMARK                         _______ _______ _______ _____ _____    ______ ____
ROOT
ATOM      1  C   UNL     1      -9.138   1.487 123.841  0.00  0.00    +0.000 A 
ATOM      2  C   UNL     1      -8.399   0.581 124.606  0.00  0.00    +0.000 A 
ATOM      3  C   UNL     1      -7.157   0.977 125.126  0.00  0.00    +0.000 A 
ATOM      4  C   UNL     1      -6.663   2.269 124.858  0.00  0.00    +0.000 A 
ATOM      5  N   UNL     1      -5.418   2.741 125.295  0.00  0.00    +0.000 N 
ATOM      6  C   UNL     1      -4.817   2.459 126.493  0.00  0.00    +0.000 C 
ATOM      7  O   UNL     1      -3.759   3.025 126.787  0.00  0.00    +0.000 OA
ATOM      8  C   UNL     1      -5.567   1.560 127.457  0.00  0.00    +0.000 C 
ATOM      9  N   UNL     1      -5.647   0.205 126.923  0.00  0.00    +0.000 NA
ATOM     10  C   UNL     1      -6.351  -0.030 125.867  0.00  0.00    +0.000 C 
ATOM     11  C   UNL     1      -7.423   3.157 124.084  0.00  0.00    +0.000 A 
ATOM     12  C   UNL     1      -8.673   2.780 123.594  0.00  0.00    +0.000 A 
ATOM     13  H   UNL     1      -4.955   3.481 124.780  0.00  0.00    +0.000 HD
ENDROOT
BRANCH  10  14
ATOM     14  C   UNL     1      -6.314  -1.432 125.369  0.00  0.00    +0.000 A 
ATOM     15  C   UNL     1      -5.390  -1.734 124.360  0.00  0.00    +0.000 A 
ATOM     16  C   UNL     1      -5.504  -2.929 123.652  0.00  0.00    +0.000 A 
ATOM     17  C   UNL     1      -6.465  -3.868 124.023  0.00  0.00    +0.000 A 
ATOM     18  C   UNL     1      -7.296  -3.625 125.119  0.00  0.00    +0.000 A 
ATOM     19  C   UNL     1      -7.262  -2.385 125.762  0.00  0.00    +0.000 A 
ATOM     20 CL   UNL     1      -8.454  -2.077 126.971  0.00  0.00    +0.000 Cl
ENDBRANCH  10  14
BRANCH   1  22
ATOM     21  O   UNL     1     -10.369   0.597 122.108  0.00  0.00    +0.000 OA
ATOM     22  N   UNL     1     -10.404   1.068 123.252  0.00  0.00    +0.000 N 
ATOM     23  O   UNL     1     -11.422   1.219 123.938  0.00  0.00    +0.000 OA
ENDBRANCH   1  22
TORSDOF 2
ENDMDL
MODEL 5
REMARK VINA RESULT:      -7.0      7.625      9.846
REMARK  Name = Clonazepam
REMARK  2 active torsions:
REMARK  status: ('A' for Active; 'I' for Inactive)
REMARK    1  A    between atoms: N_2  and  C_4
REMARK    2  A    between atoms: C_13  and  C_14
REMARK                            x       y       z     vdW  Elec       q    Type
REMARK                         _______ _______ _______ _____ _____    ______ ____
ROOT
ATOM      1  C   UNL     1      -7.830   0.207 132.005  0.00  0.00    +0.000 A 
ATOM      2  C   UNL     1      -7.856  -0.970 131.252  0.00  0.00    +0.000 A 
ATOM      3  C   UNL     1      -6.715  -1.787 131.219  0.00  0.00    +0.000 A 
ATOM      4  C   UNL     1      -5.557  -1.405 131.925  0.00  0.00    +0.000 A 
ATOM      5  N   UNL     1      -4.357  -2.130 131.918  0.00  0.00    +0.000 N 
ATOM      6  C   UNL     1      -4.232  -3.494 131.898  0.00  0.00    +0.000 C 
ATOM      7  O   UNL     1      -3.109  -3.999 131.995  0.00  0.00    +0.000 OA
ATOM      8  C   UNL     1      -5.508  -4.313 131.899  0.00  0.00    +0.000 C 
ATOM      9  N   UNL     1      -6.220  -4.137 130.638  0.00  0.00    +0.000 NA
ATOM     10  C   UNL     1      -6.737  -2.992 130.346  0.00  0.00    +0.000 C 
ATOM     11  C   UNL     1      -5.557  -0.217 132.669  0.00  0.00    +0.000 A 
ATOM     12  C   UNL     1      -6.698   0.580 132.733  0.00  0.00    +0.000 A 
ATOM     13  H   UNL     1      -3.483  -1.650 132.098  0.00  0.00    +0.000 HD
ENDROOT
BRANCH  10  14
ATOM     14  C   UNL     1      -7.385  -2.902 129.009  0.00  0.00    +0.000 A 
ATOM     15  C   UNL     1      -8.601  -3.576 128.835  0.00  0.00    +0.000 A 
ATOM     16  C   UNL     1      -9.102  -3.779 127.550  0.00  0.00    +0.000 A 
ATOM     17  C   UNL     1      -8.453  -3.215 126.453  0.00  0.00    +0.000 A 
ATOM     18  C   UNL     1      -7.316  -2.427 126.641  0.00  0.00    +0.000 A 
ATOM     19  C   UNL     1      -6.746  -2.311 127.912  0.00  0.00    +0.000 A 
ATOM     20 CL   UNL     1      -5.230  -1.495 128.039  0.00  0.00    +0.000 Cl
ENDBRANCH  10  14
BRANCH   1  22
ATOM     21  O   UNL     1      -8.781   2.303 132.116  0.00  0.00    +0.000 OA
ATOM     22  N   UNL     1      -8.991   1.088 132.003  0.00  0.00    +0.000 N 
ATOM     23  O   UNL     1     -10.102   0.556 131.895  0.00  0.00    +0.000 OA
ENDBRANCH   1  22
TORSDOF 2
ENDMDL
MODEL 6
REMARK VINA RESULT:      -7.0      3.783      6.144
REMARK  Name = Clonazepam
REMARK  2 active torsions:
REMARK  status: ('A' for Active; 'I' for Inactive)
REMARK    1  A    between atoms: N_2  and  C_4
REMARK    2  A    between atoms: C_13  and  C_14
REMARK                            x       y       z     vdW  Elec       q    Type
REMARK                         _______ _______ _______ _____ _____    ______ ____
ROOT
ATOM      1  C   UNL     1      -6.867   2.647 124.280  0.00  0.00    +0.000 A 
ATOM      2  C   UNL     1      -7.367   1.511 124.922  0.00  0.00    +0.000 A 
ATOM      3  C   UNL     1      -6.691   1.006 126.044  0.00  0.00    +0.000 A 
ATOM      4  C   UNL     1      -5.513   1.633 126.495  0.00  0.00    +0.000 A 
ATOM      5  N   UNL     1      -4.744   1.179 127.576  0.00  0.00    +0.000 N 
ATOM      6  C   UNL     1      -5.220   0.619 128.732  0.00  0.00    +0.000 C 
ATOM      7  O   UNL     1      -4.431   0.354 129.645  0.00  0.00    +0.000 OA
ATOM      8  C   UNL     1      -6.724   0.484 128.877  0.00  0.00    +0.000 C 
ATOM      9  N   UNL     1      -7.235  -0.498 127.927  0.00  0.00    +0.000 NA
ATOM     10  C   UNL     1      -7.193  -0.251 126.662  0.00  0.00    +0.000 C 
ATOM     11  C   UNL     1      -5.031   2.768 125.829  0.00  0.00    +0.000 A 
ATOM     12  C   UNL     1      -5.718   3.294 124.736  0.00  0.00    +0.000 A 
ATOM     13  H   UNL     1      -3.757   1.404 127.617  0.00  0.00    +0.000 HD
ENDROOT
BRANCH  10  14
ATOM     14  C   UNL     1      -7.681  -1.345 125.778  0.00  0.00    +0.000 A 
ATOM     15  C   UNL     1      -9.025  -1.725 125.903  0.00  0.00    +0.000 A 
ATOM     16  C   UNL     1      -9.462  -2.918 125.331  0.00  0.00    +0.000 A 
ATOM     17  C   UNL     1      -8.593  -3.673 124.545  0.00  0.00    +0.000 A 
ATOM     18  C   UNL     1      -7.293  -3.222 124.307  0.00  0.00    +0.000 A 
ATOM     19  C   UNL     1      -6.814  -2.086 124.965  0.00  0.00    +0.000 A 
ATOM     20 CL   UNL     1      -5.140  -1.703 124.789  0.00  0.00    +0.000 Cl
ENDBRANCH  10  14
BRANCH   1  22
ATOM     21  O   UNL     1      -6.812   3.524 122.149  0.00  0.00    +0.000 OA
ATOM     22  N   UNL     1      -7.532   3.147 123.083  0.00  0.00    +0.000 N 
ATOM     23  O   UNL     1      -8.769   3.165 123.092  0.00  0.00    +0.000 OA
ENDBRANCH   1  22
TORSDOF 2
ENDMDL
MODEL 7
REMARK VINA RESULT:      -6.9      3.041      5.028
REMARK  Name = Clonazepam
REMARK  2 active torsions:
REMARK  status: ('A' for Active; 'I' for Inactive)
REMARK    1  A    between atoms: N_2  and  C_4
REMARK    2  A    between atoms: C_13  and  C_14
REMARK                            x       y       z     vdW  Elec       q    Type
REMARK                         _______ _______ _______ _____ _____    ______ ____
ROOT
ATOM      1  C   UNL     1      -6.204   3.472 123.286  0.00  0.00    +0.000 A 
ATOM      2  C   UNL     1      -6.780   2.268 123.699  0.00  0.00    +0.000 A 
ATOM      3  C   UNL     1      -6.868   1.986 125.071  0.00  0.00    +0.000 A 
ATOM      4  C   UNL     1      -6.360   2.904 126.011  0.00  0.00    +0.000 A 
ATOM      5  N   UNL     1      -6.361   2.693 127.397  0.00  0.00    +0.000 N 
ATOM      6  C   UNL     1      -7.341   2.068 128.123  0.00  0.00    +0.000 C 
ATOM      7  O   UNL     1      -7.256   2.040 129.355  0.00  0.00    +0.000 OA
ATOM      8  C   UNL     1      -8.556   1.563 127.368  0.00  0.00    +0.000 C 
ATOM      9  N   UNL     1      -8.182   0.454 126.497  0.00  0.00    +0.000 NA
ATOM     10  C   UNL     1      -7.410   0.663 125.485  0.00  0.00    +0.000 C 
ATOM     11  C   UNL     1      -5.782   4.102 125.570  0.00  0.00    +0.000 A 
ATOM     12  C   UNL     1      -5.724   4.403 124.210  0.00  0.00    +0.000 A 
ATOM     13  H   UNL     1      -5.672   3.161 127.974  0.00  0.00    +0.000 HD
ENDROOT
BRANCH  10  14
ATOM     14  C   UNL     1      -7.039  -0.546 124.700  0.00  0.00    +0.000 A 
ATOM     15  C   UNL     1      -5.816  -1.160 125.001  0.00  0.00    +0.000 A 
ATOM     16  C   UNL     1      -5.278  -2.099 124.122  0.00  0.00    +0.000 A 
ATOM     17  C   UNL     1      -6.008  -2.505 123.006  0.00  0.00    +0.000 A 
ATOM     18  C   UNL     1      -7.288  -1.993 122.781  0.00  0.00    +0.000 A 
ATOM     19  C   UNL     1      -7.787  -0.973 123.595  0.00  0.00    +0.000 A 
ATOM     20 CL   UNL     1      -9.283  -0.243 123.138  0.00  0.00    +0.000 Cl
ENDBRANCH  10  14
BRANCH   1  22
ATOM     21  O   UNL     1      -7.060   3.594 121.150  0.00  0.00    +0.000 OA
ATOM     22  N   UNL     1      -6.060   3.750 121.863  0.00  0.00    +0.000 N 
ATOM     23  O   UNL     1      -4.946   4.116 121.470  0.00  0.00    +0.000 OA
ENDBRANCH   1  22
TORSDOF 2
ENDMDL
MODEL 8
REMARK VINA RESULT:      -6.9      4.883      6.748
REMARK  Name = Clonazepam
REMARK  2 active torsions:
REMARK  status: ('A' for Active; 'I' for Inactive)
REMARK    1  A    between atoms: N_2  and  C_4
REMARK    2  A    between atoms: C_13  and  C_14
REMARK                            x       y       z     vdW  Elec       q    Type
REMARK                         _______ _______ _______ _____ _____    ______ ____
ROOT
ATOM      1  C   UNL     1      -8.454   1.318 126.681  0.00  0.00    +0.000 A 
ATOM      2  C   UNL     1      -8.293  -0.022 126.316  0.00  0.00    +0.000 A 
ATOM      3  C   UNL     1      -7.921  -0.957 127.294  0.00  0.00    +0.000 A 
ATOM      4  C   UNL     1      -7.695  -0.536 128.619  0.00  0.00    +0.000 A 
ATOM      5  N   UNL     1      -7.279  -1.385 129.655  0.00  0.00    +0.000 N 
ATOM      6  C   UNL     1      -7.659  -2.688 129.839  0.00  0.00    +0.000 C 
ATOM      7  O   UNL     1      -7.289  -3.288 130.854  0.00  0.00    +0.000 OA
ATOM      8  C   UNL     1      -8.638  -3.279 128.842  0.00  0.00    +0.000 C 
ATOM      9  N   UNL     1      -8.003  -3.415 127.535  0.00  0.00    +0.000 NA
ATOM     10  C   UNL     1      -7.674  -2.361 126.868  0.00  0.00    +0.000 C 
ATOM     11  C   UNL     1      -7.860   0.814 128.957  0.00  0.00    +0.000 A 
ATOM     12  C   UNL     1      -8.264   1.742 127.997  0.00  0.00    +0.000 A 
ATOM     13  H   UNL     1      -6.774  -0.999 130.444  0.00  0.00    +0.000 HD
ENDROOT
BRANCH  10  14
ATOM     14  C   UNL     1      -6.977  -2.611 125.576  0.00  0.00    +0.000 A 
ATOM     15  C   UNL     1      -5.591  -2.408 125.542  0.00  0.00    +0.000 A 
ATOM     16  C   UNL     1      -4.932  -2.335 124.316  0.00  0.00    +0.000 A 
ATOM     17  C   UNL     1      -5.632  -2.575 123.135  0.00  0.00    +0.000 A 
ATOM     18  C   UNL     1      -6.986  -2.913 123.179  0.00  0.00    +0.000 A 
ATOM     19  C   UNL     1      -7.677  -2.879 124.393  0.00  0.00    +0.000 A 
ATOM     20 CL   UNL     1      -9.388  -3.104 124.348  0.00  0.00    +0.000 Cl
ENDBRANCH  10  14
BRANCH   1  22
ATOM     21  O   UNL     1      -9.195   1.881 124.572  0.00  0.00    +0.000 OA
ATOM     22  N   UNL     1      -8.789   2.305 125.663  0.00  0.00    +0.000 N 
ATOM     23  O   UNL     1      -8.638   3.496 125.961  0.00  0.00    +0.000 OA
ENDBRANCH   1  22
TORSDOF 2
ENDMDL
MODEL 9
REMARK VINA RESULT:      -6.8      4.104      5.550
REMARK  Name = Clonazepam
REMARK  2 active torsions:
REMARK  status: ('A' for Active; 'I' for Inactive)
REMARK    1  A    between atoms: N_2  and  C_4
REMARK    2  A    between atoms: C_13  and  C_14
REMARK                            x       y       z     vdW  Elec       q    Type
REMARK                         _______ _______ _______ _____ _____    ______ ____
ROOT
ATOM      1  C   UNL     1      -8.225  -2.361 127.049  0.00  0.00    +0.000 A 
ATOM      2  C   UNL     1      -8.155  -0.968 126.959  0.00  0.00    +0.000 A 
ATOM      3  C   UNL     1      -8.498  -0.342 125.751  0.00  0.00    +0.000 A 
ATOM      4  C   UNL     1      -8.889  -1.119 124.643  0.00  0.00    +0.000 A 
ATOM      5  N   UNL     1      -9.208  -0.591 123.384  0.00  0.00    +0.000 N 
ATOM      6  C   UNL     1      -9.863   0.587 123.140  0.00  0.00    +0.000 C 
ATOM      7  O   UNL     1     -10.165   0.881 121.979  0.00  0.00    +0.000 OA
ATOM      8  C   UNL     1     -10.306   1.403 124.339  0.00  0.00    +0.000 C 
ATOM      9  N   UNL     1      -9.144   1.935 125.042  0.00  0.00    +0.000 NA
ATOM     10  C   UNL     1      -8.338   1.134 125.652  0.00  0.00    +0.000 C 
ATOM     11  C   UNL     1      -8.946  -2.515 124.759  0.00  0.00    +0.000 A 
ATOM     12  C   UNL     1      -8.640  -3.140 125.967  0.00  0.00    +0.000 A 
ATOM     13  H   UNL     1      -9.101  -1.169 122.558  0.00  0.00    +0.000 HD
ENDROOT
BRANCH  10  14
ATOM     14  C   UNL     1      -7.151   1.774 126.282  0.00  0.00    +0.000 A 
ATOM     15  C   UNL     1      -5.942   1.728 125.575  0.00  0.00    +0.000 A 
ATOM     16  C   UNL     1      -4.748   2.037 126.225  0.00  0.00    +0.000 A 
ATOM     17  C   UNL     1      -4.771   2.497 127.540  0.00  0.00    +0.000 A 
ATOM     18  C   UNL     1      -5.989   2.674 128.200  0.00  0.00    +0.000 A 
ATOM     19  C   UNL     1      -7.179   2.262 127.595  0.00  0.00    +0.000 A 
ATOM     20 CL   UNL     1      -8.620   2.317 128.542  0.00  0.00    +0.000 Cl
ENDBRANCH  10  14
BRANCH   1  22
ATOM     21  O   UNL     1      -6.636  -2.907 128.626  0.00  0.00    +0.000 OA
ATOM     22  N   UNL     1      -7.819  -3.023 128.282  0.00  0.00    +0.000 N 
ATOM     23  O   UNL     1      -8.688  -3.660 128.891  0.00  0.00    +0.000 OA
ENDBRANCH   1  22
TORSDOF 2
ENDMDL
