MODEL 1
REMARK VINA RESULT:      -7.3      0.000      0.000
REMARK  Name = Clopidogrel
REMARK  5 active torsions:
REMARK  status: ('A' for Active; 'I' for Inactive)
REMARK    1  A    between atoms: C_2  and  N_3
REMARK    2  A    between atoms: C_2  and  C_12
REMARK    3  A    between atoms: C_2  and  C_16
REMARK    4  A    between atoms: C_12  and  O_14
REMARK    5  A    between atoms: O_14  and  C_15
REMARK                            x       y       z     vdW  Elec       q    Type
REMARK                         _______ _______ _______ _____ _____    ______ ____
ROOT
ATOM      1  C   UNL     1      -7.282   2.881 123.620  0.00  0.00    +0.000 C 
ENDROOT
BRANCH   1   2
ATOM      2  N   UNL     1      -7.979   1.560 124.007  0.00  0.00    +0.000 NA
ATOM      3  C   UNL     1      -8.079   1.266 125.462  0.00  0.00    +0.000 C 
ATOM      4  C   UNL     1      -9.013   0.092 125.800  0.00  0.00    +0.000 C 
ATOM      5  C   UNL     1      -8.639  -1.051 124.945  0.00  0.00    +0.000 A 
ATOM      6  C   UNL     1      -7.877  -0.905 123.810  0.00  0.00    +0.000 A 
ATOM      7  C   UNL     1      -7.322   0.403 123.351  0.00  0.00    +0.000 C 
ATOM      8  C   UNL     1      -7.647  -2.157 123.180  0.00  0.00    +0.000 A 
ATOM      9  C   UNL     1      -8.236  -3.192 123.871  0.00  0.00    +0.000 A 
ATOM     10  S   UNL     1      -9.081  -2.651 125.260  0.00  0.00    +0.000 S 
ENDBRANCH   1   2
BRANCH   1  11
ATOM     11  C   UNL     1      -7.415   3.287 122.103  0.00  0.00    +0.000 A 
ATOM     12  C   UNL     1      -8.740   3.229 121.563  0.00  0.00    +0.000 A 
ATOM     13  C   UNL     1      -9.091   3.780 120.324  0.00  0.00    +0.000 A 
ATOM     14  C   UNL     1      -8.103   4.244 119.484  0.00  0.00    +0.000 A 
ATOM     15  C   UNL     1      -6.794   4.190 119.909  0.00  0.00    +0.000 A 
ATOM     16  C   UNL     1      -6.432   3.744 121.189  0.00  0.00    +0.000 A 
ATOM     17 CL   UNL     1      -4.710   3.836 121.285  0.00  0.00    +0.000 Cl
ENDBRANCH   1  11
BRANCH   1  18
ATOM     18  C   UNL     1      -7.609   4.011 124.652  0.00  0.00    +0.000 C 
ATOM     19  O   UNL     1      -8.718   4.195 125.141  0.00  0.00    +0.000 OA
BRANCH  18  20
ATOM     20  O   UNL     1      -6.566   4.710 125.194  0.00  0.00    +0.000 OA
ATOM     21  C   UNL     1      -5.384   3.869 125.175  0.00  0.00    +0.000 C 
ENDBRANCH  18  20
ENDBRANCH   1  18
TORSDOF 4
ENDMDL
MODEL 2
REMARK VINA RESULT:      -7.1      1.435      1.930
REMARK  Name = Clopidogrel
REMARK  5 active torsions:
REMARK  status: ('A' for Active; 'I' for Inactive)
REMARK    1  A    between atoms: C_2  and  N_3
REMARK    2  A    between atoms: C_2  and  C_12
REMARK    3  A    between atoms: C_2  and  C_16
REMARK    4  A    between atoms: C_12  and  O_14
REMARK    5  A    between atoms: O_14  and  C_15
REMARK                            x       y       z     vdW  Elec       q    Type
REMARK                         _______ _______ _______ _____ _____    ______ ____
ROOT
ATOM      1  C   UNL     1      -6.973   3.156 124.461  0.00  0.00    +0.000 C 
ENDROOT
BRANCH   1   2
ATOM      2  N   UNL     1      -7.726   1.811 124.535  0.00  0.00    +0.000 NA
ATOM      3  C   UNL     1      -7.913   1.231 125.892  0.00  0.00    +0.000 C 
ATOM      4  C   UNL     1      -8.895   0.048 125.937  0.00  0.00    +0.000 C 
ATOM      5  C   UNL     1      -8.505  -0.910 124.885  0.00  0.00    +0.000 A 
ATOM      6  C   UNL     1      -7.678  -0.565 123.842  0.00  0.00    +0.000 A 
ATOM      7  C   UNL     1      -7.064   0.788 123.689  0.00  0.00    +0.000 C 
ATOM      8  C   UNL     1      -7.447  -1.670 122.981  0.00  0.00    +0.000 A 
ATOM      9  C   UNL     1      -8.100  -2.801 123.417  0.00  0.00    +0.000 A 
ATOM     10  S   UNL     1      -9.006  -2.523 124.844  0.00  0.00    +0.000 S 
ENDBRANCH   1   2
BRANCH   1  11
ATOM     11  C   UNL     1      -6.611   3.640 123.005  0.00  0.00    +0.000 A 
ATOM     12  C   UNL     1      -5.323   4.248 122.860  0.00  0.00    +0.000 A 
ATOM     13  C   UNL     1      -4.733   4.512 121.617  0.00  0.00    +0.000 A 
ATOM     14  C   UNL     1      -5.476   4.359 120.468  0.00  0.00    +0.000 A 
ATOM     15  C   UNL     1      -6.772   3.907 120.572  0.00  0.00    +0.000 A 
ATOM     16  C   UNL     1      -7.345   3.532 121.797  0.00  0.00    +0.000 A 
ATOM     17 CL   UNL     1      -8.968   3.044 121.464  0.00  0.00    +0.000 Cl
ENDBRANCH   1  11
BRANCH   1  18
ATOM     18  C   UNL     1      -7.649   4.228 125.380  0.00  0.00    +0.000 C 
ATOM     19  O   UNL     1      -8.861   4.388 125.472  0.00  0.00    +0.000 OA
BRANCH  18  20
ATOM     20  O   UNL     1      -6.863   4.892 126.280  0.00  0.00    +0.000 OA
ATOM     21  C   UNL     1      -6.825   4.129 127.513  0.00  0.00    +0.000 C 
ENDBRANCH  18  20
ENDBRANCH   1  18
TORSDOF 4
ENDMDL
MODEL 3
REMARK VINA RESULT:      -6.6      2.815      4.531
REMARK  Name = Clopidogrel
REMARK  5 active torsions:
REMARK  status: ('A' for Active; 'I' for Inactive)
REMARK    1  A    between atoms: C_2  and  N_3
REMARK    2  A    between atoms: C_2  and  C_12
REMARK    3  A    between atoms: C_2  and  C_16
REMARK    4  A    between atoms: C_12  and  O_14
REMARK    5  A    between atoms: O_14  and  C_15
REMARK                            x       y       z     vdW  Elec       q    Type
REMARK                         _______ _______ _______ _____ _____    ______ ____
ROOT
ATOM      1  C   UNL     1      -7.988   3.122 123.465  0.00  0.00    +0.000 C 
ENDROOT
BRANCH   1   2
ATOM      2  N   UNL     1      -6.698   2.978 124.299  0.00  0.00    +0.000 NA
ATOM      3  C   UNL     1      -6.645   1.829 125.242  0.00  0.00    +0.000 C 
ATOM      4  C   UNL     1      -5.250   1.573 125.839  0.00  0.00    +0.000 C 
ATOM      5  C   UNL     1      -4.737   2.852 126.366  0.00  0.00    +0.000 A 
ATOM      6  C   UNL     1      -5.267   4.067 125.999  0.00  0.00    +0.000 A 
ATOM      7  C   UNL     1      -6.427   4.215 125.071  0.00  0.00    +0.000 C 
ATOM      8  C   UNL     1      -4.605   5.136 126.660  0.00  0.00    +0.000 A 
ATOM      9  C   UNL     1      -3.616   4.682 127.502  0.00  0.00    +0.000 A 
ATOM     10  S   UNL     1      -3.470   2.975 127.477  0.00  0.00    +0.000 S 
ENDBRANCH   1   2
BRANCH   1  11
ATOM     11  C   UNL     1      -7.765   3.469 121.944  0.00  0.00    +0.000 A 
ATOM     12  C   UNL     1      -8.938   3.433 121.124  0.00  0.00    +0.000 A 
ATOM     13  C   UNL     1      -8.982   3.944 119.821  0.00  0.00    +0.000 A 
ATOM     14  C   UNL     1      -7.814   4.340 119.208  0.00  0.00    +0.000 A 
ATOM     15  C   UNL     1      -6.635   4.260 119.915  0.00  0.00    +0.000 A 
ATOM     16  C   UNL     1      -6.586   3.855 121.258  0.00  0.00    +0.000 A 
ATOM     17 CL   UNL     1      -4.925   3.893 121.733  0.00  0.00    +0.000 Cl
ENDBRANCH   1  11
BRANCH   1  18
ATOM     18  C   UNL     1      -8.975   1.941 123.750  0.00  0.00    +0.000 C 
ATOM     19  O   UNL     1      -9.974   2.035 124.455  0.00  0.00    +0.000 OA
BRANCH  18  20
ATOM     20  O   UNL     1      -8.834   0.794 123.020  0.00  0.00    +0.000 OA
ATOM     21  C   UNL     1     -10.146   0.364 122.573  0.00  0.00    +0.000 C 
ENDBRANCH  18  20
ENDBRANCH   1  18
TORSDOF 4
ENDMDL
MODEL 4
REMARK VINA RESULT:      -6.6      8.016      9.551
REMARK  Name = Clopidogrel
REMARK  5 active torsions:
REMARK  status: ('A' for Active; 'I' for Inactive)
REMARK    1  A    between atoms: C_2  and  N_3
REMARK    2  A    between atoms: C_2  and  C_12
REMARK    3  A    between atoms: C_2  and  C_16
REMARK    4  A    between atoms: C_12  and  O_14
REMARK    5  A    between atoms: O_14  and  C_15
REMARK                            x       y       z     vdW  Elec       q    Type
REMARK                         _______ _______ _______ _____ _____    ______ ____
ROOT
ATOM      1  C   UNL     1      -9.634   6.031 130.717  0.00  0.00    +0.000 C 
ENDROOT
BRANCH   1   2
ATOM      2  N   UNL     1      -8.175   5.965 130.220  0.00  0.00    +0.000 NA
ATOM      3  C   UNL     1      -7.670   4.623 129.826  0.00  0.00    +0.000 C 
ATOM      4  C   UNL     1      -6.321   4.655 129.087  0.00  0.00    +0.000 C 
ATOM      5  C   UNL     1      -5.386   5.478 129.877  0.00  0.00    +0.000 A 
ATOM      6  C   UNL     1      -5.813   6.350 130.851  0.00  0.00    +0.000 A 
ATOM      7  C   UNL     1      -7.245   6.524 131.233  0.00  0.00    +0.000 C 
ATOM      8  C   UNL     1      -4.716   7.006 131.471  0.00  0.00    +0.000 A 
ATOM      9  C   UNL     1      -3.512   6.594 130.946  0.00  0.00    +0.000 A 
ATOM     10  S   UNL     1      -3.706   5.439 129.695  0.00  0.00    +0.000 S 
ENDBRANCH   1   2
BRANCH   1  11
ATOM     11  C   UNL     1     -10.556   7.055 129.950  0.00  0.00    +0.000 A 
ATOM     12  C   UNL     1     -10.025   7.560 128.720  0.00  0.00    +0.000 A 
ATOM     13  C   UNL     1     -10.789   8.276 127.789  0.00  0.00    +0.000 A 
ATOM     14  C   UNL     1     -12.060   8.685 128.127  0.00  0.00    +0.000 A 
ATOM     15  C   UNL     1     -12.561   8.339 129.363  0.00  0.00    +0.000 A 
ATOM     16  C   UNL     1     -11.854   7.529 130.265  0.00  0.00    +0.000 A 
ATOM     17 CL   UNL     1     -12.843   7.362 131.671  0.00  0.00    +0.000 Cl
ENDBRANCH   1  11
BRANCH   1  18
ATOM     18  C   UNL     1     -10.228   4.595 130.902  0.00  0.00    +0.000 C 
ATOM     19  O   UNL     1     -10.942   4.036 130.077  0.00  0.00    +0.000 OA
BRANCH  18  20
ATOM     20  O   UNL     1      -9.772   3.838 131.945  0.00  0.00    +0.000 OA
ATOM     21  C   UNL     1      -9.969   2.438 131.623  0.00  0.00    +0.000 C 
ENDBRANCH  18  20
ENDBRANCH   1  18
TORSDOF 4
ENDMDL
MODEL 5
REMARK VINA RESULT:      -6.6      2.794      5.483
REMARK  Name = Clopidogrel
REMARK  5 active torsions:
REMARK  status: ('A' for Active; 'I' for Inactive)
REMARK    1  A    between atoms: C_2  and  N_3
REMARK    2  A    between atoms: C_2  and  C_12
REMARK    3  A    between atoms: C_2  and  C_16
REMARK    4  A    between atoms: C_12  and  O_14
REMARK    5  A    between atoms: O_14  and  C_15
REMARK                            x       y       z     vdW  Elec       q    Type
REMARK                         _______ _______ _______ _____ _____    ______ ____
ROOT
ATOM      1  C   UNL     1      -8.701   1.715 124.093  0.00  0.00    +0.000 C 
ENDROOT
BRANCH   1   2
ATOM      2  N   UNL     1      -8.378   2.701 122.951  0.00  0.00    +0.000 NA
ATOM      3  C   UNL     1      -9.115   2.499 121.675  0.00  0.00    +0.000 C 
ATOM      4  C   UNL     1      -8.964   3.659 120.675  0.00  0.00    +0.000 C 
ATOM      5  C   UNL     1      -7.526   3.959 120.538  0.00  0.00    +0.000 A 
ATOM      6  C   UNL     1      -6.592   3.533 121.453  0.00  0.00    +0.000 A 
ATOM      7  C   UNL     1      -6.927   2.699 122.645  0.00  0.00    +0.000 C 
ATOM      8  C   UNL     1      -5.284   3.940 121.080  0.00  0.00    +0.000 A 
ATOM      9  C   UNL     1      -5.286   4.645 119.898  0.00  0.00    +0.000 A 
ATOM     10  S   UNL     1      -6.862   4.834 119.254  0.00  0.00    +0.000 S 
ENDBRANCH   1   2
BRANCH   1  11
ATOM     11  C   UNL     1      -7.826   0.404 124.112  0.00  0.00    +0.000 A 
ATOM     12  C   UNL     1      -8.311  -0.673 123.303  0.00  0.00    +0.000 A 
ATOM     13  C   UNL     1      -7.552  -1.811 123.001  0.00  0.00    +0.000 A 
ATOM     14  C   UNL     1      -6.352  -2.015 123.644  0.00  0.00    +0.000 A 
ATOM     15  C   UNL     1      -5.911  -1.067 124.540  0.00  0.00    +0.000 A 
ATOM     16  C   UNL     1      -6.602   0.131 124.774  0.00  0.00    +0.000 A 
ATOM     17 CL   UNL     1      -5.705   1.005 125.963  0.00  0.00    +0.000 Cl
ENDBRANCH   1  11
BRANCH   1  18
ATOM     18  C   UNL     1      -8.824   2.464 125.462  0.00  0.00    +0.000 C 
ATOM     19  O   UNL     1      -8.987   1.903 126.540  0.00  0.00    +0.000 OA
BRANCH  18  20
ATOM     20  O   UNL     1      -8.538   3.801 125.493  0.00  0.00    +0.000 OA
ATOM     21  C   UNL     1      -7.443   4.019 126.418  0.00  0.00    +0.000 C 
ENDBRANCH  18  20
ENDBRANCH   1  18
TORSDOF 4
ENDMDL
MODEL 6
REMARK VINA RESULT:      -6.5      3.950      5.372
REMARK  Name = Clopidogrel
REMARK  5 active torsions:
REMARK  status: ('A' for Active; 'I' for Inactive)
REMARK    1  A    between atoms: C_2  and  N_3
REMARK    2  A    between atoms: C_2  and  C_12
REMARK    3  A    between atoms: C_2  and  C_16
REMARK    4  A    between atoms: C_12  and  O_14
REMARK    5  A    between atoms: O_14  and  C_15
REMARK                            x       y       z     vdW  Elec       q    Type
REMARK                         _______ _______ _______ _____ _____    ______ ____
ROOT
ATOM      1  C   UNL     1      -8.031  -1.042 124.630  0.00  0.00    +0.000 C 
ENDROOT
BRANCH   1   2
ATOM      2  N   UNL     1      -7.373  -1.287 126.005  0.00  0.00    +0.000 NA
ATOM      3  C   UNL     1      -6.030  -1.925 125.990  0.00  0.00    +0.000 C 
ATOM      4  C   UNL     1      -5.309  -1.895 127.349  0.00  0.00    +0.000 C 
ATOM      5  C   UNL     1      -6.243  -2.402 128.373  0.00  0.00    +0.000 A 
ATOM      6  C   UNL     1      -7.599  -2.480 128.161  0.00  0.00    +0.000 A 
ATOM      7  C   UNL     1      -8.256  -2.101 126.876  0.00  0.00    +0.000 C 
ATOM      8  C   UNL     1      -8.266  -3.016 129.295  0.00  0.00    +0.000 A 
ATOM      9  C   UNL     1      -7.386  -3.328 130.305  0.00  0.00    +0.000 A 
ATOM     10  S   UNL     1      -5.764  -2.954 129.897  0.00  0.00    +0.000 S 
ENDBRANCH   1   2
BRANCH   1  11
ATOM     11  C   UNL     1      -8.051   0.462 124.158  0.00  0.00    +0.000 A 
ATOM     12  C   UNL     1      -7.024   1.295 124.708  0.00  0.00    +0.000 A 
ATOM     13  C   UNL     1      -6.732   2.577 124.226  0.00  0.00    +0.000 A 
ATOM     14  C   UNL     1      -7.571   3.162 123.304  0.00  0.00    +0.000 A 
ATOM     15  C   UNL     1      -8.657   2.446 122.849  0.00  0.00    +0.000 A 
ATOM     16  C   UNL     1      -8.904   1.120 123.237  0.00  0.00    +0.000 A 
ATOM     17 CL   UNL     1     -10.356   0.627 122.442  0.00  0.00    +0.000 Cl
ENDBRANCH   1  11
BRANCH   1  18
ATOM     18  C   UNL     1      -7.520  -2.075 123.572  0.00  0.00    +0.000 C 
ATOM     19  O   UNL     1      -6.565  -1.881 122.828  0.00  0.00    +0.000 OA
BRANCH  18  20
ATOM     20  O   UNL     1      -8.036  -3.341 123.607  0.00  0.00    +0.000 OA
ATOM     21  C   UNL     1      -9.480  -3.257 123.502  0.00  0.00    +0.000 C 
ENDBRANCH  18  20
ENDBRANCH   1  18
TORSDOF 4
ENDMDL
MODEL 7
REMARK VINA RESULT:      -6.4      3.094      5.235
REMARK  Name = Clopidogrel
REMARK  5 active torsions:
REMARK  status: ('A' for Active; 'I' for Inactive)
REMARK    1  A    between atoms: C_2  and  N_3
REMARK    2  A    between atoms: C_2  and  C_12
REMARK    3  A    between atoms: C_2  and  C_16
REMARK    4  A    between atoms: C_12  and  O_14
REMARK    5  A    between atoms: O_14  and  C_15
REMARK                            x       y       z     vdW  Elec       q    Type
REMARK                         _______ _______ _______ _____ _____    ______ ____
ROOT
ATOM      1  C   UNL     1      -6.863   3.071 123.773  0.00  0.00    +0.000 C 
ENDROOT
BRANCH   1   2
ATOM      2  N   UNL     1      -5.697   3.158 124.780  0.00  0.00    +0.000 NA
ATOM      3  C   UNL     1      -5.589   2.048 125.764  0.00  0.00    +0.000 C 
ATOM      4  C   UNL     1      -4.269   2.038 126.553  0.00  0.00    +0.000 C 
ATOM      5  C   UNL     1      -4.051   3.393 127.097  0.00  0.00    +0.000 A 
ATOM      6  C   UNL     1      -4.716   4.496 126.616  0.00  0.00    +0.000 A 
ATOM      7  C   UNL     1      -5.743   4.434 125.534  0.00  0.00    +0.000 C 
ATOM      8  C   UNL     1      -4.338   5.671 127.319  0.00  0.00    +0.000 A 
ATOM      9  C   UNL     1      -3.415   5.402 128.304  0.00  0.00    +0.000 A 
ATOM     10  S   UNL     1      -2.989   3.743 128.364  0.00  0.00    +0.000 S 
ENDBRANCH   1   2
BRANCH   1  11
ATOM     11  C   UNL     1      -6.570   3.695 122.355  0.00  0.00    +0.000 A 
ATOM     12  C   UNL     1      -5.272   4.278 122.195  0.00  0.00    +0.000 A 
ATOM     13  C   UNL     1      -4.745   4.655 120.953  0.00  0.00    +0.000 A 
ATOM     14  C   UNL     1      -5.558   4.645 119.841  0.00  0.00    +0.000 A 
ATOM     15  C   UNL     1      -6.861   4.222 119.978  0.00  0.00    +0.000 A 
ATOM     16  C   UNL     1      -7.375   3.737 121.190  0.00  0.00    +0.000 A 
ATOM     17 CL   UNL     1      -9.031   3.333 120.908  0.00  0.00    +0.000 Cl
ENDBRANCH   1  11
BRANCH   1  18
ATOM     18  C   UNL     1      -7.490   1.637 123.762  0.00  0.00    +0.000 C 
ATOM     19  O   UNL     1      -8.572   1.357 124.264  0.00  0.00    +0.000 OA
BRANCH  18  20
ATOM     20  O   UNL     1      -6.899   0.682 122.982  0.00  0.00    +0.000 OA
ATOM     21  C   UNL     1      -7.132  -0.617 123.583  0.00  0.00    +0.000 C 
ENDBRANCH  18  20
ENDBRANCH   1  18
TORSDOF 4
ENDMDL
MODEL 8
REMARK VINA RESULT:      -6.3      3.725      6.216
REMARK  Name = Clopidogrel
REMARK  5 active torsions:
REMARK  status: ('A' for Active; 'I' for Inactive)
REMARK    1  A    between atoms: C_2  and  N_3
REMARK    2  A    between atoms: C_2  and  C_12
REMARK    3  A    between atoms: C_2  and  C_16
REMARK    4  A    between atoms: C_12  and  O_14
REMARK    5  A    between atoms: O_14  and  C_15
REMARK                            x       y       z     vdW  Elec       q    Type
REMARK                         _______ _______ _______ _____ _____    ______ ____
ROOT
ATOM      1  C   UNL     1      -7.882  -0.251 123.230  0.00  0.00    +0.000 C 
ENDROOT
BRANCH   1   2
ATOM      2  N   UNL     1      -7.314   0.952 124.012  0.00  0.00    +0.000 NA
ATOM      3  C   UNL     1      -6.653   2.013 123.206  0.00  0.00    +0.000 C 
ATOM      4  C   UNL     1      -6.355   3.301 123.991  0.00  0.00    +0.000 C 
ATOM      5  C   UNL     1      -5.661   2.926 125.238  0.00  0.00    +0.000 A 
ATOM      6  C   UNL     1      -5.676   1.644 125.734  0.00  0.00    +0.000 A 
ATOM      7  C   UNL     1      -6.354   0.503 125.050  0.00  0.00    +0.000 C 
ATOM      8  C   UNL     1      -4.921   1.547 126.933  0.00  0.00    +0.000 A 
ATOM      9  C   UNL     1      -4.363   2.755 127.283  0.00  0.00    +0.000 A 
ATOM     10  S   UNL     1      -4.768   4.005 126.183  0.00  0.00    +0.000 S 
ENDBRANCH   1   2
BRANCH   1  11
ATOM     11  C   UNL     1      -7.174  -1.630 123.520  0.00  0.00    +0.000 A 
ATOM     12  C   UNL     1      -5.974  -1.874 122.778  0.00  0.00    +0.000 A 
ATOM     13  C   UNL     1      -5.086  -2.916 123.074  0.00  0.00    +0.000 A 
ATOM     14  C   UNL     1      -5.446  -3.873 123.996  0.00  0.00    +0.000 A 
ATOM     15  C   UNL     1      -6.661  -3.753 124.635  0.00  0.00    +0.000 A 
ATOM     16  C   UNL     1      -7.515  -2.658 124.434  0.00  0.00    +0.000 A 
ATOM     17 CL   UNL     1      -8.910  -2.922 125.417  0.00  0.00    +0.000 Cl
ENDBRANCH   1  11
BRANCH   1  18
ATOM     18  C   UNL     1      -9.446  -0.270 123.288  0.00  0.00    +0.000 C 
ATOM     19  O   UNL     1     -10.156  -0.848 122.474  0.00  0.00    +0.000 OA
BRANCH  18  20
ATOM     20  O   UNL     1     -10.054   0.214 124.412  0.00  0.00    +0.000 OA
ATOM     21  C   UNL     1     -10.639   1.505 124.104  0.00  0.00    +0.000 C 
ENDBRANCH  18  20
ENDBRANCH   1  18
TORSDOF 4
ENDMDL
MODEL 9
REMARK VINA RESULT:      -6.3      4.422      7.344
REMARK  Name = Clopidogrel
REMARK  5 active torsions:
REMARK  status: ('A' for Active; 'I' for Inactive)
REMARK    1  A    between atoms: C_2  and  N_3
REMARK    2  A    between atoms: C_2  and  C_12
REMARK    3  A    between atoms: C_2  and  C_16
REMARK    4  A    between atoms: C_12  and  O_14
REMARK    5  A    between atoms: O_14  and  C_15
REMARK                            x       y       z     vdW  Elec       q    Type
REMARK                         _______ _______ _______ _____ _____    ______ ____
ROOT
ATOM      1  C   UNL     1      -5.895  -1.810 125.557  0.00  0.00    +0.000 C 
ENDROOT
BRANCH   1   2
ATOM      2  N   UNL     1      -5.887  -0.276 125.384  0.00  0.00    +0.000 NA
ATOM      3  C   UNL     1      -5.149   0.502 126.414  0.00  0.00    +0.000 C 
ATOM      4  C   UNL     1      -4.941   1.982 126.049  0.00  0.00    +0.000 C 
ATOM      5  C   UNL     1      -6.245   2.541 125.643  0.00  0.00    +0.000 A 
ATOM      6  C   UNL     1      -7.310   1.747 125.289  0.00  0.00    +0.000 A 
ATOM      7  C   UNL     1      -7.271   0.255 125.314  0.00  0.00    +0.000 C 
ATOM      8  C   UNL     1      -8.448   2.530 124.958  0.00  0.00    +0.000 A 
ATOM      9  C   UNL     1      -8.195   3.877 125.087  0.00  0.00    +0.000 A 
ATOM     10  S   UNL     1      -6.586   4.195 125.582  0.00  0.00    +0.000 S 
ENDBRANCH   1   2
BRANCH   1  11
ATOM     11  C   UNL     1      -6.884  -2.353 126.657  0.00  0.00    +0.000 A 
ATOM     12  C   UNL     1      -8.123  -2.878 126.168  0.00  0.00    +0.000 A 
ATOM     13  C   UNL     1      -9.010  -3.620 126.958  0.00  0.00    +0.000 A 
ATOM     14  C   UNL     1      -8.796  -3.709 128.316  0.00  0.00    +0.000 A 
ATOM     15  C   UNL     1      -7.686  -3.097 128.853  0.00  0.00    +0.000 A 
ATOM     16  C   UNL     1      -6.727  -2.443 128.063  0.00  0.00    +0.000 A 
ATOM     17 CL   UNL     1      -5.528  -1.823 129.140  0.00  0.00    +0.000 Cl
ENDBRANCH   1  11
BRANCH   1  18
ATOM     18  C   UNL     1      -5.967  -2.530 124.170  0.00  0.00    +0.000 C 
ATOM     19  O   UNL     1      -6.096  -1.948 123.099  0.00  0.00    +0.000 OA
BRANCH  18  20
ATOM     20  O   UNL     1      -5.673  -3.865 124.121  0.00  0.00    +0.000 OA
ATOM     21  C   UNL     1      -4.350  -4.028 123.549  0.00  0.00    +0.000 C 
ENDBRANCH  18  20
ENDBRANCH   1  18
TORSDOF 4
ENDMDL
