MODEL 1
REMARK VINA RESULT:      -7.6      0.000      0.000
REMARK  Name = Clorazepic acid
REMARK  3 active torsions:
REMARK  status: ('A' for Active; 'I' for Inactive)
REMARK    1  A    between atoms: O_1  and  C_2
REMARK    2  A    between atoms: C_2  and  CA_4
REMARK    3  A    between atoms: C_6  and  C_7
REMARK                            x       y       z     vdW  Elec       q    Type
REMARK                         _______ _______ _______ _____ _____    ______ ____
ROOT
ATOM      1  CA  UNL     1      -7.239   4.261 125.499  0.00  0.00    +0.000 C 
ATOM      2  N   UNL     1      -7.800   3.035 124.915  0.00  0.00    +0.000 NA
ATOM      3  C   UNL     1      -7.604   2.685 123.696  0.00  0.00    +0.000 C 
ATOM      4  C   UNL     1      -6.799   3.443 122.710  0.00  0.00    +0.000 A 
ATOM      5  C   UNL     1      -5.585   4.053 123.054  0.00  0.00    +0.000 A 
ATOM      6  N   UNL     1      -5.039   4.054 124.347  0.00  0.00    +0.000 N 
ATOM      7  C   UNL     1      -5.722   4.152 125.536  0.00  0.00    +0.000 C 
ATOM      8  O   UNL     1      -5.065   4.313 126.568  0.00  0.00    +0.000 OA
ATOM      9  C   UNL     1      -4.835   4.691 122.056  0.00  0.00    +0.000 A 
ATOM     10  C   UNL     1      -5.308   4.754 120.743  0.00  0.00    +0.000 A 
ATOM     11  C   UNL     1      -6.509   4.136 120.410  0.00  0.00    +0.000 A 
ATOM     12 CL   UNL     1      -7.082   4.186 118.790  0.00  0.00    +0.000 Cl
ATOM     13  C   UNL     1      -7.251   3.475 121.381  0.00  0.00    +0.000 A 
ATOM     14  H   UNL     1      -4.036   4.159 124.453  0.00  0.00    +0.000 HD
ENDROOT
BRANCH   3  15
ATOM     15  C   UNL     1      -8.222   1.399 123.269  0.00  0.00    +0.000 A 
ATOM     16  C   UNL     1      -9.541   1.390 122.806  0.00  0.00    +0.000 A 
ATOM     17  C   UNL     1     -10.181   0.171 122.576  0.00  0.00    +0.000 A 
ATOM     18  C   UNL     1      -9.478  -1.025 122.721  0.00  0.00    +0.000 A 
ATOM     19  C   UNL     1      -8.129  -1.006 123.080  0.00  0.00    +0.000 A 
ATOM     20  C   UNL     1      -7.511   0.203 123.403  0.00  0.00    +0.000 A 
ENDBRANCH   3  15
BRANCH   1  21
ATOM     21  C   UNL     1      -7.865   4.437 126.896  0.00  0.00    +0.000 C 
ATOM     22  OXT UNL     1      -8.617   5.358 127.214  0.00  0.00    +0.000 OA
BRANCH  21  23
ATOM     23  O   UNL     1      -7.450   3.558 127.844  0.00  0.00    +0.000 OA
ATOM     24  H   UNL     1      -7.779   3.730 128.748  0.00  0.00    +0.000 HD
ENDBRANCH  21  23
ENDBRANCH   1  21
TORSDOF 3
ENDMDL
MODEL 2
REMARK VINA RESULT:      -7.6      2.130      4.608
REMARK  Name = Clorazepic acid
REMARK  3 active torsions:
REMARK  status: ('A' for Active; 'I' for Inactive)
REMARK    1  A    between atoms: O_1  and  C_2
REMARK    2  A    between atoms: C_2  and  CA_4
REMARK    3  A    between atoms: C_6  and  C_7
REMARK                            x       y       z     vdW  Elec       q    Type
REMARK                         _______ _______ _______ _____ _____    ______ ____
ROOT
ATOM      1  CA  UNL     1      -5.782   3.239 125.860  0.00  0.00    +0.000 C 
ATOM      2  N   UNL     1      -6.103   3.493 124.449  0.00  0.00    +0.000 NA
ATOM      3  C   UNL     1      -6.817   2.698 123.738  0.00  0.00    +0.000 C 
ATOM      4  C   UNL     1      -7.416   1.432 124.216  0.00  0.00    +0.000 A 
ATOM      5  C   UNL     1      -8.002   1.319 125.485  0.00  0.00    +0.000 A 
ATOM      6  N   UNL     1      -8.040   2.354 126.432  0.00  0.00    +0.000 N 
ATOM      7  C   UNL     1      -7.061   3.286 126.683  0.00  0.00    +0.000 C 
ATOM      8  O   UNL     1      -7.194   4.011 127.672  0.00  0.00    +0.000 OA
ATOM      9  C   UNL     1      -8.619   0.113 125.848  0.00  0.00    +0.000 A 
ATOM     10  C   UNL     1      -8.616  -0.977 124.973  0.00  0.00    +0.000 A 
ATOM     11  C   UNL     1      -8.041  -0.852 123.713  0.00  0.00    +0.000 A 
ATOM     12 CL   UNL     1      -8.060  -2.181 122.624  0.00  0.00    +0.000 Cl
ATOM     13  C   UNL     1      -7.450   0.345 123.327  0.00  0.00    +0.000 A 
ATOM     14  H   UNL     1      -8.774   2.347 127.132  0.00  0.00    +0.000 HD
ENDROOT
BRANCH   3  15
ATOM     15  C   UNL     1      -7.070   3.117 122.331  0.00  0.00    +0.000 A 
ATOM     16  C   UNL     1      -5.989   3.374 121.484  0.00  0.00    +0.000 A 
ATOM     17  C   UNL     1      -6.217   3.936 120.227  0.00  0.00    +0.000 A 
ATOM     18  C   UNL     1      -7.524   4.154 119.787  0.00  0.00    +0.000 A 
ATOM     19  C   UNL     1      -8.605   3.795 120.595  0.00  0.00    +0.000 A 
ATOM     20  C   UNL     1      -8.380   3.321 121.888  0.00  0.00    +0.000 A 
ENDBRANCH   3  15
BRANCH   1  21
ATOM     21  C   UNL     1      -4.745   4.293 126.296  0.00  0.00    +0.000 C 
ATOM     22  OXT UNL     1      -3.563   4.053 126.535  0.00  0.00    +0.000 OA
BRANCH  21  23
ATOM     23  O   UNL     1      -5.233   5.539 126.527  0.00  0.00    +0.000 OA
ATOM     24  H   UNL     1      -6.180   5.663 126.323  0.00  0.00    +0.000 HD
ENDBRANCH  21  23
ENDBRANCH   1  21
TORSDOF 3
ENDMDL
MODEL 3
REMARK VINA RESULT:      -7.5      2.669      4.906
REMARK  Name = Clorazepic acid
REMARK  3 active torsions:
REMARK  status: ('A' for Active; 'I' for Inactive)
REMARK    1  A    between atoms: O_1  and  C_2
REMARK    2  A    between atoms: C_2  and  CA_4
REMARK    3  A    between atoms: C_6  and  C_7
REMARK                            x       y       z     vdW  Elec       q    Type
REMARK                         _______ _______ _______ _____ _____    ______ ____
ROOT
ATOM      1  CA  UNL     1      -8.523   0.396 124.312  0.00  0.00    +0.000 C 
ATOM      2  N   UNL     1      -7.519   1.195 125.030  0.00  0.00    +0.000 NA
ATOM      3  C   UNL     1      -6.951   2.227 124.522  0.00  0.00    +0.000 C 
ATOM      4  C   UNL     1      -7.210   2.763 123.166  0.00  0.00    +0.000 A 
ATOM      5  C   UNL     1      -8.503   2.830 122.628  0.00  0.00    +0.000 A 
ATOM      6  N   UNL     1      -9.654   2.361 123.279  0.00  0.00    +0.000 N 
ATOM      7  C   UNL     1      -9.764   1.244 124.073  0.00  0.00    +0.000 C 
ATOM      8  O   UNL     1     -10.893   0.890 124.419  0.00  0.00    +0.000 OA
ATOM      9  C   UNL     1      -8.689   3.418 121.369  0.00  0.00    +0.000 A 
ATOM     10  C   UNL     1      -7.597   3.897 120.641  0.00  0.00    +0.000 A 
ATOM     11  C   UNL     1      -6.320   3.836 121.188  0.00  0.00    +0.000 A 
ATOM     12 CL   UNL     1      -4.977   4.450 120.309  0.00  0.00    +0.000 Cl
ATOM     13  C   UNL     1      -6.121   3.282 122.447  0.00  0.00    +0.000 A 
ATOM     14  H   UNL     1     -10.552   2.766 123.033  0.00  0.00    +0.000 HD
ENDROOT
BRANCH   3  15
ATOM     15  C   UNL     1      -5.975   2.940 125.393  0.00  0.00    +0.000 A 
ATOM     16  C   UNL     1      -6.124   4.312 125.614  0.00  0.00    +0.000 A 
ATOM     17  C   UNL     1      -5.117   5.015 126.277  0.00  0.00    +0.000 A 
ATOM     18  C   UNL     1      -4.015   4.334 126.795  0.00  0.00    +0.000 A 
ATOM     19  C   UNL     1      -3.923   2.947 126.666  0.00  0.00    +0.000 A 
ATOM     20  C   UNL     1      -4.878   2.252 125.922  0.00  0.00    +0.000 A 
ENDBRANCH   3  15
BRANCH   1  21
ATOM     21  C   UNL     1      -8.806  -0.861 125.158  0.00  0.00    +0.000 C 
ATOM     22  OXT UNL     1      -8.325  -1.078 126.269  0.00  0.00    +0.000 OA
BRANCH  21  23
ATOM     23  O   UNL     1      -9.555  -1.821 124.556  0.00  0.00    +0.000 OA
ATOM     24  H   UNL     1      -9.330  -2.003 123.623  0.00  0.00    +0.000 HD
ENDBRANCH  21  23
ENDBRANCH   1  21
TORSDOF 3
ENDMDL
MODEL 4
REMARK VINA RESULT:      -7.2      8.307     10.149
REMARK  Name = Clorazepic acid
REMARK  3 active torsions:
REMARK  status: ('A' for Active; 'I' for Inactive)
REMARK    1  A    between atoms: O_1  and  C_2
REMARK    2  A    between atoms: C_2  and  CA_4
REMARK    3  A    between atoms: C_6  and  C_7
REMARK                            x       y       z     vdW  Elec       q    Type
REMARK                         _______ _______ _______ _____ _____    ______ ____
ROOT
ATOM      1  CA  UNL     1      -9.770   6.845 130.537  0.00  0.00    +0.000 C 
ATOM      2  N   UNL     1      -8.323   6.831 130.277  0.00  0.00    +0.000 NA
ATOM      3  C   UNL     1      -7.475   6.280 131.066  0.00  0.00    +0.000 C 
ATOM      4  C   UNL     1      -7.811   5.588 132.331  0.00  0.00    +0.000 A 
ATOM      5  C   UNL     1      -8.926   4.746 132.445  0.00  0.00    +0.000 A 
ATOM      6  N   UNL     1      -9.848   4.514 131.413  0.00  0.00    +0.000 N 
ATOM      7  C   UNL     1     -10.304   5.421 130.486  0.00  0.00    +0.000 C 
ATOM      8  O   UNL     1     -11.245   5.085 129.763  0.00  0.00    +0.000 OA
ATOM      9  C   UNL     1      -9.146   4.062 133.648  0.00  0.00    +0.000 A 
ATOM     10  C   UNL     1      -8.288   4.245 134.737  0.00  0.00    +0.000 A 
ATOM     11  C   UNL     1      -7.178   5.074 134.611  0.00  0.00    +0.000 A 
ATOM     12 CL   UNL     1      -6.104   5.280 135.936  0.00  0.00    +0.000 Cl
ATOM     13  C   UNL     1      -6.930   5.738 133.415  0.00  0.00    +0.000 A 
ATOM     14  H   UNL     1     -10.377   3.648 131.418  0.00  0.00    +0.000 HD
ENDROOT
BRANCH   3  15
ATOM     15  C   UNL     1      -6.048   6.331 130.643  0.00  0.00    +0.000 A 
ATOM     16  C   UNL     1      -5.370   7.554 130.653  0.00  0.00    +0.000 A 
ATOM     17  C   UNL     1      -4.096   7.639 130.090  0.00  0.00    +0.000 A 
ATOM     18  C   UNL     1      -3.470   6.491 129.604  0.00  0.00    +0.000 A 
ATOM     19  C   UNL     1      -4.107   5.253 129.694  0.00  0.00    +0.000 A 
ATOM     20  C   UNL     1      -5.418   5.177 130.168  0.00  0.00    +0.000 A 
ENDBRANCH   3  15
BRANCH   1  21
ATOM     21  C   UNL     1     -10.420   7.770 129.489  0.00  0.00    +0.000 C 
ATOM     22  OXT UNL     1      -9.810   8.335 128.582  0.00  0.00    +0.000 OA
BRANCH  21  23
ATOM     23  O   UNL     1     -11.737   8.042 129.678  0.00  0.00    +0.000 OA
ATOM     24  H   UNL     1     -12.314   7.869 128.910  0.00  0.00    +0.000 HD
ENDBRANCH  21  23
ENDBRANCH   1  21
TORSDOF 3
ENDMDL
MODEL 5
REMARK VINA RESULT:      -7.1      3.344      5.424
REMARK  Name = Clorazepic acid
REMARK  3 active torsions:
REMARK  status: ('A' for Active; 'I' for Inactive)
REMARK    1  A    between atoms: O_1  and  C_2
REMARK    2  A    between atoms: C_2  and  CA_4
REMARK    3  A    between atoms: C_6  and  C_7
REMARK                            x       y       z     vdW  Elec       q    Type
REMARK                         _______ _______ _______ _____ _____    ______ ____
ROOT
ATOM      1  CA  UNL     1      -9.063   1.183 123.984  0.00  0.00    +0.000 C 
ATOM      2  N   UNL     1      -8.349   1.996 122.989  0.00  0.00    +0.000 NA
ATOM      3  C   UNL     1      -7.183   2.489 123.194  0.00  0.00    +0.000 C 
ATOM      4  C   UNL     1      -6.391   2.322 124.434  0.00  0.00    +0.000 A 
ATOM      5  C   UNL     1      -6.331   1.100 125.118  0.00  0.00    +0.000 A 
ATOM      6  N   UNL     1      -7.036  -0.053 124.739  0.00  0.00    +0.000 N 
ATOM      7  C   UNL     1      -8.304  -0.115 124.212  0.00  0.00    +0.000 C 
ATOM      8  O   UNL     1      -8.830  -1.226 124.103  0.00  0.00    +0.000 OA
ATOM      9  C   UNL     1      -5.503   0.987 126.244  0.00  0.00    +0.000 A 
ATOM     10  C   UNL     1      -4.776   2.089 126.704  0.00  0.00    +0.000 A 
ATOM     11  C   UNL     1      -4.834   3.294 126.013  0.00  0.00    +0.000 A 
ATOM     12 CL   UNL     1      -3.921   4.643 126.557  0.00  0.00    +0.000 Cl
ATOM     13  C   UNL     1      -5.629   3.414 124.878  0.00  0.00    +0.000 A 
ATOM     14  H   UNL     1      -6.674  -0.959 125.017  0.00  0.00    +0.000 HD
ENDROOT
BRANCH   3  15
ATOM     15  C   UNL     1      -6.588   3.268 122.072  0.00  0.00    +0.000 A 
ATOM     16  C   UNL     1      -5.313   3.822 122.218  0.00  0.00    +0.000 A 
ATOM     17  C   UNL     1      -4.828   4.698 121.246  0.00  0.00    +0.000 A 
ATOM     18  C   UNL     1      -5.575   4.944 120.093  0.00  0.00    +0.000 A 
ATOM     19  C   UNL     1      -6.800   4.303 119.901  0.00  0.00    +0.000 A 
ATOM     20  C   UNL     1      -7.333   3.502 120.912  0.00  0.00    +0.000 A 
ENDBRANCH   3  15
BRANCH   1  21
ATOM     21  C   UNL     1     -10.495   0.961 123.459  0.00  0.00    +0.000 C 
ATOM     22  OXT UNL     1     -11.519   1.211 124.094  0.00  0.00    +0.000 OA
BRANCH  21  23
ATOM     23  O   UNL     1     -10.592   0.343 122.254  0.00  0.00    +0.000 OA
ATOM     24  H   UNL     1     -11.326  -0.296 122.168  0.00  0.00    +0.000 HD
ENDBRANCH  21  23
ENDBRANCH   1  21
TORSDOF 3
ENDMDL
MODEL 6
REMARK VINA RESULT:      -7.1      3.775      5.081
REMARK  Name = Clorazepic acid
REMARK  3 active torsions:
REMARK  status: ('A' for Active; 'I' for Inactive)
REMARK    1  A    between atoms: O_1  and  C_2
REMARK    2  A    between atoms: C_2  and  CA_4
REMARK    3  A    between atoms: C_6  and  C_7
REMARK                            x       y       z     vdW  Elec       q    Type
REMARK                         _______ _______ _______ _____ _____    ______ ____
ROOT
ATOM      1  CA  UNL     1      -7.434   3.054 124.330  0.00  0.00    +0.000 C 
ATOM      2  N   UNL     1      -7.081   1.753 124.914  0.00  0.00    +0.000 NA
ATOM      3  C   UNL     1      -6.079   1.585 125.698  0.00  0.00    +0.000 C 
ATOM      4  C   UNL     1      -5.144   2.650 126.128  0.00  0.00    +0.000 A 
ATOM      5  C   UNL     1      -5.588   3.935 126.468  0.00  0.00    +0.000 A 
ATOM      6  N   UNL     1      -6.925   4.355 126.392  0.00  0.00    +0.000 N 
ATOM      7  C   UNL     1      -7.852   4.007 125.439  0.00  0.00    +0.000 C 
ATOM      8  O   UNL     1      -8.928   4.611 125.433  0.00  0.00    +0.000 OA
ATOM      9  C   UNL     1      -4.661   4.875 126.939  0.00  0.00    +0.000 A 
ATOM     10  C   UNL     1      -3.304   4.550 127.032  0.00  0.00    +0.000 A 
ATOM     11  C   UNL     1      -2.876   3.269 126.702  0.00  0.00    +0.000 A 
ATOM     12 CL   UNL     1      -1.214   2.856 126.841  0.00  0.00    +0.000 Cl
ATOM     13  C   UNL     1      -3.787   2.317 126.260  0.00  0.00    +0.000 A 
ATOM     14  H   UNL     1      -7.230   5.119 126.987  0.00  0.00    +0.000 HD
ENDROOT
BRANCH   3  15
ATOM     15  C   UNL     1      -5.876   0.207 126.224  0.00  0.00    +0.000 A 
ATOM     16  C   UNL     1      -5.748  -0.860 125.330  0.00  0.00    +0.000 A 
ATOM     17  C   UNL     1      -5.738  -2.168 125.817  0.00  0.00    +0.000 A 
ATOM     18  C   UNL     1      -5.763  -2.401 127.193  0.00  0.00    +0.000 A 
ATOM     19  C   UNL     1      -5.781  -1.329 128.086  0.00  0.00    +0.000 A 
ATOM     20  C   UNL     1      -5.887  -0.023 127.604  0.00  0.00    +0.000 A 
ENDBRANCH   3  15
BRANCH   1  21
ATOM     21  C   UNL     1      -8.548   2.810 123.293  0.00  0.00    +0.000 C 
ATOM     22  OXT UNL     1      -9.297   1.834 123.290  0.00  0.00    +0.000 OA
BRANCH  21  23
ATOM     23  O   UNL     1      -8.605   3.698 122.267  0.00  0.00    +0.000 OA
ATOM     24  H   UNL     1      -7.746   4.075 121.992  0.00  0.00    +0.000 HD
ENDBRANCH  21  23
ENDBRANCH   1  21
TORSDOF 3
ENDMDL
MODEL 7
REMARK VINA RESULT:      -7.0      1.809      2.473
REMARK  Name = Clorazepic acid
REMARK  3 active torsions:
REMARK  status: ('A' for Active; 'I' for Inactive)
REMARK    1  A    between atoms: O_1  and  C_2
REMARK    2  A    between atoms: C_2  and  CA_4
REMARK    3  A    between atoms: C_6  and  C_7
REMARK                            x       y       z     vdW  Elec       q    Type
REMARK                         _______ _______ _______ _____ _____    ______ ____
ROOT
ATOM      1  CA  UNL     1      -7.689   2.280 127.087  0.00  0.00    +0.000 C 
ATOM      2  N   UNL     1      -7.855   1.145 126.168  0.00  0.00    +0.000 NA
ATOM      3  C   UNL     1      -7.443   1.162 124.953  0.00  0.00    +0.000 C 
ATOM      4  C   UNL     1      -6.754   2.298 124.300  0.00  0.00    +0.000 A 
ATOM      5  C   UNL     1      -5.779   3.055 124.964  0.00  0.00    +0.000 A 
ATOM      6  N   UNL     1      -5.397   2.855 126.299  0.00  0.00    +0.000 N 
ATOM      7  C   UNL     1      -6.208   2.501 127.351  0.00  0.00    +0.000 C 
ATOM      8  O   UNL     1      -5.730   2.542 128.488  0.00  0.00    +0.000 OA
ATOM      9  C   UNL     1      -5.110   4.070 124.266  0.00  0.00    +0.000 A 
ATOM     10  C   UNL     1      -5.437   4.352 122.936  0.00  0.00    +0.000 A 
ATOM     11  C   UNL     1      -6.398   3.588 122.283  0.00  0.00    +0.000 A 
ATOM     12 CL   UNL     1      -6.783   3.911 120.640  0.00  0.00    +0.000 Cl
ATOM     13  C   UNL     1      -7.051   2.560 122.953  0.00  0.00    +0.000 A 
ATOM     14  H   UNL     1      -4.470   3.149 126.590  0.00  0.00    +0.000 HD
ENDROOT
BRANCH   3  15
ATOM     15  C   UNL     1      -7.666  -0.081 124.162  0.00  0.00    +0.000 A 
ATOM     16  C   UNL     1      -6.571  -0.866 123.789  0.00  0.00    +0.000 A 
ATOM     17  C   UNL     1      -6.754  -1.927 122.902  0.00  0.00    +0.000 A 
ATOM     18  C   UNL     1      -8.038  -2.256 122.464  0.00  0.00    +0.000 A 
ATOM     19  C   UNL     1      -9.142  -1.537 122.924  0.00  0.00    +0.000 A 
ATOM     20  C   UNL     1      -8.954  -0.417 123.735  0.00  0.00    +0.000 A 
ENDBRANCH   3  15
BRANCH   1  21
ATOM     21  C   UNL     1      -8.489   1.961 128.365  0.00  0.00    +0.000 C 
ATOM     22  OXT UNL     1      -9.316   2.715 128.878  0.00  0.00    +0.000 OA
BRANCH  21  23
ATOM     23  O   UNL     1      -8.153   0.809 128.999  0.00  0.00    +0.000 OA
ATOM     24  H   UNL     1      -8.262   0.818 129.970  0.00  0.00    +0.000 HD
ENDBRANCH  21  23
ENDBRANCH   1  21
TORSDOF 3
ENDMDL
MODEL 8
REMARK VINA RESULT:      -6.9      5.961      8.375
REMARK  Name = Clorazepic acid
REMARK  3 active torsions:
REMARK  status: ('A' for Active; 'I' for Inactive)
REMARK    1  A    between atoms: O_1  and  C_2
REMARK    2  A    between atoms: C_2  and  CA_4
REMARK    3  A    between atoms: C_6  and  C_7
REMARK                            x       y       z     vdW  Elec       q    Type
REMARK                         _______ _______ _______ _____ _____    ______ ____
ROOT
ATOM      1  CA  UNL     1     -10.226   6.790 128.663  0.00  0.00    +0.000 C 
ATOM      2  N   UNL     1      -9.449   5.575 128.379  0.00  0.00    +0.000 NA
ATOM      3  C   UNL     1      -8.808   4.926 129.282  0.00  0.00    +0.000 C 
ATOM      4  C   UNL     1      -8.751   5.289 130.716  0.00  0.00    +0.000 A 
ATOM      5  C   UNL     1      -9.878   5.749 131.412  0.00  0.00    +0.000 A 
ATOM      6  N   UNL     1     -11.137   5.955 130.827  0.00  0.00    +0.000 N 
ATOM      7  C   UNL     1     -11.398   6.438 129.566  0.00  0.00    +0.000 C 
ATOM      8  O   UNL     1     -12.566   6.719 129.286  0.00  0.00    +0.000 OA
ATOM      9  C   UNL     1      -9.776   6.004 132.786  0.00  0.00    +0.000 A 
ATOM     10  C   UNL     1      -8.556   5.842 133.450  0.00  0.00    +0.000 A 
ATOM     11  C   UNL     1      -7.447   5.375 132.753  0.00  0.00    +0.000 A 
ATOM     12 CL   UNL     1      -5.952   5.147 133.570  0.00  0.00    +0.000 Cl
ATOM     13  C   UNL     1      -7.538   5.091 131.396  0.00  0.00    +0.000 A 
ATOM     14  H   UNL     1     -11.962   5.911 131.416  0.00  0.00    +0.000 HD
ENDROOT
BRANCH   3  15
ATOM     15  C   UNL     1      -8.092   3.700 128.832  0.00  0.00    +0.000 A 
ATOM     16  C   UNL     1      -6.941   3.823 128.049  0.00  0.00    +0.000 A 
ATOM     17  C   UNL     1      -6.372   2.684 127.477  0.00  0.00    +0.000 A 
ATOM     18  C   UNL     1      -6.899   1.423 127.762  0.00  0.00    +0.000 A 
ATOM     19  C   UNL     1      -7.984   1.296 128.631  0.00  0.00    +0.000 A 
ATOM     20  C   UNL     1      -8.614   2.437 129.129  0.00  0.00    +0.000 A 
ENDBRANCH   3  15
BRANCH   1  21
ATOM     21  C   UNL     1     -10.663   7.386 127.311  0.00  0.00    +0.000 C 
ATOM     22  OXT UNL     1     -10.589   6.800 126.232  0.00  0.00    +0.000 OA
BRANCH  21  23
ATOM     23  O   UNL     1     -11.049   8.688 127.338  0.00  0.00    +0.000 OA
ATOM     24  H   UNL     1     -11.180   9.104 126.464  0.00  0.00    +0.000 HD
ENDBRANCH  21  23
ENDBRANCH   1  21
TORSDOF 3
ENDMDL
MODEL 9
REMARK VINA RESULT:      -6.8      7.592      9.439
REMARK  Name = Clorazepic acid
REMARK  3 active torsions:
REMARK  status: ('A' for Active; 'I' for Inactive)
REMARK    1  A    between atoms: O_1  and  C_2
REMARK    2  A    between atoms: C_2  and  CA_4
REMARK    3  A    between atoms: C_6  and  C_7
REMARK                            x       y       z     vdW  Elec       q    Type
REMARK                         _______ _______ _______ _____ _____    ______ ____
ROOT
ATOM      1  CA  UNL     1      -9.868   5.871 130.526  0.00  0.00    +0.000 C 
ATOM      2  N   UNL     1      -9.611   4.431 130.393  0.00  0.00    +0.000 NA
ATOM      3  C   UNL     1      -8.922   3.760 131.242  0.00  0.00    +0.000 C 
ATOM      4  C   UNL     1      -8.293   4.319 132.461  0.00  0.00    +0.000 A 
ATOM      5  C   UNL     1      -8.945   5.260 133.270  0.00  0.00    +0.000 A 
ATOM      6  N   UNL     1     -10.212   5.796 132.992  0.00  0.00    +0.000 N 
ATOM      7  C   UNL     1     -10.725   6.118 131.758  0.00  0.00    +0.000 C 
ATOM      8  O   UNL     1     -11.788   6.743 131.720  0.00  0.00    +0.000 OA
ATOM      9  C   UNL     1      -8.325   5.692 134.451  0.00  0.00    +0.000 A 
ATOM     10  C   UNL     1      -7.055   5.223 134.799  0.00  0.00    +0.000 A 
ATOM     11  C   UNL     1      -6.421   4.282 133.996  0.00  0.00    +0.000 A 
ATOM     12 CL   UNL     1      -4.872   3.680 134.434  0.00  0.00    +0.000 Cl
ATOM     13  C   UNL     1      -7.034   3.822 132.836  0.00  0.00    +0.000 A 
ATOM     14  H   UNL     1     -10.771   6.149 133.762  0.00  0.00    +0.000 HD
ENDROOT
BRANCH   3  15
ATOM     15  C   UNL     1      -8.778   2.302 130.974  0.00  0.00    +0.000 A 
ATOM     16  C   UNL     1      -9.343   1.380 131.859  0.00  0.00    +0.000 A 
ATOM     17  C   UNL     1      -9.059   0.022 131.712  0.00  0.00    +0.000 A 
ATOM     18  C   UNL     1      -8.291  -0.418 130.633  0.00  0.00    +0.000 A 
ATOM     19  C   UNL     1      -7.818   0.497 129.690  0.00  0.00    +0.000 A 
ATOM     20  C   UNL     1      -8.019   1.864 129.884  0.00  0.00    +0.000 A 
ENDBRANCH   3  15
BRANCH   1  21
ATOM     21  C   UNL     1     -10.539   6.344 129.221  0.00  0.00    +0.000 C 
ATOM     22  OXT UNL     1     -10.032   7.129 128.420  0.00  0.00    +0.000 OA
BRANCH  21  23
ATOM     23  O   UNL     1     -11.818   5.931 129.031  0.00  0.00    +0.000 OA
ATOM     24  H   UNL     1     -12.287   5.639 129.837  0.00  0.00    +0.000 HD
ENDBRANCH  21  23
ENDBRANCH   1  21
TORSDOF 3
ENDMDL
