MODEL 1
REMARK VINA RESULT:      -7.9      0.000      0.000
REMARK  Name = Clothiapine
REMARK  1 active torsions:
REMARK  status: ('A' for Active; 'I' for Inactive)
REMARK    1  A    between atoms: C_1  and  N_2
REMARK                            x       y       z     vdW  Elec       q    Type
REMARK                         _______ _______ _______ _____ _____    ______ ____
ROOT
ATOM      1  C   UNL     1      -3.176   5.125 127.462  0.00  0.00    +0.000 C 
ATOM      2  N   UNL     1      -4.189   4.081 127.362  0.00  0.00    +0.000 NA
ATOM      3  C   UNL     1      -3.677   2.895 126.635  0.00  0.00    +0.000 C 
ATOM      4  C   UNL     1      -4.733   1.754 126.553  0.00  0.00    +0.000 C 
ATOM      5  N   UNL     1      -5.963   2.273 125.946  0.00  0.00    +0.000 N 
ATOM      6  C   UNL     1      -6.490   3.486 126.594  0.00  0.00    +0.000 C 
ATOM      7  C   UNL     1      -5.394   4.573 126.659  0.00  0.00    +0.000 C 
ATOM      8  C   UNL     1      -6.730   1.534 125.043  0.00  0.00    +0.000 C 
ATOM      9  N   UNL     1      -7.069   0.303 125.315  0.00  0.00    +0.000 NA
ATOM     10  C   UNL     1      -7.841  -0.552 124.473  0.00  0.00    +0.000 A 
ATOM     11  C   UNL     1      -7.491  -1.909 124.408  0.00  0.00    +0.000 A 
ATOM     12  C   UNL     1      -8.200  -2.818 123.603  0.00  0.00    +0.000 A 
ATOM     13  C   UNL     1      -9.263  -2.383 122.819  0.00  0.00    +0.000 A 
ATOM     14  C   UNL     1      -9.661  -1.058 122.900  0.00  0.00    +0.000 A 
ATOM     15  C   UNL     1      -8.998  -0.172 123.768  0.00  0.00    +0.000 A 
ATOM     16  S   UNL     1      -9.686   1.459 123.906  0.00  0.00    +0.000 S 
ATOM     17  C   UNL     1      -8.299   2.261 123.162  0.00  0.00    +0.000 A 
ATOM     18  C   UNL     1      -7.038   2.274 123.761  0.00  0.00    +0.000 A 
ATOM     19  C   UNL     1      -6.019   3.049 123.186  0.00  0.00    +0.000 A 
ATOM     20  C   UNL     1      -6.255   3.748 122.003  0.00  0.00    +0.000 A 
ATOM     21 CL   UNL     1      -5.025   4.750 121.341  0.00  0.00    +0.000 Cl
ATOM     22  C   UNL     1      -7.482   3.651 121.358  0.00  0.00    +0.000 A 
ATOM     23  C   UNL     1      -8.502   2.899 121.935  0.00  0.00    +0.000 A 
ENDROOT
TORSDOF 0
ENDMDL
MODEL 2
REMARK VINA RESULT:      -7.5      8.203      9.477
REMARK  Name = Clothiapine
REMARK  1 active torsions:
REMARK  status: ('A' for Active; 'I' for Inactive)
REMARK    1  A    between atoms: C_1  and  N_2
REMARK                            x       y       z     vdW  Elec       q    Type
REMARK                         _______ _______ _______ _____ _____    ______ ____
ROOT
ATOM      1  C   UNL     1      -1.768   6.107 131.914  0.00  0.00    +0.000 C 
ATOM      2  N   UNL     1      -3.012   6.047 131.154  0.00  0.00    +0.000 NA
ATOM      3  C   UNL     1      -3.841   7.256 131.373  0.00  0.00    +0.000 C 
ATOM      4  C   UNL     1      -5.155   7.227 130.540  0.00  0.00    +0.000 C 
ATOM      5  N   UNL     1      -5.897   5.998 130.844  0.00  0.00    +0.000 N 
ATOM      6  C   UNL     1      -5.106   4.765 130.696  0.00  0.00    +0.000 C 
ATOM      7  C   UNL     1      -3.811   4.860 131.533  0.00  0.00    +0.000 C 
ATOM      8  C   UNL     1      -7.287   5.965 130.966  0.00  0.00    +0.000 C 
ATOM      9  N   UNL     1      -8.046   6.512 130.054  0.00  0.00    +0.000 NA
ATOM     10  C   UNL     1      -9.471   6.549 130.071  0.00  0.00    +0.000 A 
ATOM     11  C   UNL     1     -10.109   7.713 129.616  0.00  0.00    +0.000 A 
ATOM     12  C   UNL     1     -11.510   7.830 129.600  0.00  0.00    +0.000 A 
ATOM     13  C   UNL     1     -12.309   6.793 130.067  0.00  0.00    +0.000 A 
ATOM     14  C   UNL     1     -11.707   5.613 130.477  0.00  0.00    +0.000 A 
ATOM     15  C   UNL     1     -10.310   5.473 130.416  0.00  0.00    +0.000 A 
ATOM     16  S   UNL     1      -9.660   3.871 130.820  0.00  0.00    +0.000 S 
ATOM     17  C   UNL     1      -8.836   4.419 132.284  0.00  0.00    +0.000 A 
ATOM     18  C   UNL     1      -7.769   5.318 132.245  0.00  0.00    +0.000 A 
ATOM     19  C   UNL     1      -7.071   5.599 133.430  0.00  0.00    +0.000 A 
ATOM     20  C   UNL     1      -7.479   5.027 134.634  0.00  0.00    +0.000 A 
ATOM     21 CL   UNL     1      -6.579   5.320 136.068  0.00  0.00    +0.000 Cl
ATOM     22  C   UNL     1      -8.603   4.210 134.683  0.00  0.00    +0.000 A 
ATOM     23  C   UNL     1      -9.286   3.914 133.507  0.00  0.00    +0.000 A 
ENDROOT
TORSDOF 0
ENDMDL
MODEL 3
REMARK VINA RESULT:      -7.3      6.006      8.636
REMARK  Name = Clothiapine
REMARK  1 active torsions:
REMARK  status: ('A' for Active; 'I' for Inactive)
REMARK    1  A    between atoms: C_1  and  N_2
REMARK                            x       y       z     vdW  Elec       q    Type
REMARK                         _______ _______ _______ _____ _____    ______ ____
ROOT
ATOM      1  C   UNL     1      -3.982   2.003 128.524  0.00  0.00    +0.000 C 
ATOM      2  N   UNL     1      -5.320   2.519 128.259  0.00  0.00    +0.000 NA
ATOM      3  C   UNL     1      -5.292   3.966 127.942  0.00  0.00    +0.000 C 
ATOM      4  C   UNL     1      -6.708   4.525 127.618  0.00  0.00    +0.000 C 
ATOM      5  N   UNL     1      -7.614   4.232 128.734  0.00  0.00    +0.000 N 
ATOM      6  C   UNL     1      -7.642   2.814 129.131  0.00  0.00    +0.000 C 
ATOM      7  C   UNL     1      -6.210   2.315 129.424  0.00  0.00    +0.000 C 
ATOM      8  C   UNL     1      -8.578   5.136 129.183  0.00  0.00    +0.000 C 
ATOM      9  N   UNL     1      -9.384   5.720 128.336  0.00  0.00    +0.000 NA
ATOM     10  C   UNL     1     -10.400   6.663 128.670  0.00  0.00    +0.000 A 
ATOM     11  C   UNL     1     -10.611   7.745 127.802  0.00  0.00    +0.000 A 
ATOM     12  C   UNL     1     -11.592   8.718 128.059  0.00  0.00    +0.000 A 
ATOM     13  C   UNL     1     -12.371   8.647 129.208  0.00  0.00    +0.000 A 
ATOM     14  C   UNL     1     -12.218   7.563 130.059  0.00  0.00    +0.000 A 
ATOM     15  C   UNL     1     -11.289   6.551 129.755  0.00  0.00    +0.000 A 
ATOM     16  S   UNL     1     -11.285   5.138 130.829  0.00  0.00    +0.000 S 
ATOM     17  C   UNL     1      -9.669   5.454 131.471  0.00  0.00    +0.000 A 
ATOM     18  C   UNL     1      -8.526   5.391 130.672  0.00  0.00    +0.000 A 
ATOM     19  C   UNL     1      -7.265   5.513 131.277  0.00  0.00    +0.000 A 
ATOM     20  C   UNL     1      -7.167   5.750 132.647  0.00  0.00    +0.000 A 
ATOM     21 CL   UNL     1      -5.620   5.829 133.393  0.00  0.00    +0.000 Cl
ATOM     22  C   UNL     1      -8.311   5.910 133.420  0.00  0.00    +0.000 A 
ATOM     23  C   UNL     1      -9.563   5.771 132.828  0.00  0.00    +0.000 A 
ENDROOT
TORSDOF 0
ENDMDL
MODEL 4
REMARK VINA RESULT:      -7.3      4.272      6.104
REMARK  Name = Clothiapine
REMARK  1 active torsions:
REMARK  status: ('A' for Active; 'I' for Inactive)
REMARK    1  A    between atoms: C_1  and  N_2
REMARK                            x       y       z     vdW  Elec       q    Type
REMARK                         _______ _______ _______ _____ _____    ______ ____
ROOT
ATOM      1  C   UNL     1      -7.165   3.773 124.295  0.00  0.00    +0.000 C 
ATOM      2  N   UNL     1      -6.893   3.055 125.535  0.00  0.00    +0.000 NA
ATOM      3  C   UNL     1      -5.679   2.213 125.420  0.00  0.00    +0.000 C 
ATOM      4  C   UNL     1      -5.351   1.469 126.747  0.00  0.00    +0.000 C 
ATOM      5  N   UNL     1      -6.518   0.684 127.166  0.00  0.00    +0.000 N 
ATOM      6  C   UNL     1      -7.768   1.458 127.245  0.00  0.00    +0.000 C 
ATOM      7  C   UNL     1      -8.030   2.184 125.907  0.00  0.00    +0.000 C 
ATOM      8  C   UNL     1      -6.410  -0.590 127.726  0.00  0.00    +0.000 C 
ATOM      9  N   UNL     1      -5.576  -0.816 128.705  0.00  0.00    +0.000 NA
ATOM     10  C   UNL     1      -5.372  -2.071 129.351  0.00  0.00    +0.000 A 
ATOM     11  C   UNL     1      -4.065  -2.418 129.726  0.00  0.00    +0.000 A 
ATOM     12  C   UNL     1      -3.778  -3.636 130.367  0.00  0.00    +0.000 A 
ATOM     13  C   UNL     1      -4.792  -4.551 130.625  0.00  0.00    +0.000 A 
ATOM     14  C   UNL     1      -6.099  -4.214 130.309  0.00  0.00    +0.000 A 
ATOM     15  C   UNL     1      -6.389  -2.961 129.741  0.00  0.00    +0.000 A 
ATOM     16  S   UNL     1      -8.108  -2.574 129.519  0.00  0.00    +0.000 S 
ATOM     17  C   UNL     1      -8.025  -2.570 127.755  0.00  0.00    +0.000 A 
ATOM     18  C   UNL     1      -7.278  -1.626 127.047  0.00  0.00    +0.000 A 
ATOM     19  C   UNL     1      -7.371  -1.594 125.647  0.00  0.00    +0.000 A 
ATOM     20  C   UNL     1      -8.157  -2.530 124.977  0.00  0.00    +0.000 A 
ATOM     21 CL   UNL     1      -8.323  -2.442 123.269  0.00  0.00    +0.000 Cl
ATOM     22  C   UNL     1      -8.821  -3.529 125.681  0.00  0.00    +0.000 A 
ATOM     23  C   UNL     1      -8.746  -3.553 127.070  0.00  0.00    +0.000 A 
ENDROOT
TORSDOF 0
ENDMDL
MODEL 5
REMARK VINA RESULT:      -7.2      4.638      6.030
REMARK  Name = Clothiapine
REMARK  1 active torsions:
REMARK  status: ('A' for Active; 'I' for Inactive)
REMARK    1  A    between atoms: C_1  and  N_2
REMARK                            x       y       z     vdW  Elec       q    Type
REMARK                         _______ _______ _______ _____ _____    ______ ____
ROOT
ATOM      1  C   UNL     1      -4.168   5.517 128.477  0.00  0.00    +0.000 C 
ATOM      2  N   UNL     1      -4.297   4.074 128.309  0.00  0.00    +0.000 NA
ATOM      3  C   UNL     1      -5.365   3.733 127.340  0.00  0.00    +0.000 C 
ATOM      4  C   UNL     1      -5.490   2.198 127.118  0.00  0.00    +0.000 C 
ATOM      5  N   UNL     1      -5.698   1.536 128.410  0.00  0.00    +0.000 N 
ATOM      6  C   UNL     1      -4.695   1.880 129.432  0.00  0.00    +0.000 C 
ATOM      7  C   UNL     1      -4.607   3.413 129.596  0.00  0.00    +0.000 C 
ATOM      8  C   UNL     1      -6.571   0.459 128.576  0.00  0.00    +0.000 C 
ATOM      9  N   UNL     1      -6.527  -0.561 127.761  0.00  0.00    +0.000 NA
ATOM     10  C   UNL     1      -7.367  -1.712 127.822  0.00  0.00    +0.000 A 
ATOM     11  C   UNL     1      -7.812  -2.272 126.616  0.00  0.00    +0.000 A 
ATOM     12  C   UNL     1      -8.643  -3.406 126.589  0.00  0.00    +0.000 A 
ATOM     13  C   UNL     1      -9.073  -3.993 127.775  0.00  0.00    +0.000 A 
ATOM     14  C   UNL     1      -8.609  -3.489 128.980  0.00  0.00    +0.000 A 
ATOM     15  C   UNL     1      -7.715  -2.404 128.997  0.00  0.00    +0.000 A 
ATOM     16  S   UNL     1      -7.068  -1.940 130.584  0.00  0.00    +0.000 S 
ATOM     17  C   UNL     1      -7.874  -0.369 130.611  0.00  0.00    +0.000 A 
ATOM     18  C   UNL     1      -7.558   0.645 129.705  0.00  0.00    +0.000 A 
ATOM     19  C   UNL     1      -8.135   1.913 129.874  0.00  0.00    +0.000 A 
ATOM     20  C   UNL     1      -9.052   2.134 130.901  0.00  0.00    +0.000 A 
ATOM     21 CL   UNL     1      -9.702   3.706 131.145  0.00  0.00    +0.000 Cl
ATOM     22  C   UNL     1      -9.438   1.094 131.738  0.00  0.00    +0.000 A 
ATOM     23  C   UNL     1      -8.854  -0.160 131.586  0.00  0.00    +0.000 A 
ENDROOT
TORSDOF 0
ENDMDL
MODEL 6
REMARK VINA RESULT:      -7.2      3.202      4.617
REMARK  Name = Clothiapine
REMARK  1 active torsions:
REMARK  status: ('A' for Active; 'I' for Inactive)
REMARK    1  A    between atoms: C_1  and  N_2
REMARK                            x       y       z     vdW  Elec       q    Type
REMARK                         _______ _______ _______ _____ _____    ______ ____
ROOT
ATOM      1  C   UNL     1      -4.283   5.422 127.391  0.00  0.00    +0.000 C 
ATOM      2  N   UNL     1      -4.516   4.262 126.539  0.00  0.00    +0.000 NA
ATOM      3  C   UNL     1      -5.906   4.232 126.029  0.00  0.00    +0.000 C 
ATOM      4  C   UNL     1      -6.162   3.021 125.086  0.00  0.00    +0.000 C 
ATOM      5  N   UNL     1      -5.814   1.779 125.784  0.00  0.00    +0.000 N 
ATOM      6  C   UNL     1      -4.459   1.771 126.361  0.00  0.00    +0.000 C 
ATOM      7  C   UNL     1      -4.262   3.002 127.273  0.00  0.00    +0.000 C 
ATOM      8  C   UNL     1      -6.563   0.608 125.662  0.00  0.00    +0.000 C 
ATOM      9  N   UNL     1      -6.906   0.160 124.483  0.00  0.00    +0.000 NA
ATOM     10  C   UNL     1      -7.673  -1.016 124.231  0.00  0.00    +0.000 A 
ATOM     11  C   UNL     1      -8.610  -0.983 123.188  0.00  0.00    +0.000 A 
ATOM     12  C   UNL     1      -9.406  -2.099 122.874  0.00  0.00    +0.000 A 
ATOM     13  C   UNL     1      -9.302  -3.270 123.617  0.00  0.00    +0.000 A 
ATOM     14  C   UNL     1      -8.349  -3.346 124.622  0.00  0.00    +0.000 A 
ATOM     15  C   UNL     1      -7.502  -2.253 124.878  0.00  0.00    +0.000 A 
ATOM     16  S   UNL     1      -6.222  -2.514 126.080  0.00  0.00    +0.000 S 
ATOM     17  C   UNL     1      -6.889  -1.369 127.247  0.00  0.00    +0.000 A 
ATOM     18  C   UNL     1      -6.963   0.001 126.988  0.00  0.00    +0.000 A 
ATOM     19  C   UNL     1      -7.372   0.867 128.013  0.00  0.00    +0.000 A 
ATOM     20  C   UNL     1      -7.751   0.355 129.253  0.00  0.00    +0.000 A 
ATOM     21 CL   UNL     1      -8.183   1.425 130.526  0.00  0.00    +0.000 Cl
ATOM     22  C   UNL     1      -7.770  -1.018 129.473  0.00  0.00    +0.000 A 
ATOM     23  C   UNL     1      -7.347  -1.880 128.466  0.00  0.00    +0.000 A 
ENDROOT
TORSDOF 0
ENDMDL
MODEL 7
REMARK VINA RESULT:      -7.1      2.715      3.160
REMARK  Name = Clothiapine
REMARK  1 active torsions:
REMARK  status: ('A' for Active; 'I' for Inactive)
REMARK    1  A    between atoms: C_1  and  N_2
REMARK                            x       y       z     vdW  Elec       q    Type
REMARK                         _______ _______ _______ _____ _____    ______ ____
ROOT
ATOM      1  C   UNL     1      -6.491   2.981 131.758  0.00  0.00    +0.000 C 
ATOM      2  N   UNL     1      -7.277   2.154 130.849  0.00  0.00    +0.000 NA
ATOM      3  C   UNL     1      -6.490   1.005 130.343  0.00  0.00    +0.000 C 
ATOM      4  C   UNL     1      -7.325   0.089 129.402  0.00  0.00    +0.000 C 
ATOM      5  N   UNL     1      -7.878   0.893 128.306  0.00  0.00    +0.000 N 
ATOM      6  C   UNL     1      -8.626   2.081 128.749  0.00  0.00    +0.000 C 
ATOM      7  C   UNL     1      -7.752   2.941 129.690  0.00  0.00    +0.000 C 
ATOM      8  C   UNL     1      -7.954   0.429 126.992  0.00  0.00    +0.000 C 
ATOM      9  N   UNL     1      -8.456  -0.749 126.734  0.00  0.00    +0.000 NA
ATOM     10  C   UNL     1      -8.580  -1.334 125.439  0.00  0.00    +0.000 A 
ATOM     11  C   UNL     1      -8.341  -2.711 125.308  0.00  0.00    +0.000 A 
ATOM     12  C   UNL     1      -8.442  -3.364 124.067  0.00  0.00    +0.000 A 
ATOM     13  C   UNL     1      -8.760  -2.648 122.918  0.00  0.00    +0.000 A 
ATOM     14  C   UNL     1      -9.048  -1.297 123.026  0.00  0.00    +0.000 A 
ATOM     15  C   UNL     1      -9.023  -0.666 124.282  0.00  0.00    +0.000 A 
ATOM     16  S   UNL     1      -9.557   1.027 124.325  0.00  0.00    +0.000 S 
ATOM     17  C   UNL     1      -7.967   1.665 124.756  0.00  0.00    +0.000 A 
ATOM     18  C   UNL     1      -7.355   1.376 125.977  0.00  0.00    +0.000 A 
ATOM     19  C   UNL     1      -6.159   2.030 126.312  0.00  0.00    +0.000 A 
ATOM     20  C   UNL     1      -5.568   2.912 125.409  0.00  0.00    +0.000 A 
ATOM     21 CL   UNL     1      -4.142   3.762 125.851  0.00  0.00    +0.000 Cl
ATOM     22  C   UNL     1      -6.130   3.119 124.154  0.00  0.00    +0.000 A 
ATOM     23  C   UNL     1      -7.325   2.488 123.826  0.00  0.00    +0.000 A 
ENDROOT
TORSDOF 0
ENDMDL
MODEL 8
REMARK VINA RESULT:      -7.1      4.645      6.613
REMARK  Name = Clothiapine
REMARK  1 active torsions:
REMARK  status: ('A' for Active; 'I' for Inactive)
REMARK    1  A    between atoms: C_1  and  N_2
REMARK                            x       y       z     vdW  Elec       q    Type
REMARK                         _______ _______ _______ _____ _____    ______ ____
ROOT
ATOM      1  C   UNL     1      -4.542  -3.790 132.199  0.00  0.00    +0.000 C 
ATOM      2  N   UNL     1      -4.331  -2.979 131.006  0.00  0.00    +0.000 NA
ATOM      3  C   UNL     1      -5.197  -1.776 131.007  0.00  0.00    +0.000 C 
ATOM      4  C   UNL     1      -4.956  -0.877 129.759  0.00  0.00    +0.000 C 
ATOM      5  N   UNL     1      -5.139  -1.676 128.542  0.00  0.00    +0.000 N 
ATOM      6  C   UNL     1      -4.343  -2.914 128.509  0.00  0.00    +0.000 C 
ATOM      7  C   UNL     1      -4.613  -3.754 129.777  0.00  0.00    +0.000 C 
ATOM      8  C   UNL     1      -5.763  -1.177 127.398  0.00  0.00    +0.000 C 
ATOM      9  N   UNL     1      -5.415  -0.019 126.903  0.00  0.00    +0.000 NA
ATOM     10  C   UNL     1      -5.981   0.596 125.748  0.00  0.00    +0.000 A 
ATOM     11  C   UNL     1      -6.170   1.986 125.764  0.00  0.00    +0.000 A 
ATOM     12  C   UNL     1      -6.723   2.670 124.667  0.00  0.00    +0.000 A 
ATOM     13  C   UNL     1      -7.126   1.974 123.533  0.00  0.00    +0.000 A 
ATOM     14  C   UNL     1      -6.907   0.606 123.471  0.00  0.00    +0.000 A 
ATOM     15  C   UNL     1      -6.281  -0.060 124.540  0.00  0.00    +0.000 A 
ATOM     16  S   UNL     1      -5.912  -1.778 124.291  0.00  0.00    +0.000 S 
ATOM     17  C   UNL     1      -7.045  -2.346 125.522  0.00  0.00    +0.000 A 
ATOM     18  C   UNL     1      -6.874  -2.061 126.878  0.00  0.00    +0.000 A 
ATOM     19  C   UNL     1      -7.731  -2.662 127.813  0.00  0.00    +0.000 A 
ATOM     20  C   UNL     1      -8.771  -3.485 127.382  0.00  0.00    +0.000 A 
ATOM     21 CL   UNL     1      -9.773  -4.272 128.535  0.00  0.00    +0.000 Cl
ATOM     22  C   UNL     1      -8.997  -3.684 126.025  0.00  0.00    +0.000 A 
ATOM     23  C   UNL     1      -8.138  -3.106 125.095  0.00  0.00    +0.000 A 
ENDROOT
TORSDOF 0
ENDMDL
MODEL 9
REMARK VINA RESULT:      -7.0      6.813      9.584
REMARK  Name = Clothiapine
REMARK  1 active torsions:
REMARK  status: ('A' for Active; 'I' for Inactive)
REMARK    1  A    between atoms: C_1  and  N_2
REMARK                            x       y       z     vdW  Elec       q    Type
REMARK                         _______ _______ _______ _____ _____    ______ ____
ROOT
ATOM      1  C   UNL     1     -13.211   6.567 128.834  0.00  0.00    +0.000 C 
ATOM      2  N   UNL     1     -12.008   6.954 129.562  0.00  0.00    +0.000 NA
ATOM      3  C   UNL     1     -10.885   7.247 128.640  0.00  0.00    +0.000 C 
ATOM      4  C   UNL     1      -9.604   7.699 129.398  0.00  0.00    +0.000 C 
ATOM      5  N   UNL     1      -9.240   6.681 130.390  0.00  0.00    +0.000 N 
ATOM      6  C   UNL     1     -10.335   6.309 131.301  0.00  0.00    +0.000 C 
ATOM      7  C   UNL     1     -11.580   5.885 130.491  0.00  0.00    +0.000 C 
ATOM      8  C   UNL     1      -7.917   6.317 130.648  0.00  0.00    +0.000 C 
ATOM      9  N   UNL     1      -7.008   7.230 130.863  0.00  0.00    +0.000 NA
ATOM     10  C   UNL     1      -5.629   6.984 131.130  0.00  0.00    +0.000 A 
ATOM     11  C   UNL     1      -4.681   7.853 130.570  0.00  0.00    +0.000 A 
ATOM     12  C   UNL     1      -3.302   7.680 130.784  0.00  0.00    +0.000 A 
ATOM     13  C   UNL     1      -2.836   6.614 131.544  0.00  0.00    +0.000 A 
ATOM     14  C   UNL     1      -3.753   5.768 132.149  0.00  0.00    +0.000 A 
ATOM     15  C   UNL     1      -5.132   5.993 131.996  0.00  0.00    +0.000 A 
ATOM     16  S   UNL     1      -6.211   4.944 132.937  0.00  0.00    +0.000 S 
ATOM     17  C   UNL     1      -6.899   4.143 131.521  0.00  0.00    +0.000 A 
ATOM     18  C   UNL     1      -7.674   4.826 130.582  0.00  0.00    +0.000 A 
ATOM     19  C   UNL     1      -8.305   4.100 129.561  0.00  0.00    +0.000 A 
ATOM     20  C   UNL     1      -8.111   2.723 129.459  0.00  0.00    +0.000 A 
ATOM     21 CL   UNL     1      -8.941   1.829 128.249  0.00  0.00    +0.000 Cl
ATOM     22  C   UNL     1      -7.258   2.064 130.336  0.00  0.00    +0.000 A 
ATOM     23  C   UNL     1      -6.645   2.777 131.362  0.00  0.00    +0.000 A 
ENDROOT
TORSDOF 0
ENDMDL
