MODEL 1
REMARK VINA RESULT:      -7.5      0.000      0.000
REMARK  Name = Clotiazepam
REMARK  4 active torsions:
REMARK  status: ('A' for Active; 'I' for Inactive)
REMARK    1  A    between atoms: C_1  and  C_2
REMARK    2  A    between atoms: C_2  and  C_3
REMARK    3  A    between atoms: N_8  and  C_9
REMARK    4  A    between atoms: C_14  and  C_15
REMARK                            x       y       z     vdW  Elec       q    Type
REMARK                         _______ _______ _______ _____ _____    ______ ____
ROOT
ATOM      1  C   UNL     1      -7.192  -0.498 123.563  0.00  0.00    +0.000 A 
ATOM      2  C   UNL     1      -7.137   0.689 122.883  0.00  0.00    +0.000 A 
ATOM      3  C   UNL     1      -6.758   1.814 123.716  0.00  0.00    +0.000 A 
ATOM      4  C   UNL     1      -6.543   1.367 125.006  0.00  0.00    +0.000 A 
ATOM      5  S   UNL     1      -6.880  -0.282 125.204  0.00  0.00    +0.000 S 
ATOM      6  N   UNL     1      -6.062   2.003 126.134  0.00  0.00    +0.000 N 
ATOM      7  C   UNL     1      -6.247   1.541 127.503  0.00  0.00    +0.000 C 
ATOM      8  C   UNL     1      -5.196   3.062 125.888  0.00  0.00    +0.000 C 
ATOM      9  O   UNL     1      -4.051   3.118 126.311  0.00  0.00    +0.000 OA
ATOM     10  C   UNL     1      -5.909   4.252 125.281  0.00  0.00    +0.000 C 
ATOM     11  N   UNL     1      -6.223   4.212 123.862  0.00  0.00    +0.000 NA
ATOM     12  C   UNL     1      -6.673   3.192 123.227  0.00  0.00    +0.000 C 
ENDROOT
BRANCH  12  13
ATOM     13  C   UNL     1      -7.200   3.423 121.856  0.00  0.00    +0.000 A 
ATOM     14  C   UNL     1      -8.586   3.409 121.659  0.00  0.00    +0.000 A 
ATOM     15  C   UNL     1      -9.105   3.800 120.423  0.00  0.00    +0.000 A 
ATOM     16  C   UNL     1      -8.249   4.217 119.401  0.00  0.00    +0.000 A 
ATOM     17  C   UNL     1      -6.867   4.198 119.587  0.00  0.00    +0.000 A 
ATOM     18  C   UNL     1      -6.335   3.762 120.799  0.00  0.00    +0.000 A 
ATOM     19 CL   UNL     1      -4.609   3.706 120.934  0.00  0.00    +0.000 Cl
ENDBRANCH  12  13
BRANCH   1  21
ATOM     20  C   UNL     1      -8.931  -2.192 123.210  0.00  0.00    +0.000 C 
ATOM     21  C   UNL     1      -7.451  -1.867 123.052  0.00  0.00    +0.000 C 
ENDBRANCH   1  21
TORSDOF 2
ENDMDL
MODEL 2
REMARK VINA RESULT:      -7.3      2.449      4.852
REMARK  Name = Clotiazepam
REMARK  4 active torsions:
REMARK  status: ('A' for Active; 'I' for Inactive)
REMARK    1  A    between atoms: C_1  and  C_2
REMARK    2  A    between atoms: C_2  and  C_3
REMARK    3  A    between atoms: N_8  and  C_9
REMARK    4  A    between atoms: C_14  and  C_15
REMARK                            x       y       z     vdW  Elec       q    Type
REMARK                         _______ _______ _______ _____ _____    ______ ____
ROOT
ATOM      1  C   UNL     1      -5.962   3.385 122.054  0.00  0.00    +0.000 A 
ATOM      2  C   UNL     1      -6.657   2.305 122.529  0.00  0.00    +0.000 A 
ATOM      3  C   UNL     1      -6.858   2.335 123.965  0.00  0.00    +0.000 A 
ATOM      4  C   UNL     1      -6.282   3.482 124.476  0.00  0.00    +0.000 A 
ATOM      5  S   UNL     1      -5.469   4.399 123.306  0.00  0.00    +0.000 S 
ATOM      6  N   UNL     1      -6.292   4.032 125.744  0.00  0.00    +0.000 N 
ATOM      7  C   UNL     1      -5.340   5.018 126.240  0.00  0.00    +0.000 C 
ATOM      8  C   UNL     1      -7.411   3.725 126.509  0.00  0.00    +0.000 C 
ATOM      9  O   UNL     1      -8.166   4.564 126.979  0.00  0.00    +0.000 OA
ATOM     10  C   UNL     1      -7.433   2.270 126.928  0.00  0.00    +0.000 C 
ATOM     11  N   UNL     1      -7.863   1.283 125.950  0.00  0.00    +0.000 NA
ATOM     12  C   UNL     1      -7.533   1.270 124.710  0.00  0.00    +0.000 C 
ENDROOT
BRANCH  12  13
ATOM     13  C   UNL     1      -7.834   0.034 123.940  0.00  0.00    +0.000 A 
ATOM     14  C   UNL     1      -6.892  -1.001 123.939  0.00  0.00    +0.000 A 
ATOM     15  C   UNL     1      -7.231  -2.233 123.375  0.00  0.00    +0.000 A 
ATOM     16  C   UNL     1      -8.502  -2.433 122.833  0.00  0.00    +0.000 A 
ATOM     17  C   UNL     1      -9.428  -1.389 122.803  0.00  0.00    +0.000 A 
ATOM     18  C   UNL     1      -9.084  -0.141 123.318  0.00  0.00    +0.000 A 
ATOM     19 CL   UNL     1     -10.262   1.123 123.189  0.00  0.00    +0.000 Cl
ENDBRANCH  12  13
BRANCH   1  21
ATOM     20  C   UNL     1      -6.923   4.112 119.917  0.00  0.00    +0.000 C 
ATOM     21  C   UNL     1      -5.638   3.757 120.654  0.00  0.00    +0.000 C 
ENDBRANCH   1  21
TORSDOF 2
ENDMDL
MODEL 3
REMARK VINA RESULT:      -7.3      4.488      7.556
REMARK  Name = Clotiazepam
REMARK  4 active torsions:
REMARK  status: ('A' for Active; 'I' for Inactive)
REMARK    1  A    between atoms: C_1  and  C_2
REMARK    2  A    between atoms: C_2  and  C_3
REMARK    3  A    between atoms: N_8  and  C_9
REMARK    4  A    between atoms: C_14  and  C_15
REMARK                            x       y       z     vdW  Elec       q    Type
REMARK                         _______ _______ _______ _____ _____    ______ ____
ROOT
ATOM      1  C   UNL     1      -5.690  -2.454 124.073  0.00  0.00    +0.000 A 
ATOM      2  C   UNL     1      -5.907  -2.538 125.422  0.00  0.00    +0.000 A 
ATOM      3  C   UNL     1      -6.733  -1.464 125.942  0.00  0.00    +0.000 A 
ATOM      4  C   UNL     1      -7.091  -0.629 124.902  0.00  0.00    +0.000 A 
ATOM      5  S   UNL     1      -6.388  -1.065 123.423  0.00  0.00    +0.000 S 
ATOM      6  N   UNL     1      -7.948   0.454 124.843  0.00  0.00    +0.000 N 
ATOM      7  C   UNL     1      -7.942   1.475 123.803  0.00  0.00    +0.000 C 
ATOM      8  C   UNL     1      -8.987   0.433 125.766  0.00  0.00    +0.000 C 
ATOM      9  O   UNL     1     -10.170   0.463 125.461  0.00  0.00    +0.000 OA
ATOM     10  C   UNL     1      -8.495   0.650 127.182  0.00  0.00    +0.000 C 
ATOM     11  N   UNL     1      -7.889  -0.476 127.876  0.00  0.00    +0.000 NA
ATOM     12  C   UNL     1      -7.067  -1.313 127.360  0.00  0.00    +0.000 C 
ENDROOT
BRANCH  12  13
ATOM     13  C   UNL     1      -6.340  -2.215 128.293  0.00  0.00    +0.000 A 
ATOM     14  C   UNL     1      -5.009  -1.923 128.608  0.00  0.00    +0.000 A 
ATOM     15  C   UNL     1      -4.369  -2.648 129.615  0.00  0.00    +0.000 A 
ATOM     16  C   UNL     1      -5.058  -3.643 130.312  0.00  0.00    +0.000 A 
ATOM     17  C   UNL     1      -6.375  -3.957 129.973  0.00  0.00    +0.000 A 
ATOM     18  C   UNL     1      -7.007  -3.274 128.936  0.00  0.00    +0.000 A 
ATOM     19 CL   UNL     1      -8.620  -3.762 128.532  0.00  0.00    +0.000 Cl
ENDBRANCH  12  13
BRANCH   1  21
ATOM     20  C   UNL     1      -4.512  -4.603 123.971  0.00  0.00    +0.000 C 
ATOM     21  C   UNL     1      -4.984  -3.396 123.171  0.00  0.00    +0.000 C 
ENDBRANCH   1  21
TORSDOF 2
ENDMDL
MODEL 4
REMARK VINA RESULT:      -6.9      4.518      7.690
REMARK  Name = Clotiazepam
REMARK  4 active torsions:
REMARK  status: ('A' for Active; 'I' for Inactive)
REMARK    1  A    between atoms: C_1  and  C_2
REMARK    2  A    between atoms: C_2  and  C_3
REMARK    3  A    between atoms: N_8  and  C_9
REMARK    4  A    between atoms: C_14  and  C_15
REMARK                            x       y       z     vdW  Elec       q    Type
REMARK                         _______ _______ _______ _____ _____    ______ ____
ROOT
ATOM      1  C   UNL     1      -8.042  -2.547 125.212  0.00  0.00    +0.000 A 
ATOM      2  C   UNL     1      -7.432  -2.599 126.437  0.00  0.00    +0.000 A 
ATOM      3  C   UNL     1      -7.256  -1.296 127.050  0.00  0.00    +0.000 A 
ATOM      4  C   UNL     1      -7.773  -0.330 126.209  0.00  0.00    +0.000 A 
ATOM      5  S   UNL     1      -8.335  -0.957 124.738  0.00  0.00    +0.000 S 
ATOM      6  N   UNL     1      -7.956   1.030 126.371  0.00  0.00    +0.000 N 
ATOM      7  C   UNL     1      -8.143   1.988 125.288  0.00  0.00    +0.000 C 
ATOM      8  C   UNL     1      -8.143   1.447 127.684  0.00  0.00    +0.000 C 
ATOM      9  O   UNL     1      -9.132   2.050 128.073  0.00  0.00    +0.000 OA
ATOM     10  C   UNL     1      -6.878   1.321 128.507  0.00  0.00    +0.000 C 
ATOM     11  N   UNL     1      -6.513   0.003 129.003  0.00  0.00    +0.000 NA
ATOM     12  C   UNL     1      -6.591  -1.091 128.339  0.00  0.00    +0.000 C 
ENDROOT
BRANCH  12  13
ATOM     13  C   UNL     1      -5.909  -2.283 128.910  0.00  0.00    +0.000 A 
ATOM     14  C   UNL     1      -4.531  -2.426 128.712  0.00  0.00    +0.000 A 
ATOM     15  C   UNL     1      -3.845  -3.436 129.389  0.00  0.00    +0.000 A 
ATOM     16  C   UNL     1      -4.525  -4.284 130.266  0.00  0.00    +0.000 A 
ATOM     17  C   UNL     1      -5.905  -4.162 130.435  0.00  0.00    +0.000 A 
ATOM     18  C   UNL     1      -6.608  -3.190 129.728  0.00  0.00    +0.000 A 
ATOM     19 CL   UNL     1      -8.327  -3.141 129.942  0.00  0.00    +0.000 Cl
ENDBRANCH  12  13
BRANCH   1  21
ATOM     20  C   UNL     1      -9.522  -3.140 123.348  0.00  0.00    +0.000 C 
ATOM     21  C   UNL     1      -8.471  -3.654 124.324  0.00  0.00    +0.000 C 
ENDBRANCH   1  21
TORSDOF 2
ENDMDL
MODEL 5
REMARK VINA RESULT:      -6.8      8.112      9.360
REMARK  Name = Clotiazepam
REMARK  4 active torsions:
REMARK  status: ('A' for Active; 'I' for Inactive)
REMARK    1  A    between atoms: C_1  and  C_2
REMARK    2  A    between atoms: C_2  and  C_3
REMARK    3  A    between atoms: N_8  and  C_9
REMARK    4  A    between atoms: C_14  and  C_15
REMARK                            x       y       z     vdW  Elec       q    Type
REMARK                         _______ _______ _______ _____ _____    ______ ____
ROOT
ATOM      1  C   UNL     1      -6.747   6.277 130.815  0.00  0.00    +0.000 A 
ATOM      2  C   UNL     1      -8.057   6.526 130.503  0.00  0.00    +0.000 A 
ATOM      3  C   UNL     1      -8.879   5.332 130.468  0.00  0.00    +0.000 A 
ATOM      4  C   UNL     1      -8.095   4.237 130.775  0.00  0.00    +0.000 A 
ATOM      5  S   UNL     1      -6.460   4.626 130.987  0.00  0.00    +0.000 S 
ATOM      6  N   UNL     1      -8.410   2.908 130.986  0.00  0.00    +0.000 N 
ATOM      7  C   UNL     1      -7.467   1.799 130.917  0.00  0.00    +0.000 C 
ATOM      8  C   UNL     1      -9.694   2.677 131.467  0.00  0.00    +0.000 C 
ATOM      9  O   UNL     1      -9.933   2.100 132.518  0.00  0.00    +0.000 OA
ATOM     10  C   UNL     1     -10.754   2.966 130.425  0.00  0.00    +0.000 C 
ATOM     11  N   UNL     1     -11.120   4.354 130.188  0.00  0.00    +0.000 NA
ATOM     12  C   UNL     1     -10.301   5.338 130.115  0.00  0.00    +0.000 C 
ENDROOT
BRANCH  12  13
ATOM     13  C   UNL     1     -10.829   6.624 129.586  0.00  0.00    +0.000 A 
ATOM     14  C   UNL     1     -10.475   7.011 128.289  0.00  0.00    +0.000 A 
ATOM     15  C   UNL     1     -11.101   8.117 127.711  0.00  0.00    +0.000 A 
ATOM     16  C   UNL     1     -12.082   8.818 128.415  0.00  0.00    +0.000 A 
ATOM     17  C   UNL     1     -12.408   8.453 129.722  0.00  0.00    +0.000 A 
ATOM     18  C   UNL     1     -11.755   7.381 130.327  0.00  0.00    +0.000 A 
ATOM     19 CL   UNL     1     -12.168   7.027 131.972  0.00  0.00    +0.000 Cl
ENDBRANCH  12  13
BRANCH   1  21
ATOM     20  C   UNL     1      -4.633   6.622 132.009  0.00  0.00    +0.000 C 
ATOM     21  C   UNL     1      -5.631   7.230 131.033  0.00  0.00    +0.000 C 
ENDBRANCH   1  21
TORSDOF 2
ENDMDL
MODEL 6
REMARK VINA RESULT:      -6.8      7.179      9.324
REMARK  Name = Clotiazepam
REMARK  4 active torsions:
REMARK  status: ('A' for Active; 'I' for Inactive)
REMARK    1  A    between atoms: C_1  and  C_2
REMARK    2  A    between atoms: C_2  and  C_3
REMARK    3  A    between atoms: N_8  and  C_9
REMARK    4  A    between atoms: C_14  and  C_15
REMARK                            x       y       z     vdW  Elec       q    Type
REMARK                         _______ _______ _______ _____ _____    ______ ____
ROOT
ATOM      1  C   UNL     1      -8.270  -0.382 131.684  0.00  0.00    +0.000 A 
ATOM      2  C   UNL     1      -8.146  -1.289 130.666  0.00  0.00    +0.000 A 
ATOM      3  C   UNL     1      -7.183  -2.338 130.942  0.00  0.00    +0.000 A 
ATOM      4  C   UNL     1      -6.643  -2.134 132.197  0.00  0.00    +0.000 A 
ATOM      5  S   UNL     1      -7.194  -0.712 132.937  0.00  0.00    +0.000 S 
ATOM      6  N   UNL     1      -5.785  -2.896 132.966  0.00  0.00    +0.000 N 
ATOM      7  C   UNL     1      -4.993  -2.400 134.085  0.00  0.00    +0.000 C 
ATOM      8  C   UNL     1      -5.844  -4.265 132.732  0.00  0.00    +0.000 C 
ATOM      9  O   UNL     1      -6.109  -5.092 133.592  0.00  0.00    +0.000 OA
ATOM     10  C   UNL     1      -5.275  -4.637 131.379  0.00  0.00    +0.000 C 
ATOM     11  N   UNL     1      -6.109  -4.426 130.205  0.00  0.00    +0.000 NA
ATOM     12  C   UNL     1      -6.844  -3.397 129.989  0.00  0.00    +0.000 C 
ENDROOT
BRANCH  12  13
ATOM     13  C   UNL     1      -7.394  -3.231 128.617  0.00  0.00    +0.000 A 
ATOM     14  C   UNL     1      -8.613  -3.843 128.305  0.00  0.00    +0.000 A 
ATOM     15  C   UNL     1      -9.231  -3.552 127.087  0.00  0.00    +0.000 A 
ATOM     16  C   UNL     1      -8.646  -2.647 126.199  0.00  0.00    +0.000 A 
ATOM     17  C   UNL     1      -7.413  -2.065 126.497  0.00  0.00    +0.000 A 
ATOM     18  C   UNL     1      -6.763  -2.386 127.686  0.00  0.00    +0.000 A 
ATOM     19 CL   UNL     1      -5.207  -1.672 127.957  0.00  0.00    +0.000 Cl
ENDBRANCH  12  13
BRANCH   1  21
ATOM     20  C   UNL     1      -8.519   1.880 132.601  0.00  0.00    +0.000 C 
ATOM     21  C   UNL     1      -9.200   0.766 131.816  0.00  0.00    +0.000 C 
ENDBRANCH   1  21
TORSDOF 2
ENDMDL
MODEL 7
REMARK VINA RESULT:      -6.7      2.551      5.318
REMARK  Name = Clotiazepam
REMARK  4 active torsions:
REMARK  status: ('A' for Active; 'I' for Inactive)
REMARK    1  A    between atoms: C_1  and  C_2
REMARK    2  A    between atoms: C_2  and  C_3
REMARK    3  A    between atoms: N_8  and  C_9
REMARK    4  A    between atoms: C_14  and  C_15
REMARK                            x       y       z     vdW  Elec       q    Type
REMARK                         _______ _______ _______ _____ _____    ______ ____
ROOT
ATOM      1  C   UNL     1      -6.574   3.022 122.971  0.00  0.00    +0.000 A 
ATOM      2  C   UNL     1      -6.812   1.815 123.573  0.00  0.00    +0.000 A 
ATOM      3  C   UNL     1      -6.364   1.759 124.951  0.00  0.00    +0.000 A 
ATOM      4  C   UNL     1      -5.808   2.977 125.293  0.00  0.00    +0.000 A 
ATOM      5  S   UNL     1      -5.746   4.069 123.998  0.00  0.00    +0.000 S 
ATOM      6  N   UNL     1      -5.347   3.475 126.496  0.00  0.00    +0.000 N 
ATOM      7  C   UNL     1      -4.440   4.606 126.647  0.00  0.00    +0.000 C 
ATOM      8  C   UNL     1      -5.953   2.937 127.626  0.00  0.00    +0.000 C 
ATOM      9  O   UNL     1      -6.545   3.602 128.463  0.00  0.00    +0.000 OA
ATOM     10  C   UNL     1      -5.561   1.491 127.849  0.00  0.00    +0.000 C 
ATOM     11  N   UNL     1      -6.217   0.473 127.043  0.00  0.00    +0.000 NA
ATOM     12  C   UNL     1      -6.468   0.563 125.789  0.00  0.00    +0.000 C 
ENDROOT
BRANCH  12  13
ATOM     13  C   UNL     1      -6.879  -0.682 125.087  0.00  0.00    +0.000 A 
ATOM     14  C   UNL     1      -5.887  -1.499 124.533  0.00  0.00    +0.000 A 
ATOM     15  C   UNL     1      -6.236  -2.754 124.032  0.00  0.00    +0.000 A 
ATOM     16  C   UNL     1      -7.560  -3.196 124.099  0.00  0.00    +0.000 A 
ATOM     17  C   UNL     1      -8.554  -2.366 124.619  0.00  0.00    +0.000 A 
ATOM     18  C   UNL     1      -8.225  -1.092 125.077  0.00  0.00    +0.000 A 
ATOM     19 CL   UNL     1      -9.522  -0.096 125.650  0.00  0.00    +0.000 Cl
ENDBRANCH  12  13
BRANCH   1  21
ATOM     20  C   UNL     1      -5.704   3.804 120.815  0.00  0.00    +0.000 C 
ATOM     21  C   UNL     1      -6.960   3.493 121.618  0.00  0.00    +0.000 C 
ENDBRANCH   1  21
TORSDOF 2
ENDMDL
MODEL 8
REMARK VINA RESULT:      -6.6      5.486      6.763
REMARK  Name = Clotiazepam
REMARK  4 active torsions:
REMARK  status: ('A' for Active; 'I' for Inactive)
REMARK    1  A    between atoms: C_1  and  C_2
REMARK    2  A    between atoms: C_2  and  C_3
REMARK    3  A    between atoms: N_8  and  C_9
REMARK    4  A    between atoms: C_14  and  C_15
REMARK                            x       y       z     vdW  Elec       q    Type
REMARK                         _______ _______ _______ _____ _____    ______ ____
ROOT
ATOM      1  C   UNL     1      -5.645  -2.849 129.735  0.00  0.00    +0.000 A 
ATOM      2  C   UNL     1      -5.882  -2.503 128.431  0.00  0.00    +0.000 A 
ATOM      3  C   UNL     1      -6.746  -1.347 128.289  0.00  0.00    +0.000 A 
ATOM      4  C   UNL     1      -7.100  -0.893 129.545  0.00  0.00    +0.000 A 
ATOM      5  S   UNL     1      -6.507  -1.867 130.798  0.00  0.00    +0.000 S 
ATOM      6  N   UNL     1      -7.800   0.225 129.957  0.00  0.00    +0.000 N 
ATOM      7  C   UNL     1      -8.435   0.387 131.258  0.00  0.00    +0.000 C 
ATOM      8  C   UNL     1      -7.718   1.319 129.102  0.00  0.00    +0.000 C 
ATOM      9  O   UNL     1      -7.292   2.414 129.437  0.00  0.00    +0.000 OA
ATOM     10  C   UNL     1      -8.467   1.086 127.807  0.00  0.00    +0.000 C 
ATOM     11  N   UNL     1      -7.829   0.271 126.784  0.00  0.00    +0.000 NA
ATOM     12  C   UNL     1      -7.179  -0.814 126.995  0.00  0.00    +0.000 C 
ENDROOT
BRANCH  12  13
ATOM     13  C   UNL     1      -6.849  -1.650 125.810  0.00  0.00    +0.000 A 
ATOM     14  C   UNL     1      -5.617  -1.458 125.176  0.00  0.00    +0.000 A 
ATOM     15  C   UNL     1      -5.214  -2.349 124.180  0.00  0.00    +0.000 A 
ATOM     16  C   UNL     1      -6.026  -3.430 123.833  0.00  0.00    +0.000 A 
ATOM     17  C   UNL     1      -7.271  -3.601 124.441  0.00  0.00    +0.000 A 
ATOM     18  C   UNL     1      -7.705  -2.689 125.401  0.00  0.00    +0.000 A 
ATOM     19 CL   UNL     1      -9.286  -2.930 126.066  0.00  0.00    +0.000 Cl
ENDBRANCH  12  13
BRANCH   1  21
ATOM     20  C   UNL     1      -5.604  -5.026 130.865  0.00  0.00    +0.000 C 
ATOM     21  C   UNL     1      -4.756  -3.902 130.285  0.00  0.00    +0.000 C 
ENDBRANCH   1  21
TORSDOF 2
ENDMDL
MODEL 9
REMARK VINA RESULT:      -6.6      2.451      3.325
REMARK  Name = Clotiazepam
REMARK  4 active torsions:
REMARK  status: ('A' for Active; 'I' for Inactive)
REMARK    1  A    between atoms: C_1  and  C_2
REMARK    2  A    between atoms: C_2  and  C_3
REMARK    3  A    between atoms: N_8  and  C_9
REMARK    4  A    between atoms: C_14  and  C_15
REMARK                            x       y       z     vdW  Elec       q    Type
REMARK                         _______ _______ _______ _____ _____    ______ ____
ROOT
ATOM      1  C   UNL     1      -6.363  -1.669 124.155  0.00  0.00    +0.000 A 
ATOM      2  C   UNL     1      -6.595  -0.325 124.038  0.00  0.00    +0.000 A 
ATOM      3  C   UNL     1      -6.988   0.304 125.284  0.00  0.00    +0.000 A 
ATOM      4  C   UNL     1      -7.016  -0.653 126.281  0.00  0.00    +0.000 A 
ATOM      5  S   UNL     1      -6.688  -2.216 125.716  0.00  0.00    +0.000 S 
ATOM      6  N   UNL     1      -7.212  -0.556 127.646  0.00  0.00    +0.000 N 
ATOM      7  C   UNL     1      -7.602  -1.655 128.519  0.00  0.00    +0.000 C 
ATOM      8  C   UNL     1      -6.829   0.655 128.211  0.00  0.00    +0.000 C 
ATOM      9  O   UNL     1      -6.000   0.758 129.103  0.00  0.00    +0.000 OA
ATOM     10  C   UNL     1      -7.744   1.790 127.801  0.00  0.00    +0.000 C 
ATOM     11  N   UNL     1      -7.561   2.376 126.483  0.00  0.00    +0.000 NA
ATOM     12  C   UNL     1      -7.332   1.722 125.402  0.00  0.00    +0.000 C 
ENDROOT
BRANCH  12  13
ATOM     13  C   UNL     1      -7.458   2.465 124.120  0.00  0.00    +0.000 A 
ATOM     14  C   UNL     1      -6.332   3.124 123.614  0.00  0.00    +0.000 A 
ATOM     15  C   UNL     1      -6.380   3.671 122.330  0.00  0.00    +0.000 A 
ATOM     16  C   UNL     1      -7.535   3.546 121.554  0.00  0.00    +0.000 A 
ATOM     17  C   UNL     1      -8.668   2.919 122.074  0.00  0.00    +0.000 A 
ATOM     18  C   UNL     1      -8.648   2.413 123.372  0.00  0.00    +0.000 A 
ATOM     19 CL   UNL     1     -10.112   1.704 123.969  0.00  0.00    +0.000 Cl
ENDBRANCH  12  13
BRANCH   1  21
ATOM     20  C   UNL     1      -4.686  -3.406 123.720  0.00  0.00    +0.000 C 
ATOM     21  C   UNL     1      -5.865  -2.633 123.143  0.00  0.00    +0.000 C 
ENDBRANCH   1  21
TORSDOF 2
ENDMDL
