MODEL 1
REMARK VINA RESULT:      -7.6      0.000      0.000
REMARK  Name = Clotrimazole
REMARK  4 active torsions:
REMARK  status: ('A' for Active; 'I' for Inactive)
REMARK    1  A    between atoms: C_7  and  C_8
REMARK    2  A    between atoms: C_8  and  N_9
REMARK    3  A    between atoms: C_8  and  C_14
REMARK    4  A    between atoms: C_8  and  C_20
REMARK                            x       y       z     vdW  Elec       q    Type
REMARK                         _______ _______ _______ _____ _____    ______ ____
ROOT
ATOM      1  C   UNL     1      -7.358  -1.147 125.361  0.00  0.00    +0.000 C 
ENDROOT
BRANCH   1   8
ATOM      2 CL   UNL     1      -8.852   1.314 127.322  0.00  0.00    +0.000 Cl
ATOM      3  C   UNL     1      -7.264   1.248 126.627  0.00  0.00    +0.000 A 
ATOM      4  C   UNL     1      -6.522   2.380 127.002  0.00  0.00    +0.000 A 
ATOM      5  C   UNL     1      -5.152   2.437 126.820  0.00  0.00    +0.000 A 
ATOM      6  C   UNL     1      -4.505   1.354 126.263  0.00  0.00    +0.000 A 
ATOM      7  C   UNL     1      -5.244   0.245 125.843  0.00  0.00    +0.000 A 
ATOM      8  C   UNL     1      -6.659   0.170 125.925  0.00  0.00    +0.000 A 
ENDBRANCH   1   8
BRANCH   1   9
ATOM      9  C   UNL     1      -6.261  -1.952 124.565  0.00  0.00    +0.000 A 
ATOM     10  C   UNL     1      -5.990  -1.779 123.193  0.00  0.00    +0.000 A 
ATOM     11  C   UNL     1      -5.075  -2.594 122.526  0.00  0.00    +0.000 A 
ATOM     12  C   UNL     1      -4.405  -3.600 123.212  0.00  0.00    +0.000 A 
ATOM     13  C   UNL     1      -4.644  -3.792 124.568  0.00  0.00    +0.000 A 
ATOM     14  C   UNL     1      -5.537  -2.962 125.241  0.00  0.00    +0.000 A 
ENDBRANCH   1   9
BRANCH   1  15
ATOM     15  C   UNL     1      -7.968  -2.030 126.507  0.00  0.00    +0.000 A 
ATOM     16  C   UNL     1      -8.950  -3.017 126.295  0.00  0.00    +0.000 A 
ATOM     17  C   UNL     1      -9.416  -3.810 127.342  0.00  0.00    +0.000 A 
ATOM     18  C   UNL     1      -8.890  -3.658 128.620  0.00  0.00    +0.000 A 
ATOM     19  C   UNL     1      -7.935  -2.679 128.869  0.00  0.00    +0.000 A 
ATOM     20  C   UNL     1      -7.498  -1.858 127.834  0.00  0.00    +0.000 A 
ENDBRANCH   1  15
BRANCH   1  21
ATOM     21  N   UNL     1      -8.511  -0.791 124.423  0.00  0.00    +0.000 N 
ATOM     22  C   UNL     1      -8.940   0.460 124.015  0.00  0.00    +0.000 A 
ATOM     23  C   UNL     1      -9.867   0.257 123.017  0.00  0.00    +0.000 A 
ATOM     24  N   UNL     1     -10.059  -1.066 122.806  0.00  0.00    +0.000 NA
ATOM     25  C   UNL     1      -9.228  -1.672 123.628  0.00  0.00    +0.000 A 
ENDBRANCH   1  21
TORSDOF 4
ENDMDL
MODEL 2
REMARK VINA RESULT:      -7.6      1.869      4.592
REMARK  Name = Clotrimazole
REMARK  4 active torsions:
REMARK  status: ('A' for Active; 'I' for Inactive)
REMARK    1  A    between atoms: C_7  and  C_8
REMARK    2  A    between atoms: C_8  and  N_9
REMARK    3  A    between atoms: C_8  and  C_14
REMARK    4  A    between atoms: C_8  and  C_20
REMARK                            x       y       z     vdW  Elec       q    Type
REMARK                         _______ _______ _______ _____ _____    ______ ____
ROOT
ATOM      1  C   UNL     1      -7.157  -0.724 125.765  0.00  0.00    +0.000 C 
ENDROOT
BRANCH   1   8
ATOM      2 CL   UNL     1      -8.907  -3.666 125.121  0.00  0.00    +0.000 Cl
ATOM      3  C   UNL     1      -8.520  -2.901 126.630  0.00  0.00    +0.000 A 
ATOM      4  C   UNL     1      -8.984  -3.680 127.702  0.00  0.00    +0.000 A 
ATOM      5  C   UNL     1      -8.565  -3.444 128.999  0.00  0.00    +0.000 A 
ATOM      6  C   UNL     1      -7.667  -2.423 129.238  0.00  0.00    +0.000 A 
ATOM      7  C   UNL     1      -7.241  -1.614 128.182  0.00  0.00    +0.000 A 
ATOM      8  C   UNL     1      -7.707  -1.756 126.848  0.00  0.00    +0.000 A 
ENDBRANCH   1   8
BRANCH   1   9
ATOM      9  C   UNL     1      -6.320  -1.551 124.715  0.00  0.00    +0.000 A 
ATOM     10  C   UNL     1      -6.407  -1.378 123.319  0.00  0.00    +0.000 A 
ATOM     11  C   UNL     1      -5.713  -2.211 122.441  0.00  0.00    +0.000 A 
ATOM     12  C   UNL     1      -4.912  -3.235 122.934  0.00  0.00    +0.000 A 
ATOM     13  C   UNL     1      -4.799  -3.427 124.306  0.00  0.00    +0.000 A 
ATOM     14  C   UNL     1      -5.470  -2.580 125.185  0.00  0.00    +0.000 A 
ENDBRANCH   1   9
BRANCH   1  15
ATOM     15  C   UNL     1      -8.317   0.059 125.052  0.00  0.00    +0.000 A 
ATOM     16  C   UNL     1      -9.640   0.105 125.533  0.00  0.00    +0.000 A 
ATOM     17  C   UNL     1     -10.617   0.861 124.889  0.00  0.00    +0.000 A 
ATOM     18  C   UNL     1     -10.289   1.615 123.768  0.00  0.00    +0.000 A 
ATOM     19  C   UNL     1      -8.998   1.576 123.254  0.00  0.00    +0.000 A 
ATOM     20  C   UNL     1      -8.030   0.789 123.871  0.00  0.00    +0.000 A 
ENDBRANCH   1  15
BRANCH   1  21
ATOM     21  N   UNL     1      -6.259   0.324 126.420  0.00  0.00    +0.000 N 
ATOM     22  C   UNL     1      -4.921   0.586 126.184  0.00  0.00    +0.000 A 
ATOM     23  C   UNL     1      -4.617   1.747 126.860  0.00  0.00    +0.000 A 
ATOM     24  N   UNL     1      -5.698   2.204 127.533  0.00  0.00    +0.000 NA
ATOM     25  C   UNL     1      -6.669   1.365 127.239  0.00  0.00    +0.000 A 
ENDBRANCH   1  21
TORSDOF 4
ENDMDL
MODEL 3
REMARK VINA RESULT:      -7.5      1.587      4.228
REMARK  Name = Clotrimazole
REMARK  4 active torsions:
REMARK  status: ('A' for Active; 'I' for Inactive)
REMARK    1  A    between atoms: C_7  and  C_8
REMARK    2  A    between atoms: C_8  and  N_9
REMARK    3  A    between atoms: C_8  and  C_14
REMARK    4  A    between atoms: C_8  and  C_20
REMARK                            x       y       z     vdW  Elec       q    Type
REMARK                         _______ _______ _______ _____ _____    ______ ____
ROOT
ATOM      1  C   UNL     1      -7.195   0.104 125.892  0.00  0.00    +0.000 C 
ENDROOT
BRANCH   1   8
ATOM      2 CL   UNL     1      -8.260   2.463 128.223  0.00  0.00    +0.000 Cl
ATOM      3  C   UNL     1      -7.822   0.798 128.436  0.00  0.00    +0.000 A 
ATOM      4  C   UNL     1      -7.997   0.417 129.777  0.00  0.00    +0.000 A 
ATOM      5  C   UNL     1      -7.990  -0.913 130.155  0.00  0.00    +0.000 A 
ATOM      6  C   UNL     1      -7.812  -1.883 129.190  0.00  0.00    +0.000 A 
ATOM      7  C   UNL     1      -7.589  -1.508 127.863  0.00  0.00    +0.000 A 
ATOM      8  C   UNL     1      -7.499  -0.158 127.435  0.00  0.00    +0.000 A 
ENDBRANCH   1   8
BRANCH   1   9
ATOM      9  C   UNL     1      -6.103   1.240 125.818  0.00  0.00    +0.000 A 
ATOM     10  C   UNL     1      -4.928   1.261 126.595  0.00  0.00    +0.000 A 
ATOM     11  C   UNL     1      -4.051   2.345 126.553  0.00  0.00    +0.000 A 
ATOM     12  C   UNL     1      -4.324   3.434 125.734  0.00  0.00    +0.000 A 
ATOM     13  C   UNL     1      -5.471   3.441 124.949  0.00  0.00    +0.000 A 
ATOM     14  C   UNL     1      -6.334   2.347 124.969  0.00  0.00    +0.000 A 
ENDBRANCH   1   9
BRANCH   1  15
ATOM     15  C   UNL     1      -6.695  -1.191 125.160  0.00  0.00    +0.000 A 
ATOM     16  C   UNL     1      -5.355  -1.407 124.782  0.00  0.00    +0.000 A 
ATOM     17  C   UNL     1      -4.957  -2.600 124.183  0.00  0.00    +0.000 A 
ATOM     18  C   UNL     1      -5.880  -3.618 123.974  0.00  0.00    +0.000 A 
ATOM     19  C   UNL     1      -7.215  -3.431 124.314  0.00  0.00    +0.000 A 
ATOM     20  C   UNL     1      -7.623  -2.224 124.876  0.00  0.00    +0.000 A 
ENDBRANCH   1  15
BRANCH   1  21
ATOM     21  N   UNL     1      -8.456   0.562 125.160  0.00  0.00    +0.000 N 
ATOM     22  C   UNL     1      -8.616   0.865 123.819  0.00  0.00    +0.000 A 
ATOM     23  C   UNL     1      -9.967   1.022 123.604  0.00  0.00    +0.000 A 
ATOM     24  N   UNL     1     -10.655   0.863 124.758  0.00  0.00    +0.000 NA
ATOM     25  C   UNL     1      -9.748   0.563 125.663  0.00  0.00    +0.000 A 
ENDBRANCH   1  21
TORSDOF 4
ENDMDL
MODEL 4
REMARK VINA RESULT:      -7.4      1.807      5.172
REMARK  Name = Clotrimazole
REMARK  4 active torsions:
REMARK  status: ('A' for Active; 'I' for Inactive)
REMARK    1  A    between atoms: C_7  and  C_8
REMARK    2  A    between atoms: C_8  and  N_9
REMARK    3  A    between atoms: C_8  and  C_14
REMARK    4  A    between atoms: C_8  and  C_20
REMARK                            x       y       z     vdW  Elec       q    Type
REMARK                         _______ _______ _______ _____ _____    ______ ____
ROOT
ATOM      1  C   UNL     1      -7.293   0.040 125.881  0.00  0.00    +0.000 C 
ENDROOT
BRANCH   1   8
ATOM      2 CL   UNL     1      -9.275  -2.648 124.891  0.00  0.00    +0.000 Cl
ATOM      3  C   UNL     1      -7.550  -2.469 124.888  0.00  0.00    +0.000 A 
ATOM      4  C   UNL     1      -6.944  -3.614 124.345  0.00  0.00    +0.000 A 
ATOM      5  C   UNL     1      -5.612  -3.616 123.972  0.00  0.00    +0.000 A 
ATOM      6  C   UNL     1      -4.869  -2.465 124.133  0.00  0.00    +0.000 A 
ATOM      7  C   UNL     1      -5.453  -1.339 124.717  0.00  0.00    +0.000 A 
ATOM      8  C   UNL     1      -6.789  -1.309 125.198  0.00  0.00    +0.000 A 
ENDBRANCH   1   8
BRANCH   1   9
ATOM      9  C   UNL     1      -7.618  -0.293 127.388  0.00  0.00    +0.000 A 
ATOM     10  C   UNL     1      -7.861   0.678 128.380  0.00  0.00    +0.000 A 
ATOM     11  C   UNL     1      -8.044   0.320 129.716  0.00  0.00    +0.000 A 
ATOM     12  C   UNL     1      -7.992  -1.017 130.095  0.00  0.00    +0.000 A 
ATOM     13  C   UNL     1      -7.762  -2.000 129.139  0.00  0.00    +0.000 A 
ATOM     14  C   UNL     1      -7.606  -1.646 127.801  0.00  0.00    +0.000 A 
ENDBRANCH   1   9
BRANCH   1  15
ATOM     15  C   UNL     1      -6.224   1.186 125.787  0.00  0.00    +0.000 A 
ATOM     16  C   UNL     1      -6.371   2.326 124.974  0.00  0.00    +0.000 A 
ATOM     17  C   UNL     1      -5.414   3.340 124.972  0.00  0.00    +0.000 A 
ATOM     18  C   UNL     1      -4.304   3.253 125.804  0.00  0.00    +0.000 A 
ATOM     19  C   UNL     1      -4.117   2.132 126.604  0.00  0.00    +0.000 A 
ATOM     20  C   UNL     1      -5.051   1.099 126.578  0.00  0.00    +0.000 A 
ENDBRANCH   1  15
BRANCH   1  21
ATOM     21  N   UNL     1      -8.554   0.560 125.191  0.00  0.00    +0.000 N 
ATOM     22  C   UNL     1      -8.777   0.771 123.842  0.00  0.00    +0.000 A 
ATOM     23  C   UNL     1     -10.120   1.043 123.699  0.00  0.00    +0.000 A 
ATOM     24  N   UNL     1     -10.738   1.043 124.902  0.00  0.00    +0.000 NA
ATOM     25  C   UNL     1      -9.802   0.727 125.772  0.00  0.00    +0.000 A 
ENDBRANCH   1  21
TORSDOF 4
ENDMDL
MODEL 5
REMARK VINA RESULT:      -7.3      1.811      4.818
REMARK  Name = Clotrimazole
REMARK  4 active torsions:
REMARK  status: ('A' for Active; 'I' for Inactive)
REMARK    1  A    between atoms: C_7  and  C_8
REMARK    2  A    between atoms: C_8  and  N_9
REMARK    3  A    between atoms: C_8  and  C_14
REMARK    4  A    between atoms: C_8  and  C_20
REMARK                            x       y       z     vdW  Elec       q    Type
REMARK                         _______ _______ _______ _____ _____    ______ ____
ROOT
ATOM      1  C   UNL     1      -6.633  -0.911 126.507  0.00  0.00    +0.000 C 
ENDROOT
BRANCH   1   8
ATOM      2 CL   UNL     1      -6.900   0.250 123.234  0.00  0.00    +0.000 Cl
ATOM      3  C   UNL     1      -6.326  -1.271 123.839  0.00  0.00    +0.000 A 
ATOM      4  C   UNL     1      -5.880  -2.077 122.779  0.00  0.00    +0.000 A 
ATOM      5  C   UNL     1      -5.122  -3.212 123.006  0.00  0.00    +0.000 A 
ATOM      6  C   UNL     1      -4.797  -3.552 124.303  0.00  0.00    +0.000 A 
ATOM      7  C   UNL     1      -5.279  -2.782 125.363  0.00  0.00    +0.000 A 
ATOM      8  C   UNL     1      -6.132  -1.659 125.192  0.00  0.00    +0.000 A 
ENDBRANCH   1   8
BRANCH   1   9
ATOM      9  C   UNL     1      -6.708  -1.988 127.657  0.00  0.00    +0.000 A 
ATOM     10  C   UNL     1      -7.908  -2.540 128.149  0.00  0.00    +0.000 A 
ATOM     11  C   UNL     1      -7.911  -3.415 129.235  0.00  0.00    +0.000 A 
ATOM     12  C   UNL     1      -6.717  -3.764 129.856  0.00  0.00    +0.000 A 
ATOM     13  C   UNL     1      -5.515  -3.244 129.389  0.00  0.00    +0.000 A 
ATOM     14  C   UNL     1      -5.508  -2.391 128.287  0.00  0.00    +0.000 A 
ENDBRANCH   1   9
BRANCH   1  15
ATOM     15  C   UNL     1      -5.680   0.268 126.917  0.00  0.00    +0.000 A 
ATOM     16  C   UNL     1      -4.895   0.994 126.000  0.00  0.00    +0.000 A 
ATOM     17  C   UNL     1      -4.108   2.067 126.414  0.00  0.00    +0.000 A 
ATOM     18  C   UNL     1      -4.109   2.460 127.747  0.00  0.00    +0.000 A 
ATOM     19  C   UNL     1      -4.855   1.752 128.683  0.00  0.00    +0.000 A 
ATOM     20  C   UNL     1      -5.610   0.655 128.280  0.00  0.00    +0.000 A 
ENDBRANCH   1  15
BRANCH   1  21
ATOM     21  N   UNL     1      -8.016  -0.299 126.291  0.00  0.00    +0.000 N 
ATOM     22  C   UNL     1      -8.413   1.018 126.441  0.00  0.00    +0.000 A 
ATOM     23  C   UNL     1      -9.690   1.110 125.934  0.00  0.00    +0.000 A 
ATOM     24  N   UNL     1     -10.121  -0.099 125.504  0.00  0.00    +0.000 NA
ATOM     25  C   UNL     1      -9.107  -0.916 125.697  0.00  0.00    +0.000 A 
ENDBRANCH   1  21
TORSDOF 4
ENDMDL
MODEL 6
REMARK VINA RESULT:      -7.2      1.742      5.215
REMARK  Name = Clotrimazole
REMARK  4 active torsions:
REMARK  status: ('A' for Active; 'I' for Inactive)
REMARK    1  A    between atoms: C_7  and  C_8
REMARK    2  A    between atoms: C_8  and  N_9
REMARK    3  A    between atoms: C_8  and  C_14
REMARK    4  A    between atoms: C_8  and  C_20
REMARK                            x       y       z     vdW  Elec       q    Type
REMARK                         _______ _______ _______ _____ _____    ______ ____
ROOT
ATOM      1  C   UNL     1      -7.269  -1.049 125.442  0.00  0.00    +0.000 C 
ENDROOT
BRANCH   1   8
ATOM      2 CL   UNL     1      -8.988  -2.885 123.033  0.00  0.00    +0.000 Cl
ATOM      3  C   UNL     1      -9.114  -1.209 123.464  0.00  0.00    +0.000 A 
ATOM      4  C   UNL     1     -10.119  -0.587 122.705  0.00  0.00    +0.000 A 
ATOM      5  C   UNL     1     -10.610   0.660 123.045  0.00  0.00    +0.000 A 
ATOM      6  C   UNL     1     -10.103   1.300 124.157  0.00  0.00    +0.000 A 
ATOM      7  C   UNL     1      -9.070   0.708 124.887  0.00  0.00    +0.000 A 
ATOM      8  C   UNL     1      -8.469  -0.529 124.532  0.00  0.00    +0.000 A 
ENDBRANCH   1   8
BRANCH   1   9
ATOM      9  C   UNL     1      -7.904  -1.893 126.614  0.00  0.00    +0.000 A 
ATOM     10  C   UNL     1      -7.525  -1.783 127.966  0.00  0.00    +0.000 A 
ATOM     11  C   UNL     1      -8.056  -2.629 128.940  0.00  0.00    +0.000 A 
ATOM     12  C   UNL     1      -8.982  -3.605 128.588  0.00  0.00    +0.000 A 
ATOM     13  C   UNL     1      -9.383  -3.734 127.263  0.00  0.00    +0.000 A 
ATOM     14  C   UNL     1      -8.874  -2.872 126.295  0.00  0.00    +0.000 A 
ENDBRANCH   1   9
BRANCH   1  15
ATOM     15  C   UNL     1      -6.244  -1.918 124.630  0.00  0.00    +0.000 A 
ATOM     16  C   UNL     1      -5.533  -3.004 125.178  0.00  0.00    +0.000 A 
ATOM     17  C   UNL     1      -4.676  -3.775 124.395  0.00  0.00    +0.000 A 
ATOM     18  C   UNL     1      -4.531  -3.500 123.040  0.00  0.00    +0.000 A 
ATOM     19  C   UNL     1      -5.201  -2.422 122.472  0.00  0.00    +0.000 A 
ATOM     20  C   UNL     1      -6.026  -1.626 123.260  0.00  0.00    +0.000 A 
ENDBRANCH   1  15
BRANCH   1  21
ATOM     21  N   UNL     1      -6.482   0.123 126.027  0.00  0.00    +0.000 N 
ATOM     22  C   UNL     1      -6.924   1.125 126.874  0.00  0.00    +0.000 A 
ATOM     23  C   UNL     1      -5.808   1.819 127.285  0.00  0.00    +0.000 A 
ATOM     24  N   UNL     1      -4.693   1.316 126.707  0.00  0.00    +0.000 NA
ATOM     25  C   UNL     1      -5.107   0.294 125.988  0.00  0.00    +0.000 A 
ENDBRANCH   1  21
TORSDOF 4
ENDMDL
MODEL 7
REMARK VINA RESULT:      -7.2      3.048      6.022
REMARK  Name = Clotrimazole
REMARK  4 active torsions:
REMARK  status: ('A' for Active; 'I' for Inactive)
REMARK    1  A    between atoms: C_7  and  C_8
REMARK    2  A    between atoms: C_8  and  N_9
REMARK    3  A    between atoms: C_8  and  C_14
REMARK    4  A    between atoms: C_8  and  C_20
REMARK                            x       y       z     vdW  Elec       q    Type
REMARK                         _______ _______ _______ _____ _____    ______ ____
ROOT
ATOM      1  C   UNL     1      -6.081   2.738 126.118  0.00  0.00    +0.000 C 
ENDROOT
BRANCH   1   8
ATOM      2 CL   UNL     1      -9.113   2.158 124.505  0.00  0.00    +0.000 Cl
ATOM      3  C   UNL     1      -7.593   2.700 123.869  0.00  0.00    +0.000 A 
ATOM      4  C   UNL     1      -7.708   2.964 122.494  0.00  0.00    +0.000 A 
ATOM      5  C   UNL     1      -6.733   3.669 121.811  0.00  0.00    +0.000 A 
ATOM      6  C   UNL     1      -5.628   4.124 122.501  0.00  0.00    +0.000 A 
ATOM      7  C   UNL     1      -5.485   3.822 123.857  0.00  0.00    +0.000 A 
ATOM      8  C   UNL     1      -6.411   3.029 124.586  0.00  0.00    +0.000 A 
ENDBRANCH   1   8
BRANCH   1   9
ATOM      9  C   UNL     1      -6.048   1.171 126.298  0.00  0.00    +0.000 A 
ATOM     10  C   UNL     1      -5.906   0.519 127.539  0.00  0.00    +0.000 A 
ATOM     11  C   UNL     1      -5.784  -0.869 127.618  0.00  0.00    +0.000 A 
ATOM     12  C   UNL     1      -5.804  -1.640 126.462  0.00  0.00    +0.000 A 
ATOM     13  C   UNL     1      -5.951  -1.027 125.222  0.00  0.00    +0.000 A 
ATOM     14  C   UNL     1      -6.100   0.356 125.143  0.00  0.00    +0.000 A 
ENDBRANCH   1   9
BRANCH   1  15
ATOM     15  C   UNL     1      -4.715   3.373 126.560  0.00  0.00    +0.000 A 
ATOM     16  C   UNL     1      -4.594   4.667 127.104  0.00  0.00    +0.000 A 
ATOM     17  C   UNL     1      -3.362   5.159 127.530  0.00  0.00    +0.000 A 
ATOM     18  C   UNL     1      -2.227   4.360 127.453  0.00  0.00    +0.000 A 
ATOM     19  C   UNL     1      -2.306   3.086 126.903  0.00  0.00    +0.000 A 
ATOM     20  C   UNL     1      -3.528   2.607 126.438  0.00  0.00    +0.000 A 
ENDBRANCH   1  15
BRANCH   1  21
ATOM     21  N   UNL     1      -7.155   3.332 127.028  0.00  0.00    +0.000 N 
ATOM     22  C   UNL     1      -7.472   2.989 128.331  0.00  0.00    +0.000 A 
ATOM     23  C   UNL     1      -8.358   3.939 128.789  0.00  0.00    +0.000 A 
ATOM     24  N   UNL     1      -8.633   4.842 127.819  0.00  0.00    +0.000 NA
ATOM     25  C   UNL     1      -7.891   4.484 126.792  0.00  0.00    +0.000 A 
ENDBRANCH   1  21
TORSDOF 4
ENDMDL
MODEL 8
REMARK VINA RESULT:      -7.0      4.049      7.085
REMARK  Name = Clotrimazole
REMARK  4 active torsions:
REMARK  status: ('A' for Active; 'I' for Inactive)
REMARK    1  A    between atoms: C_7  and  C_8
REMARK    2  A    between atoms: C_8  and  N_9
REMARK    3  A    between atoms: C_8  and  C_14
REMARK    4  A    between atoms: C_8  and  C_20
REMARK                            x       y       z     vdW  Elec       q    Type
REMARK                         _______ _______ _______ _____ _____    ______ ____
ROOT
ATOM      1  C   UNL     1      -6.246  -2.156 130.393  0.00  0.00    +0.000 C 
ENDROOT
BRANCH   1   8
ATOM      2 CL   UNL     1      -5.620  -1.571 127.017  0.00  0.00    +0.000 Cl
ATOM      3  C   UNL     1      -6.995  -2.291 127.792  0.00  0.00    +0.000 A 
ATOM      4  C   UNL     1      -7.928  -2.714 126.831  0.00  0.00    +0.000 A 
ATOM      5  C   UNL     1      -8.969  -3.562 127.161  0.00  0.00    +0.000 A 
ATOM      6  C   UNL     1      -9.086  -4.004 128.463  0.00  0.00    +0.000 A 
ATOM      7  C   UNL     1      -8.190  -3.548 129.433  0.00  0.00    +0.000 A 
ATOM      8  C   UNL     1      -7.158  -2.610 129.167  0.00  0.00    +0.000 A 
ENDBRANCH   1   8
BRANCH   1   9
ATOM      9  C   UNL     1      -6.362  -0.587 130.504  0.00  0.00    +0.000 A 
ATOM     10  C   UNL     1      -5.568   0.208 131.355  0.00  0.00    +0.000 A 
ATOM     11  C   UNL     1      -5.789   1.580 131.478  0.00  0.00    +0.000 A 
ATOM     12  C   UNL     1      -6.804   2.193 130.754  0.00  0.00    +0.000 A 
ATOM     13  C   UNL     1      -7.600   1.439 129.900  0.00  0.00    +0.000 A 
ATOM     14  C   UNL     1      -7.364   0.073 129.755  0.00  0.00    +0.000 A 
ENDBRANCH   1   9
BRANCH   1  15
ATOM     15  C   UNL     1      -6.682  -2.837 131.739  0.00  0.00    +0.000 A 
ATOM     16  C   UNL     1      -6.054  -3.977 132.277  0.00  0.00    +0.000 A 
ATOM     17  C   UNL     1      -6.447  -4.508 133.504  0.00  0.00    +0.000 A 
ATOM     18  C   UNL     1      -7.456  -3.895 134.238  0.00  0.00    +0.000 A 
ATOM     19  C   UNL     1      -8.112  -2.781 133.727  0.00  0.00    +0.000 A 
ATOM     20  C   UNL     1      -7.749  -2.273 132.482  0.00  0.00    +0.000 A 
ENDBRANCH   1  15
BRANCH   1  21
ATOM     21  N   UNL     1      -4.787  -2.544 130.159  0.00  0.00    +0.000 N 
ATOM     22  C   UNL     1      -4.281  -3.641 129.483  0.00  0.00    +0.000 A 
ATOM     23  C   UNL     1      -2.923  -3.443 129.363  0.00  0.00    +0.000 A 
ATOM     24  N   UNL     1      -2.555  -2.287 129.962  0.00  0.00    +0.000 NA
ATOM     25  C   UNL     1      -3.674  -1.754 130.403  0.00  0.00    +0.000 A 
ENDBRANCH   1  21
TORSDOF 4
ENDMDL
MODEL 9
REMARK VINA RESULT:      -6.9      3.205      6.140
REMARK  Name = Clotrimazole
REMARK  4 active torsions:
REMARK  status: ('A' for Active; 'I' for Inactive)
REMARK    1  A    between atoms: C_7  and  C_8
REMARK    2  A    between atoms: C_8  and  N_9
REMARK    3  A    between atoms: C_8  and  C_14
REMARK    4  A    between atoms: C_8  and  C_20
REMARK                            x       y       z     vdW  Elec       q    Type
REMARK                         _______ _______ _______ _____ _____    ______ ____
ROOT
ATOM      1  C   UNL     1      -6.627  -0.596 128.526  0.00  0.00    +0.000 C 
ENDROOT
BRANCH   1   8
ATOM      2 CL   UNL     1      -8.199  -3.571 129.428  0.00  0.00    +0.000 Cl
ATOM      3  C   UNL     1      -8.189  -2.724 127.914  0.00  0.00    +0.000 A 
ATOM      4  C   UNL     1      -9.003  -3.388 126.981  0.00  0.00    +0.000 A 
ATOM      5  C   UNL     1      -9.391  -2.781 125.801  0.00  0.00    +0.000 A 
ATOM      6  C   UNL     1      -8.971  -1.492 125.541  0.00  0.00    +0.000 A 
ATOM      7  C   UNL     1      -8.122  -0.845 126.442  0.00  0.00    +0.000 A 
ATOM      8  C   UNL     1      -7.623  -1.453 127.625  0.00  0.00    +0.000 A 
ENDBRANCH   1   8
BRANCH   1   9
ATOM      9  C   UNL     1      -7.453  -0.069 129.762  0.00  0.00    +0.000 A 
ATOM     10  C   UNL     1      -7.529  -0.729 131.005  0.00  0.00    +0.000 A 
ATOM     11  C   UNL     1      -8.357  -0.261 132.025  0.00  0.00    +0.000 A 
ATOM     12  C   UNL     1      -9.128   0.880 131.831  0.00  0.00    +0.000 A 
ATOM     13  C   UNL     1      -9.069   1.559 130.620  0.00  0.00    +0.000 A 
ATOM     14  C   UNL     1      -8.222   1.108 129.610  0.00  0.00    +0.000 A 
ENDBRANCH   1   9
BRANCH   1  15
ATOM     15  C   UNL     1      -5.392  -1.438 129.007  0.00  0.00    +0.000 A 
ATOM     16  C   UNL     1      -5.029  -2.681 128.452  0.00  0.00    +0.000 A 
ATOM     17  C   UNL     1      -3.890  -3.359 128.882  0.00  0.00    +0.000 A 
ATOM     18  C   UNL     1      -3.069  -2.798 129.853  0.00  0.00    +0.000 A 
ATOM     19  C   UNL     1      -3.408  -1.584 130.438  0.00  0.00    +0.000 A 
ATOM     20  C   UNL     1      -4.568  -0.924 130.040  0.00  0.00    +0.000 A 
ENDBRANCH   1  15
BRANCH   1  21
ATOM     21  N   UNL     1      -6.069   0.591 127.743  0.00  0.00    +0.000 N 
ATOM     22  C   UNL     1      -6.013   1.923 128.113  0.00  0.00    +0.000 A 
ATOM     23  C   UNL     1      -5.240   2.566 127.172  0.00  0.00    +0.000 A 
ATOM     24  N   UNL     1      -4.839   1.701 126.212  0.00  0.00    +0.000 NA
ATOM     25  C   UNL     1      -5.314   0.530 126.581  0.00  0.00    +0.000 A 
ENDBRANCH   1  21
TORSDOF 4
ENDMDL
