MODEL 1
REMARK VINA RESULT:      -7.9      0.000      0.000
REMARK  Name = Cloxacillin
REMARK  8 active torsions:
REMARK  status: ('A' for Active; 'I' for Inactive)
REMARK    1  A    between atoms: C_4  and  C_5
REMARK    2  A    between atoms: C_4  and  C_6
REMARK    3  A    between atoms: CA_7  and  C_28
REMARK    4  A    between atoms: CA_11  and  N_12
REMARK    5  A    between atoms: C_13  and  C_15
REMARK    6  A    between atoms: C_16  and  C_17
REMARK    7  A    between atoms: C_20  and  C_21
REMARK    8  A    between atoms: C_28  and  O_29
REMARK                            x       y       z     vdW  Elec       q    Type
REMARK                         _______ _______ _______ _____ _____    ______ ____
ROOT
ATOM      1  N   UNL     1      -7.523  -0.807 128.378  0.00  0.00    +0.000 N 
ATOM      2  C   UNL     1      -6.725  -0.691 129.500  0.00  0.00    +0.000 C 
ATOM      3  O   UNL     1      -5.772   0.081 129.535  0.00  0.00    +0.000 OA
ATOM      4  H   UNL     1      -8.362  -1.377 128.415  0.00  0.00    +0.000 HD
ENDROOT
BRANCH   1  14
ATOM      5  C   UNL     1      -6.962  -0.663 125.849  0.00  0.00    +0.000 C 
ATOM      6  S   UNL     1      -7.499  -2.397 125.652  0.00  0.00    +0.000 S 
ATOM      7  C   UNL     1      -8.365  -1.974 124.045  0.00  0.00    +0.000 C 
ATOM      8  C   UNL     1      -9.434  -3.049 123.827  0.00  0.00    +0.000 C 
ATOM      9  C   UNL     1      -7.265  -2.013 122.967  0.00  0.00    +0.000 C 
ATOM     10  CA  UNL     1      -8.981  -0.581 124.316  0.00  0.00    +0.000 C 
ATOM     11  N   UNL     1      -8.038   0.120 125.217  0.00  0.00    +0.000 N 
ATOM     12  C   UNL     1      -8.459   0.656 126.411  0.00  0.00    +0.000 C 
ATOM     13  O   UNL     1      -9.485   1.236 126.698  0.00  0.00    +0.000 OA
ATOM     14  CA  UNL     1      -7.247   0.050 127.181  0.00  0.00    +0.000 C 
BRANCH  10  15
ATOM     15  C   UNL     1      -9.388   0.315 123.119  0.00  0.00    +0.000 C 
ATOM     16  OXT UNL     1      -8.786   1.342 122.828  0.00  0.00    +0.000 OA
BRANCH  15  17
ATOM     17  O   UNL     1     -10.462  -0.022 122.377  0.00  0.00    +0.000 OA
ATOM     18  H   UNL     1     -11.157   0.623 122.174  0.00  0.00    +0.000 HD
ENDBRANCH  15  17
ENDBRANCH  10  15
ENDBRANCH   1  14
BRANCH   2  19
ATOM     19  C   UNL     1      -7.066  -1.515 130.641  0.00  0.00    +0.000 A 
ATOM     20  C   UNL     1      -6.878  -2.865 130.822  0.00  0.00    +0.000 A 
ATOM     21  C   UNL     1      -6.324  -3.955 130.002  0.00  0.00    +0.000 C 
ATOM     22  O   UNL     1      -7.264  -3.208 132.081  0.00  0.00    +0.000 OA
ATOM     23  N   UNL     1      -7.723  -2.089 132.751  0.00  0.00    +0.000 NA
ATOM     24  C   UNL     1      -7.627  -1.074 131.879  0.00  0.00    +0.000 A 
BRANCH  24  25
ATOM     25  C   UNL     1      -8.112   0.266 132.192  0.00  0.00    +0.000 A 
ATOM     26  C   UNL     1      -9.401   0.660 131.795  0.00  0.00    +0.000 A 
ATOM     27  C   UNL     1      -9.896   1.919 132.158  0.00  0.00    +0.000 A 
ATOM     28  C   UNL     1      -9.115   2.785 132.921  0.00  0.00    +0.000 A 
ATOM     29  C   UNL     1      -7.831   2.408 133.308  0.00  0.00    +0.000 A 
ATOM     30  C   UNL     1      -7.323   1.163 132.934  0.00  0.00    +0.000 A 
ATOM     31 CL   UNL     1      -5.684   0.817 133.390  0.00  0.00    +0.000 Cl
ENDBRANCH  24  25
ENDBRANCH   2  19
TORSDOF 5
ENDMDL
MODEL 2
REMARK VINA RESULT:      -7.8      3.826      5.952
REMARK  Name = Cloxacillin
REMARK  8 active torsions:
REMARK  status: ('A' for Active; 'I' for Inactive)
REMARK    1  A    between atoms: C_4  and  C_5
REMARK    2  A    between atoms: C_4  and  C_6
REMARK    3  A    between atoms: CA_7  and  C_28
REMARK    4  A    between atoms: CA_11  and  N_12
REMARK    5  A    between atoms: C_13  and  C_15
REMARK    6  A    between atoms: C_16  and  C_17
REMARK    7  A    between atoms: C_20  and  C_21
REMARK    8  A    between atoms: C_28  and  O_29
REMARK                            x       y       z     vdW  Elec       q    Type
REMARK                         _______ _______ _______ _____ _____    ______ ____
ROOT
ATOM      1  N   UNL     1      -7.555  -0.036 127.660  0.00  0.00    +0.000 N 
ATOM      2  C   UNL     1      -6.785  -1.182 127.703  0.00  0.00    +0.000 C 
ATOM      3  O   UNL     1      -5.559  -1.134 127.722  0.00  0.00    +0.000 OA
ATOM      4  H   UNL     1      -8.563  -0.103 127.748  0.00  0.00    +0.000 HD
ENDROOT
BRANCH   1  14
ATOM      5  C   UNL     1      -6.409   1.869 126.321  0.00  0.00    +0.000 C 
ATOM      6  S   UNL     1      -7.134   1.197 124.785  0.00  0.00    +0.000 S 
ATOM      7  C   UNL     1      -7.533   2.928 124.186  0.00  0.00    +0.000 C 
ATOM      8  C   UNL     1      -8.667   2.787 123.167  0.00  0.00    +0.000 C 
ATOM      9  C   UNL     1      -6.231   3.447 123.547  0.00  0.00    +0.000 C 
ATOM     10  CA  UNL     1      -7.984   3.665 125.469  0.00  0.00    +0.000 C 
ATOM     11  N   UNL     1      -7.184   3.097 126.577  0.00  0.00    +0.000 N 
ATOM     12  C   UNL     1      -7.786   2.578 127.698  0.00  0.00    +0.000 C 
ATOM     13  O   UNL     1      -8.755   2.959 128.322  0.00  0.00    +0.000 OA
ATOM     14  CA  UNL     1      -6.887   1.305 127.669  0.00  0.00    +0.000 C 
BRANCH  10  15
ATOM     15  C   UNL     1      -7.968   5.214 125.499  0.00  0.00    +0.000 C 
ATOM     16  OXT UNL     1      -8.938   5.877 125.847  0.00  0.00    +0.000 OA
BRANCH  15  17
ATOM     17  O   UNL     1      -6.860   5.871 125.104  0.00  0.00    +0.000 OA
ATOM     18  H   UNL     1      -6.034   5.817 125.609  0.00  0.00    +0.000 HD
ENDBRANCH  15  17
ENDBRANCH  10  15
ENDBRANCH   1  14
BRANCH   2  19
ATOM     19  C   UNL     1      -7.487  -2.448 127.734  0.00  0.00    +0.000 A 
ATOM     20  C   UNL     1      -7.781  -3.251 128.811  0.00  0.00    +0.000 A 
ATOM     21  C   UNL     1      -7.511  -3.187 130.257  0.00  0.00    +0.000 C 
ATOM     22  O   UNL     1      -8.536  -4.304 128.395  0.00  0.00    +0.000 OA
ATOM     23  N   UNL     1      -8.747  -4.218 127.031  0.00  0.00    +0.000 NA
ATOM     24  C   UNL     1      -8.097  -3.116 126.628  0.00  0.00    +0.000 A 
BRANCH  24  25
ATOM     25  C   UNL     1      -8.007  -2.741 125.220  0.00  0.00    +0.000 A 
ATOM     26  C   UNL     1      -9.150  -2.298 124.534  0.00  0.00    +0.000 A 
ATOM     27  C   UNL     1      -9.051  -1.869 123.204  0.00  0.00    +0.000 A 
ATOM     28  C   UNL     1      -7.817  -1.873 122.557  0.00  0.00    +0.000 A 
ATOM     29  C   UNL     1      -6.681  -2.323 123.226  0.00  0.00    +0.000 A 
ATOM     30  C   UNL     1      -6.774  -2.770 124.544  0.00  0.00    +0.000 A 
ATOM     31 CL   UNL     1      -5.322  -3.391 125.265  0.00  0.00    +0.000 Cl
ENDBRANCH  24  25
ENDBRANCH   2  19
TORSDOF 5
ENDMDL
MODEL 3
REMARK VINA RESULT:      -7.7      3.665      7.642
REMARK  Name = Cloxacillin
REMARK  8 active torsions:
REMARK  status: ('A' for Active; 'I' for Inactive)
REMARK    1  A    between atoms: C_4  and  C_5
REMARK    2  A    between atoms: C_4  and  C_6
REMARK    3  A    between atoms: CA_7  and  C_28
REMARK    4  A    between atoms: CA_11  and  N_12
REMARK    5  A    between atoms: C_13  and  C_15
REMARK    6  A    between atoms: C_16  and  C_17
REMARK    7  A    between atoms: C_20  and  C_21
REMARK    8  A    between atoms: C_28  and  O_29
REMARK                            x       y       z     vdW  Elec       q    Type
REMARK                         _______ _______ _______ _____ _____    ______ ____
ROOT
ATOM      1  N   UNL     1      -7.969   1.683 128.934  0.00  0.00    +0.000 N 
ATOM      2  C   UNL     1      -8.067   1.362 127.593  0.00  0.00    +0.000 C 
ATOM      3  O   UNL     1      -9.088   1.587 126.951  0.00  0.00    +0.000 OA
ATOM      4  H   UNL     1      -7.080   1.579 129.411  0.00  0.00    +0.000 HD
ENDROOT
BRANCH   1  14
ATOM      5  C   UNL     1      -9.042   2.501 131.150  0.00  0.00    +0.000 C 
ATOM      6  S   UNL     1      -7.409   2.383 131.960  0.00  0.00    +0.000 S 
ATOM      7  C   UNL     1      -7.711   4.000 132.861  0.00  0.00    +0.000 C 
ATOM      8  C   UNL     1      -6.334   4.558 133.229  0.00  0.00    +0.000 C 
ATOM      9  C   UNL     1      -8.544   3.625 134.101  0.00  0.00    +0.000 C 
ATOM     10  CA  UNL     1      -8.437   4.874 131.811  0.00  0.00    +0.000 C 
ATOM     11  N   UNL     1      -9.268   3.950 131.006  0.00  0.00    +0.000 N 
ATOM     12  C   UNL     1      -9.165   3.910 129.635  0.00  0.00    +0.000 C 
ATOM     13  O   UNL     1      -9.014   4.804 128.829  0.00  0.00    +0.000 OA
ATOM     14  CA  UNL     1      -9.118   2.353 129.621  0.00  0.00    +0.000 C 
BRANCH  10  15
ATOM     15  C   UNL     1      -9.256   6.102 132.282  0.00  0.00    +0.000 C 
ATOM     16  OXT UNL     1      -9.814   6.863 131.500  0.00  0.00    +0.000 OA
BRANCH  15  17
ATOM     17  O   UNL     1      -9.342   6.373 133.600  0.00  0.00    +0.000 OA
ATOM     18  H   UNL     1      -9.519   5.673 134.248  0.00  0.00    +0.000 HD
ENDBRANCH  15  17
ENDBRANCH  10  15
ENDBRANCH   1  14
BRANCH   2  19
ATOM     19  C   UNL     1      -6.909   0.755 126.974  0.00  0.00    +0.000 A 
ATOM     20  C   UNL     1      -5.831   1.359 126.371  0.00  0.00    +0.000 A 
ATOM     21  C   UNL     1      -5.439   2.753 126.101  0.00  0.00    +0.000 C 
ATOM     22  O   UNL     1      -4.928   0.408 126.004  0.00  0.00    +0.000 OA
ATOM     23  N   UNL     1      -5.401  -0.844 126.352  0.00  0.00    +0.000 NA
ATOM     24  C   UNL     1      -6.603  -0.640 126.913  0.00  0.00    +0.000 A 
BRANCH  24  25
ATOM     25  C   UNL     1      -7.463  -1.744 127.325  0.00  0.00    +0.000 A 
ATOM     26  C   UNL     1      -8.291  -2.381 126.386  0.00  0.00    +0.000 A 
ATOM     27  C   UNL     1      -9.063  -3.487 126.762  0.00  0.00    +0.000 A 
ATOM     28  C   UNL     1      -9.008  -3.966 128.070  0.00  0.00    +0.000 A 
ATOM     29  C   UNL     1      -8.199  -3.333 129.011  0.00  0.00    +0.000 A 
ATOM     30  C   UNL     1      -7.442  -2.219 128.648  0.00  0.00    +0.000 A 
ATOM     31 CL   UNL     1      -6.532  -1.446 129.909  0.00  0.00    +0.000 Cl
ENDBRANCH  24  25
ENDBRANCH   2  19
TORSDOF 5
ENDMDL
MODEL 4
REMARK VINA RESULT:      -7.7      3.873      6.362
REMARK  Name = Cloxacillin
REMARK  8 active torsions:
REMARK  status: ('A' for Active; 'I' for Inactive)
REMARK    1  A    between atoms: C_4  and  C_5
REMARK    2  A    between atoms: C_4  and  C_6
REMARK    3  A    between atoms: CA_7  and  C_28
REMARK    4  A    between atoms: CA_11  and  N_12
REMARK    5  A    between atoms: C_13  and  C_15
REMARK    6  A    between atoms: C_16  and  C_17
REMARK    7  A    between atoms: C_20  and  C_21
REMARK    8  A    between atoms: C_28  and  O_29
REMARK                            x       y       z     vdW  Elec       q    Type
REMARK                         _______ _______ _______ _____ _____    ______ ____
ROOT
ATOM      1  N   UNL     1      -7.615   1.018 127.334  0.00  0.00    +0.000 N 
ATOM      2  C   UNL     1      -7.008   2.158 127.825  0.00  0.00    +0.000 C 
ATOM      3  O   UNL     1      -5.889   2.127 128.326  0.00  0.00    +0.000 OA
ATOM      4  H   UNL     1      -8.495   1.092 126.835  0.00  0.00    +0.000 HD
ENDROOT
BRANCH   1  14
ATOM      5  C   UNL     1      -7.555  -1.501 126.716  0.00  0.00    +0.000 C 
ATOM      6  S   UNL     1      -8.863  -1.206 125.476  0.00  0.00    +0.000 S 
ATOM      7  C   UNL     1      -7.994  -2.331 124.253  0.00  0.00    +0.000 C 
ATOM      8  C   UNL     1      -8.477  -1.919 122.860  0.00  0.00    +0.000 C 
ATOM      9  C   UNL     1      -8.434  -3.758 124.629  0.00  0.00    +0.000 C 
ATOM     10  CA  UNL     1      -6.494  -2.018 124.470  0.00  0.00    +0.000 C 
ATOM     11  N   UNL     1      -6.339  -1.714 125.911  0.00  0.00    +0.000 N 
ATOM     12  C   UNL     1      -5.758  -0.542 126.333  0.00  0.00    +0.000 C 
ATOM     13  O   UNL     1      -4.810   0.073 125.892  0.00  0.00    +0.000 OA
ATOM     14  CA  UNL     1      -6.883  -0.288 127.380  0.00  0.00    +0.000 C 
BRANCH  10  15
ATOM     15  C   UNL     1      -5.430  -3.038 123.992  0.00  0.00    +0.000 C 
ATOM     16  OXT UNL     1      -4.891  -3.834 124.751  0.00  0.00    +0.000 OA
BRANCH  15  17
ATOM     17  O   UNL     1      -5.052  -3.040 122.698  0.00  0.00    +0.000 OA
ATOM     18  H   UNL     1      -4.358  -3.635 122.376  0.00  0.00    +0.000 HD
ENDBRANCH  15  17
ENDBRANCH  10  15
ENDBRANCH   1  14
BRANCH   2  19
ATOM     19  C   UNL     1      -7.747   3.398 127.715  0.00  0.00    +0.000 A 
ATOM     20  C   UNL     1      -8.367   4.129 128.702  0.00  0.00    +0.000 A 
ATOM     21  C   UNL     1      -8.549   3.966 130.155  0.00  0.00    +0.000 C 
ATOM     22  O   UNL     1      -8.865   5.277 128.167  0.00  0.00    +0.000 OA
ATOM     23  N   UNL     1      -8.590   5.319 126.812  0.00  0.00    +0.000 NA
ATOM     24  C   UNL     1      -7.939   4.179 126.534  0.00  0.00    +0.000 A 
BRANCH  24  25
ATOM     25  C   UNL     1      -7.563   3.815 125.173  0.00  0.00    +0.000 A 
ATOM     26  C   UNL     1      -8.517   3.263 124.301  0.00  0.00    +0.000 A 
ATOM     27  C   UNL     1      -8.177   2.980 122.973  0.00  0.00    +0.000 A 
ATOM     28  C   UNL     1      -6.892   3.250 122.505  0.00  0.00    +0.000 A 
ATOM     29  C   UNL     1      -5.936   3.784 123.366  0.00  0.00    +0.000 A 
ATOM     30  C   UNL     1      -6.261   4.051 124.696  0.00  0.00    +0.000 A 
ATOM     31 CL   UNL     1      -4.980   4.636 125.713  0.00  0.00    +0.000 Cl
ENDBRANCH  24  25
ENDBRANCH   2  19
TORSDOF 5
ENDMDL
MODEL 5
REMARK VINA RESULT:      -7.6      3.759      7.369
REMARK  Name = Cloxacillin
REMARK  8 active torsions:
REMARK  status: ('A' for Active; 'I' for Inactive)
REMARK    1  A    between atoms: C_4  and  C_5
REMARK    2  A    between atoms: C_4  and  C_6
REMARK    3  A    between atoms: CA_7  and  C_28
REMARK    4  A    between atoms: CA_11  and  N_12
REMARK    5  A    between atoms: C_13  and  C_15
REMARK    6  A    between atoms: C_16  and  C_17
REMARK    7  A    between atoms: C_20  and  C_21
REMARK    8  A    between atoms: C_28  and  O_29
REMARK                            x       y       z     vdW  Elec       q    Type
REMARK                         _______ _______ _______ _____ _____    ______ ____
ROOT
ATOM      1  N   UNL     1      -7.471   0.650 130.485  0.00  0.00    +0.000 N 
ATOM      2  C   UNL     1      -7.185  -0.654 130.843  0.00  0.00    +0.000 C 
ATOM      3  O   UNL     1      -7.929  -1.298 131.575  0.00  0.00    +0.000 OA
ATOM      4  H   UNL     1      -6.892   1.121 129.799  0.00  0.00    +0.000 HD
ENDROOT
BRANCH   1  14
ATOM      5  C   UNL     1      -8.667   2.074 132.295  0.00  0.00    +0.000 C 
ATOM      6  S   UNL     1      -7.038   2.644 132.893  0.00  0.00    +0.000 S 
ATOM      7  C   UNL     1      -7.696   4.388 133.099  0.00  0.00    +0.000 C 
ATOM      8  C   UNL     1      -6.482   5.320 133.055  0.00  0.00    +0.000 C 
ATOM      9  C   UNL     1      -8.395   4.399 134.472  0.00  0.00    +0.000 C 
ATOM     10  CA  UNL     1      -8.625   4.575 131.877  0.00  0.00    +0.000 C 
ATOM     11  N   UNL     1      -9.230   3.251 131.609  0.00  0.00    +0.000 N 
ATOM     12  C   UNL     1      -9.144   2.667 130.367  0.00  0.00    +0.000 C 
ATOM     13  O   UNL     1      -9.222   3.155 129.259  0.00  0.00    +0.000 OA
ATOM     14  CA  UNL     1      -8.733   1.291 130.973  0.00  0.00    +0.000 C 
BRANCH  10  15
ATOM     15  C   UNL     1      -9.701   5.690 131.907  0.00  0.00    +0.000 C 
ATOM     16  OXT UNL     1      -9.457   6.851 131.600  0.00  0.00    +0.000 OA
BRANCH  15  17
ATOM     17  O   UNL     1     -10.952   5.390 132.311  0.00  0.00    +0.000 OA
ATOM     18  H   UNL     1     -11.688   5.347 131.682  0.00  0.00    +0.000 HD
ENDBRANCH  15  17
ENDBRANCH  10  15
ENDBRANCH   1  14
BRANCH   2  19
ATOM     19  C   UNL     1      -5.972  -1.234 130.307  0.00  0.00    +0.000 A 
ATOM     20  C   UNL     1      -4.673  -1.070 130.729  0.00  0.00    +0.000 A 
ATOM     21  C   UNL     1      -4.017  -0.289 131.791  0.00  0.00    +0.000 C 
ATOM     22  O   UNL     1      -3.856  -1.874 129.995  0.00  0.00    +0.000 OA
ATOM     23  N   UNL     1      -4.603  -2.577 129.068  0.00  0.00    +0.000 NA
ATOM     24  C   UNL     1      -5.872  -2.176 129.238  0.00  0.00    +0.000 A 
BRANCH  24  25
ATOM     25  C   UNL     1      -6.951  -2.630 128.367  0.00  0.00    +0.000 A 
ATOM     26  C   UNL     1      -7.892  -3.562 128.837  0.00  0.00    +0.000 A 
ATOM     27  C   UNL     1      -8.969  -3.944 128.028  0.00  0.00    +0.000 A 
ATOM     28  C   UNL     1      -9.119  -3.396 126.756  0.00  0.00    +0.000 A 
ATOM     29  C   UNL     1      -8.184  -2.481 126.277  0.00  0.00    +0.000 A 
ATOM     30  C   UNL     1      -7.096  -2.110 127.068  0.00  0.00    +0.000 A 
ATOM     31 CL   UNL     1      -5.939  -1.030 126.354  0.00  0.00    +0.000 Cl
ENDBRANCH  24  25
ENDBRANCH   2  19
TORSDOF 5
ENDMDL
MODEL 6
REMARK VINA RESULT:      -7.4      1.478      3.459
REMARK  Name = Cloxacillin
REMARK  8 active torsions:
REMARK  status: ('A' for Active; 'I' for Inactive)
REMARK    1  A    between atoms: C_4  and  C_5
REMARK    2  A    between atoms: C_4  and  C_6
REMARK    3  A    between atoms: CA_7  and  C_28
REMARK    4  A    between atoms: CA_11  and  N_12
REMARK    5  A    between atoms: C_13  and  C_15
REMARK    6  A    between atoms: C_16  and  C_17
REMARK    7  A    between atoms: C_20  and  C_21
REMARK    8  A    between atoms: C_28  and  O_29
REMARK                            x       y       z     vdW  Elec       q    Type
REMARK                         _______ _______ _______ _____ _____    ______ ____
ROOT
ATOM      1  N   UNL     1      -7.352  -0.267 128.454  0.00  0.00    +0.000 N 
ATOM      2  C   UNL     1      -7.124   0.412 129.635  0.00  0.00    +0.000 C 
ATOM      3  O   UNL     1      -6.732   1.575 129.644  0.00  0.00    +0.000 OA
ATOM      4  H   UNL     1      -7.772  -1.190 128.478  0.00  0.00    +0.000 HD
ENDROOT
BRANCH   1  14
ATOM      5  C   UNL     1      -6.860  -0.436 125.912  0.00  0.00    +0.000 C 
ATOM      6  S   UNL     1      -7.312  -2.205 125.964  0.00  0.00    +0.000 S 
ATOM      7  C   UNL     1      -8.238  -2.043 124.342  0.00  0.00    +0.000 C 
ATOM      8  C   UNL     1      -9.254  -3.187 124.302  0.00  0.00    +0.000 C 
ATOM      9  C   UNL     1      -7.164  -2.174 123.245  0.00  0.00    +0.000 C 
ATOM     10  CA  UNL     1      -8.918  -0.657 124.445  0.00  0.00    +0.000 C 
ATOM     11  N   UNL     1      -7.991   0.203 125.215  0.00  0.00    +0.000 N 
ATOM     12  C   UNL     1      -8.410   0.872 126.341  0.00  0.00    +0.000 C 
ATOM     13  O   UNL     1      -9.457   1.436 126.580  0.00  0.00    +0.000 OA
ATOM     14  CA  UNL     1      -7.150   0.434 127.146  0.00  0.00    +0.000 C 
BRANCH  10  15
ATOM     15  C   UNL     1      -9.400   0.049 123.153  0.00  0.00    +0.000 C 
ATOM     16  OXT UNL     1     -10.228  -0.448 122.399  0.00  0.00    +0.000 OA
BRANCH  15  17
ATOM     17  O   UNL     1      -8.876   1.246 122.820  0.00  0.00    +0.000 OA
ATOM     18  H   UNL     1      -8.323   1.744 123.440  0.00  0.00    +0.000 HD
ENDBRANCH  15  17
ENDBRANCH  10  15
ENDBRANCH   1  14
BRANCH   2  19
ATOM     19  C   UNL     1      -7.376  -0.304 130.868  0.00  0.00    +0.000 A 
ATOM     20  C   UNL     1      -8.366  -0.103 131.801  0.00  0.00    +0.000 A 
ATOM     21  C   UNL     1      -9.476   0.853 131.947  0.00  0.00    +0.000 C 
ATOM     22  O   UNL     1      -8.283  -1.066 132.760  0.00  0.00    +0.000 OA
ATOM     23  N   UNL     1      -7.229  -1.916 132.479  0.00  0.00    +0.000 NA
ATOM     24  C   UNL     1      -6.667  -1.445 131.355  0.00  0.00    +0.000 A 
BRANCH  24  25
ATOM     25  C   UNL     1      -5.453  -2.028 130.794  0.00  0.00    +0.000 A 
ATOM     26  C   UNL     1      -5.526  -3.198 130.020  0.00  0.00    +0.000 A 
ATOM     27  C   UNL     1      -4.372  -3.718 129.420  0.00  0.00    +0.000 A 
ATOM     28  C   UNL     1      -3.147  -3.074 129.582  0.00  0.00    +0.000 A 
ATOM     29  C   UNL     1      -3.064  -1.921 130.358  0.00  0.00    +0.000 A 
ATOM     30  C   UNL     1      -4.205  -1.407 130.975  0.00  0.00    +0.000 A 
ATOM     31 CL   UNL     1      -3.986  -0.016 131.991  0.00  0.00    +0.000 Cl
ENDBRANCH  24  25
ENDBRANCH   2  19
TORSDOF 5
ENDMDL
MODEL 7
REMARK VINA RESULT:      -7.4      4.857      6.785
REMARK  Name = Cloxacillin
REMARK  8 active torsions:
REMARK  status: ('A' for Active; 'I' for Inactive)
REMARK    1  A    between atoms: C_4  and  C_5
REMARK    2  A    between atoms: C_4  and  C_6
REMARK    3  A    between atoms: CA_7  and  C_28
REMARK    4  A    between atoms: CA_11  and  N_12
REMARK    5  A    between atoms: C_13  and  C_15
REMARK    6  A    between atoms: C_16  and  C_17
REMARK    7  A    between atoms: C_20  and  C_21
REMARK    8  A    between atoms: C_28  and  O_29
REMARK                            x       y       z     vdW  Elec       q    Type
REMARK                         _______ _______ _______ _____ _____    ______ ____
ROOT
ATOM      1  N   UNL     1      -8.562   3.509 129.081  0.00  0.00    +0.000 N 
ATOM      2  C   UNL     1      -9.224   4.244 130.045  0.00  0.00    +0.000 C 
ATOM      3  O   UNL     1     -10.153   3.770 130.691  0.00  0.00    +0.000 OA
ATOM      4  H   UNL     1      -7.735   3.892 128.636  0.00  0.00    +0.000 HD
ENDROOT
BRANCH   1  14
ATOM      5  C   UNL     1      -8.573   1.468 127.479  0.00  0.00    +0.000 C 
ATOM      6  S   UNL     1      -7.233   2.246 126.511  0.00  0.00    +0.000 S 
ATOM      7  C   UNL     1      -6.364   0.594 126.337  0.00  0.00    +0.000 C 
ATOM      8  C   UNL     1      -4.890   0.903 126.061  0.00  0.00    +0.000 C 
ATOM      9  C   UNL     1      -7.051  -0.102 125.147  0.00  0.00    +0.000 C 
ATOM     10  CA  UNL     1      -6.576  -0.078 127.714  0.00  0.00    +0.000 C 
ATOM     11  N   UNL     1      -7.906   0.363 128.190  0.00  0.00    +0.000 N 
ATOM     12  C   UNL     1      -8.062   0.956 129.421  0.00  0.00    +0.000 C 
ATOM     13  O   UNL     1      -7.534   0.714 130.486  0.00  0.00    +0.000 OA
ATOM     14  CA  UNL     1      -8.959   2.086 128.833  0.00  0.00    +0.000 C 
BRANCH  10  15
ATOM     15  C   UNL     1      -6.412  -1.614 127.841  0.00  0.00    +0.000 C 
ATOM     16  OXT UNL     1      -5.349  -2.184 127.627  0.00  0.00    +0.000 OA
BRANCH  15  17
ATOM     17  O   UNL     1      -7.480  -2.367 128.173  0.00  0.00    +0.000 OA
ATOM     18  H   UNL     1      -7.382  -3.299 128.419  0.00  0.00    +0.000 HD
ENDBRANCH  15  17
ENDBRANCH  10  15
ENDBRANCH   1  14
BRANCH   2  19
ATOM     19  C   UNL     1      -8.768   5.600 130.269  0.00  0.00    +0.000 A 
ATOM     20  C   UNL     1      -7.656   6.040 130.947  0.00  0.00    +0.000 A 
ATOM     21  C   UNL     1      -6.564   5.385 131.688  0.00  0.00    +0.000 C 
ATOM     22  O   UNL     1      -7.565   7.393 130.833  0.00  0.00    +0.000 OA
ATOM     23  N   UNL     1      -8.624   7.871 130.083  0.00  0.00    +0.000 NA
ATOM     24  C   UNL     1      -9.362   6.797 129.764  0.00  0.00    +0.000 A 
BRANCH  24  25
ATOM     25  C   UNL     1     -10.629   6.912 129.050  0.00  0.00    +0.000 A 
ATOM     26  C   UNL     1     -10.639   7.130 127.662  0.00  0.00    +0.000 A 
ATOM     27  C   UNL     1     -11.852   7.169 126.963  0.00  0.00    +0.000 A 
ATOM     28  C   UNL     1     -13.056   6.985 127.640  0.00  0.00    +0.000 A 
ATOM     29  C   UNL     1     -13.057   6.781 129.019  0.00  0.00    +0.000 A 
ATOM     30  C   UNL     1     -11.853   6.761 129.725  0.00  0.00    +0.000 A 
ATOM     31 CL   UNL     1     -11.960   6.587 131.449  0.00  0.00    +0.000 Cl
ENDBRANCH  24  25
ENDBRANCH   2  19
TORSDOF 5
ENDMDL
MODEL 8
REMARK VINA RESULT:      -7.3      4.031      7.562
REMARK  Name = Cloxacillin
REMARK  8 active torsions:
REMARK  status: ('A' for Active; 'I' for Inactive)
REMARK    1  A    between atoms: C_4  and  C_5
REMARK    2  A    between atoms: C_4  and  C_6
REMARK    3  A    between atoms: CA_7  and  C_28
REMARK    4  A    between atoms: CA_11  and  N_12
REMARK    5  A    between atoms: C_13  and  C_15
REMARK    6  A    between atoms: C_16  and  C_17
REMARK    7  A    between atoms: C_20  and  C_21
REMARK    8  A    between atoms: C_28  and  O_29
REMARK                            x       y       z     vdW  Elec       q    Type
REMARK                         _______ _______ _______ _____ _____    ______ ____
ROOT
ATOM      1  N   UNL     1      -7.498   1.542 127.879  0.00  0.00    +0.000 N 
ATOM      2  C   UNL     1      -8.244   1.063 126.819  0.00  0.00    +0.000 C 
ATOM      3  O   UNL     1      -9.445   1.293 126.722  0.00  0.00    +0.000 OA
ATOM      4  H   UNL     1      -6.490   1.423 127.879  0.00  0.00    +0.000 HD
ENDROOT
BRANCH   1  14
ATOM      5  C   UNL     1      -7.362   2.672 130.211  0.00  0.00    +0.000 C 
ATOM      6  S   UNL     1      -5.548   2.461 130.184  0.00  0.00    +0.000 S 
ATOM      7  C   UNL     1      -5.311   4.177 130.900  0.00  0.00    +0.000 C 
ATOM      8  C   UNL     1      -3.897   4.621 130.515  0.00  0.00    +0.000 C 
ATOM      9  C   UNL     1      -5.480   4.010 132.422  0.00  0.00    +0.000 C 
ATOM     10  CA  UNL     1      -6.402   5.020 130.198  0.00  0.00    +0.000 C 
ATOM     11  N   UNL     1      -7.558   4.117 129.997  0.00  0.00    +0.000 N 
ATOM     12  C   UNL     1      -8.114   3.938 128.752  0.00  0.00    +0.000 C 
ATOM     13  O   UNL     1      -8.316   4.731 127.857  0.00  0.00    +0.000 OA
ATOM     14  CA  UNL     1      -8.155   2.390 128.924  0.00  0.00    +0.000 C 
BRANCH  10  15
ATOM     15  C   UNL     1      -6.842   6.366 130.827  0.00  0.00    +0.000 C 
ATOM     16  OXT UNL     1      -7.837   6.470 131.535  0.00  0.00    +0.000 OA
BRANCH  15  17
ATOM     17  O   UNL     1      -6.128   7.480 130.570  0.00  0.00    +0.000 OA
ATOM     18  H   UNL     1      -5.471   7.814 131.200  0.00  0.00    +0.000 HD
ENDBRANCH  15  17
ENDBRANCH  10  15
ENDBRANCH   1  14
BRANCH   2  19
ATOM     19  C   UNL     1      -7.545   0.284 125.819  0.00  0.00    +0.000 A 
ATOM     20  C   UNL     1      -7.149   0.651 124.554  0.00  0.00    +0.000 A 
ATOM     21  C   UNL     1      -7.275   1.873 123.741  0.00  0.00    +0.000 C 
ATOM     22  O   UNL     1      -6.441  -0.365 123.991  0.00  0.00    +0.000 OA
ATOM     23  N   UNL     1      -6.365  -1.427 124.873  0.00  0.00    +0.000 NA
ATOM     24  C   UNL     1      -7.049  -1.048 125.964  0.00  0.00    +0.000 A 
BRANCH  24  25
ATOM     25  C   UNL     1      -7.277  -1.950 127.088  0.00  0.00    +0.000 A 
ATOM     26  C   UNL     1      -6.373  -1.979 128.163  0.00  0.00    +0.000 A 
ATOM     27  C   UNL     1      -6.627  -2.790 129.276  0.00  0.00    +0.000 A 
ATOM     28  C   UNL     1      -7.782  -3.568 129.326  0.00  0.00    +0.000 A 
ATOM     29  C   UNL     1      -8.677  -3.556 128.258  0.00  0.00    +0.000 A 
ATOM     30  C   UNL     1      -8.421  -2.765 127.137  0.00  0.00    +0.000 A 
ATOM     31 CL   UNL     1      -9.550  -2.881 125.823  0.00  0.00    +0.000 Cl
ENDBRANCH  24  25
ENDBRANCH   2  19
TORSDOF 5
ENDMDL
MODEL 9
REMARK VINA RESULT:      -7.3      3.268      8.101
REMARK  Name = Cloxacillin
REMARK  8 active torsions:
REMARK  status: ('A' for Active; 'I' for Inactive)
REMARK    1  A    between atoms: C_4  and  C_5
REMARK    2  A    between atoms: C_4  and  C_6
REMARK    3  A    between atoms: CA_7  and  C_28
REMARK    4  A    between atoms: CA_11  and  N_12
REMARK    5  A    between atoms: C_13  and  C_15
REMARK    6  A    between atoms: C_16  and  C_17
REMARK    7  A    between atoms: C_20  and  C_21
REMARK    8  A    between atoms: C_28  and  O_29
REMARK                            x       y       z     vdW  Elec       q    Type
REMARK                         _______ _______ _______ _____ _____    ______ ____
ROOT
ATOM      1  N   UNL     1      -7.209   0.783 127.244  0.00  0.00    +0.000 N 
ATOM      2  C   UNL     1      -8.143   1.323 126.380  0.00  0.00    +0.000 C 
ATOM      3  O   UNL     1      -9.323   1.435 126.696  0.00  0.00    +0.000 OA
ATOM      4  H   UNL     1      -6.226   0.797 126.994  0.00  0.00    +0.000 HD
ENDROOT
BRANCH   1  14
ATOM      5  C   UNL     1      -7.501  -1.141 128.960  0.00  0.00    +0.000 C 
ATOM      6  S   UNL     1      -6.375  -2.175 127.961  0.00  0.00    +0.000 S 
ATOM      7  C   UNL     1      -5.538  -2.810 129.513  0.00  0.00    +0.000 C 
ATOM      8  C   UNL     1      -4.145  -3.289 129.094  0.00  0.00    +0.000 C 
ATOM      9  C   UNL     1      -6.429  -3.963 130.014  0.00  0.00    +0.000 C 
ATOM     10  CA  UNL     1      -5.479  -1.567 130.432  0.00  0.00    +0.000 C 
ATOM     11  N   UNL     1      -6.701  -0.781 130.145  0.00  0.00    +0.000 N 
ATOM     12  C   UNL     1      -6.628   0.545 129.792  0.00  0.00    +0.000 C 
ATOM     13  O   UNL     1      -5.907   1.432 130.198  0.00  0.00    +0.000 OA
ATOM     14  CA  UNL     1      -7.631   0.352 128.615  0.00  0.00    +0.000 C 
BRANCH  10  15
ATOM     15  C   UNL     1      -5.279  -1.759 131.957  0.00  0.00    +0.000 C 
ATOM     16  OXT UNL     1      -6.193  -1.639 132.763  0.00  0.00    +0.000 OA
BRANCH  15  17
ATOM     17  O   UNL     1      -4.049  -2.043 132.430  0.00  0.00    +0.000 OA
ATOM     18  H   UNL     1      -3.324  -1.401 132.368  0.00  0.00    +0.000 HD
ENDBRANCH  15  17
ENDBRANCH  10  15
ENDBRANCH   1  14
BRANCH   2  19
ATOM     19  C   UNL     1      -7.668   1.760 125.085  0.00  0.00    +0.000 A 
ATOM     20  C   UNL     1      -7.306   3.021 124.674  0.00  0.00    +0.000 A 
ATOM     21  C   UNL     1      -7.272   4.350 125.309  0.00  0.00    +0.000 C 
ATOM     22  O   UNL     1      -6.832   2.961 123.399  0.00  0.00    +0.000 OA
ATOM     23  N   UNL     1      -6.882   1.657 122.943  0.00  0.00    +0.000 NA
ATOM     24  C   UNL     1      -7.407   0.937 123.946  0.00  0.00    +0.000 A 
BRANCH  24  25
ATOM     25  C   UNL     1      -7.708  -0.483 123.804  0.00  0.00    +0.000 A 
ATOM     26  C   UNL     1      -6.796  -1.448 124.265  0.00  0.00    +0.000 A 
ATOM     27  C   UNL     1      -7.114  -2.809 124.196  0.00  0.00    +0.000 A 
ATOM     28  C   UNL     1      -8.342  -3.216 123.676  0.00  0.00    +0.000 A 
ATOM     29  C   UNL     1      -9.248  -2.268 123.206  0.00  0.00    +0.000 A 
ATOM     30  C   UNL     1      -8.930  -0.910 123.253  0.00  0.00    +0.000 A 
ATOM     31 CL   UNL     1     -10.084   0.190 122.565  0.00  0.00    +0.000 Cl
ENDBRANCH  24  25
ENDBRANCH   2  19
TORSDOF 5
ENDMDL
