MODEL 1
REMARK VINA RESULT:      -8.5      0.000      0.000
REMARK  Name = Clozapine
REMARK  1 active torsions:
REMARK  status: ('A' for Active; 'I' for Inactive)
REMARK    1  A    between atoms: C_1  and  N_2
REMARK                            x       y       z     vdW  Elec       q    Type
REMARK                         _______ _______ _______ _____ _____    ______ ____
ROOT
ATOM      1  C   UNL     1      -3.117   4.041 128.452  0.00  0.00    +0.000 C 
ATOM      2  N   UNL     1      -4.250   3.415 127.781  0.00  0.00    +0.000 NA
ATOM      3  C   UNL     1      -3.776   2.432 126.790  0.00  0.00    +0.000 C 
ATOM      4  C   UNL     1      -4.940   1.711 126.094  0.00  0.00    +0.000 C 
ATOM      5  N   UNL     1      -5.883   2.648 125.498  0.00  0.00    +0.000 N 
ATOM      6  C   UNL     1      -6.296   3.753 126.381  0.00  0.00    +0.000 C 
ATOM      7  C   UNL     1      -5.074   4.414 127.060  0.00  0.00    +0.000 C 
ATOM      8  C   UNL     1      -6.456   2.506 124.231  0.00  0.00    +0.000 C 
ATOM      9  N   UNL     1      -6.309   3.510 123.420  0.00  0.00    +0.000 NA
ATOM     10  C   UNL     1      -6.897   3.600 122.138  0.00  0.00    +0.000 A 
ATOM     11  C   UNL     1      -6.138   4.174 121.115  0.00  0.00    +0.000 A 
ATOM     12  C   UNL     1      -6.713   4.454 119.876  0.00  0.00    +0.000 A 
ATOM     13 CL   UNL     1      -5.766   5.183 118.636  0.00  0.00    +0.000 Cl
ATOM     14  C   UNL     1      -8.054   4.164 119.638  0.00  0.00    +0.000 A 
ATOM     15  C   UNL     1      -8.822   3.579 120.647  0.00  0.00    +0.000 A 
ATOM     16  C   UNL     1      -8.258   3.312 121.909  0.00  0.00    +0.000 A 
ATOM     17  N   UNL     1      -9.004   2.608 122.877  0.00  0.00    +0.000 N 
ATOM     18  C   UNL     1      -8.539   1.375 123.373  0.00  0.00    +0.000 A 
ATOM     19  C   UNL     1      -9.296   0.210 123.150  0.00  0.00    +0.000 A 
ATOM     20  C   UNL     1      -8.798  -1.052 123.490  0.00  0.00    +0.000 A 
ATOM     21  C   UNL     1      -7.530  -1.166 124.040  0.00  0.00    +0.000 A 
ATOM     22  C   UNL     1      -6.765  -0.020 124.248  0.00  0.00    +0.000 A 
ATOM     23  C   UNL     1      -7.249   1.253 123.920  0.00  0.00    +0.000 A 
ATOM     24  H   UNL     1      -9.996   2.785 122.913  0.00  0.00    +0.000 HD
ENDROOT
TORSDOF 0
ENDMDL
MODEL 2
REMARK VINA RESULT:      -8.2      6.887      8.331
REMARK  Name = Clozapine
REMARK  1 active torsions:
REMARK  status: ('A' for Active; 'I' for Inactive)
REMARK    1  A    between atoms: C_1  and  N_2
REMARK                            x       y       z     vdW  Elec       q    Type
REMARK                         _______ _______ _______ _____ _____    ______ ____
ROOT
ATOM      1  C   UNL     1      -2.560   6.409 128.460  0.00  0.00    +0.000 C 
ATOM      2  N   UNL     1      -3.585   5.761 129.270  0.00  0.00    +0.000 NA
ATOM      3  C   UNL     1      -4.524   5.021 128.409  0.00  0.00    +0.000 C 
ATOM      4  C   UNL     1      -5.594   4.281 129.225  0.00  0.00    +0.000 C 
ATOM      5  N   UNL     1      -6.303   5.175 130.131  0.00  0.00    +0.000 N 
ATOM      6  C   UNL     1      -5.435   6.061 130.929  0.00  0.00    +0.000 C 
ATOM      7  C   UNL     1      -4.374   6.752 130.041  0.00  0.00    +0.000 C 
ATOM      8  C   UNL     1      -7.685   5.171 130.337  0.00  0.00    +0.000 C 
ATOM      9  N   UNL     1      -8.295   6.304 130.159  0.00  0.00    +0.000 NA
ATOM     10  C   UNL     1      -9.668   6.526 130.415  0.00  0.00    +0.000 A 
ATOM     11  C   UNL     1     -10.366   7.350 129.529  0.00  0.00    +0.000 A 
ATOM     12  C   UNL     1     -11.671   7.754 129.814  0.00  0.00    +0.000 A 
ATOM     13 CL   UNL     1     -12.506   8.788 128.722  0.00  0.00    +0.000 Cl
ATOM     14  C   UNL     1     -12.298   7.339 130.986  0.00  0.00    +0.000 A 
ATOM     15  C   UNL     1     -11.615   6.504 131.875  0.00  0.00    +0.000 A 
ATOM     16  C   UNL     1     -10.291   6.109 131.609  0.00  0.00    +0.000 A 
ATOM     17  N   UNL     1      -9.657   5.168 132.446  0.00  0.00    +0.000 N 
ATOM     18  C   UNL     1      -9.209   3.940 131.923  0.00  0.00    +0.000 A 
ATOM     19  C   UNL     1      -9.772   2.740 132.397  0.00  0.00    +0.000 A 
ATOM     20  C   UNL     1      -9.468   1.513 131.798  0.00  0.00    +0.000 A 
ATOM     21  C   UNL     1      -8.613   1.472 130.707  0.00  0.00    +0.000 A 
ATOM     22  C   UNL     1      -8.065   2.657 130.219  0.00  0.00    +0.000 A 
ATOM     23  C   UNL     1      -8.353   3.894 130.808  0.00  0.00    +0.000 A 
ATOM     24  H   UNL     1      -9.870   5.210 133.431  0.00  0.00    +0.000 HD
ENDROOT
TORSDOF 0
ENDMDL
MODEL 3
REMARK VINA RESULT:      -8.1      6.967      9.766
REMARK  Name = Clozapine
REMARK  1 active torsions:
REMARK  status: ('A' for Active; 'I' for Inactive)
REMARK    1  A    between atoms: C_1  and  N_2
REMARK                            x       y       z     vdW  Elec       q    Type
REMARK                         _______ _______ _______ _____ _____    ______ ____
ROOT
ATOM      1  C   UNL     1     -12.610   8.559 127.955  0.00  0.00    +0.000 C 
ATOM      2  N   UNL     1     -12.114   7.834 129.120  0.00  0.00    +0.000 NA
ATOM      3  C   UNL     1     -10.642   7.879 129.159  0.00  0.00    +0.000 C 
ATOM      4  C   UNL     1     -10.077   7.169 130.399  0.00  0.00    +0.000 C 
ATOM      5  N   UNL     1     -10.566   5.801 130.513  0.00  0.00    +0.000 N 
ATOM      6  C   UNL     1     -12.022   5.650 130.337  0.00  0.00    +0.000 C 
ATOM      7  C   UNL     1     -12.516   6.408 129.083  0.00  0.00    +0.000 C 
ATOM      8  C   UNL     1      -9.778   4.698 130.854  0.00  0.00    +0.000 C 
ATOM      9  N   UNL     1      -9.802   3.698 130.026  0.00  0.00    +0.000 NA
ATOM     10  C   UNL     1      -9.156   2.460 130.242  0.00  0.00    +0.000 A 
ATOM     11  C   UNL     1      -8.559   1.840 129.143  0.00  0.00    +0.000 A 
ATOM     12  C   UNL     1      -8.060   0.541 129.245  0.00  0.00    +0.000 A 
ATOM     13 CL   UNL     1      -7.348  -0.215 127.872  0.00  0.00    +0.000 Cl
ATOM     14  C   UNL     1      -8.148  -0.157 130.447  0.00  0.00    +0.000 A 
ATOM     15  C   UNL     1      -8.732   0.456 131.558  0.00  0.00    +0.000 A 
ATOM     16  C   UNL     1      -9.259   1.757 131.461  0.00  0.00    +0.000 A 
ATOM     17  N   UNL     1      -9.732   2.412 132.617  0.00  0.00    +0.000 N 
ATOM     18  C   UNL     1      -9.142   3.618 133.040  0.00  0.00    +0.000 A 
ATOM     19  C   UNL     1      -8.492   3.669 134.289  0.00  0.00    +0.000 A 
ATOM     20  C   UNL     1      -7.764   4.797 134.679  0.00  0.00    +0.000 A 
ATOM     21  C   UNL     1      -7.660   5.881 133.819  0.00  0.00    +0.000 A 
ATOM     22  C   UNL     1      -8.284   5.832 132.574  0.00  0.00    +0.000 A 
ATOM     23  C   UNL     1      -9.023   4.714 132.168  0.00  0.00    +0.000 A 
ATOM     24  H   UNL     1     -10.194   1.846 133.311  0.00  0.00    +0.000 HD
ENDROOT
TORSDOF 0
ENDMDL
MODEL 4
REMARK VINA RESULT:      -7.5      1.622      1.725
REMARK  Name = Clozapine
REMARK  1 active torsions:
REMARK  status: ('A' for Active; 'I' for Inactive)
REMARK    1  A    between atoms: C_1  and  N_2
REMARK                            x       y       z     vdW  Elec       q    Type
REMARK                         _______ _______ _______ _____ _____    ______ ____
ROOT
ATOM      1  C   UNL     1      -4.909   1.860 130.094  0.00  0.00    +0.000 C 
ATOM      2  N   UNL     1      -5.843   1.443 129.054  0.00  0.00    +0.000 NA
ATOM      3  C   UNL     1      -5.143   0.650 128.028  0.00  0.00    +0.000 C 
ATOM      4  C   UNL     1      -6.100   0.147 126.937  0.00  0.00    +0.000 C 
ATOM      5  N   UNL     1      -6.859   1.235 126.335  0.00  0.00    +0.000 N 
ATOM      6  C   UNL     1      -7.472   2.167 127.298  0.00  0.00    +0.000 C 
ATOM      7  C   UNL     1      -6.454   2.610 128.375  0.00  0.00    +0.000 C 
ATOM      8  C   UNL     1      -7.097   1.379 124.965  0.00  0.00    +0.000 C 
ATOM      9  N   UNL     1      -6.746   2.513 124.437  0.00  0.00    +0.000 NA
ATOM     10  C   UNL     1      -6.994   2.887 123.097  0.00  0.00    +0.000 A 
ATOM     11  C   UNL     1      -6.000   3.606 122.430  0.00  0.00    +0.000 A 
ATOM     12  C   UNL     1      -6.245   4.158 121.173  0.00  0.00    +0.000 A 
ATOM     13 CL   UNL     1      -5.015   5.062 120.378  0.00  0.00    +0.000 Cl
ATOM     14  C   UNL     1      -7.486   3.998 120.562  0.00  0.00    +0.000 A 
ATOM     15  C   UNL     1      -8.485   3.270 121.212  0.00  0.00    +0.000 A 
ATOM     16  C   UNL     1      -8.257   2.728 122.490  0.00  0.00    +0.000 A 
ATOM     17  N   UNL     1      -9.226   1.890 123.082  0.00  0.00    +0.000 N 
ATOM     18  C   UNL     1      -8.906   0.560 123.413  0.00  0.00    +0.000 A 
ATOM     19  C   UNL     1      -9.591  -0.494 122.778  0.00  0.00    +0.000 A 
ATOM     20  C   UNL     1      -9.201  -1.824 122.963  0.00  0.00    +0.000 A 
ATOM     21  C   UNL     1      -8.112  -2.117 123.769  0.00  0.00    +0.000 A 
ATOM     22  C   UNL     1      -7.415  -1.079 124.388  0.00  0.00    +0.000 A 
ATOM     23  C   UNL     1      -7.794   0.258 124.220  0.00  0.00    +0.000 A 
ATOM     24  H   UNL     1     -10.194   2.113 122.911  0.00  0.00    +0.000 HD
ENDROOT
TORSDOF 0
ENDMDL
MODEL 5
REMARK VINA RESULT:      -7.5      4.998      7.373
REMARK  Name = Clozapine
REMARK  1 active torsions:
REMARK  status: ('A' for Active; 'I' for Inactive)
REMARK    1  A    between atoms: C_1  and  N_2
REMARK                            x       y       z     vdW  Elec       q    Type
REMARK                         _______ _______ _______ _____ _____    ______ ____
ROOT
ATOM      1  C   UNL     1      -5.875   4.259 123.414  0.00  0.00    +0.000 C 
ATOM      2  N   UNL     1      -6.071   2.945 124.015  0.00  0.00    +0.000 NA
ATOM      3  C   UNL     1      -7.510   2.661 124.161  0.00  0.00    +0.000 C 
ATOM      4  C   UNL     1      -7.765   1.263 124.746  0.00  0.00    +0.000 C 
ATOM      5  N   UNL     1      -7.058   1.063 126.004  0.00  0.00    +0.000 N 
ATOM      6  C   UNL     1      -5.640   1.464 125.986  0.00  0.00    +0.000 C 
ATOM      7  C   UNL     1      -5.464   2.870 125.365  0.00  0.00    +0.000 C 
ATOM      8  C   UNL     1      -7.605   0.456 127.138  0.00  0.00    +0.000 C 
ATOM      9  N   UNL     1      -7.551   1.144 128.239  0.00  0.00    +0.000 NA
ATOM     10  C   UNL     1      -7.958   0.666 129.505  0.00  0.00    +0.000 A 
ATOM     11  C   UNL     1      -8.611   1.560 130.356  0.00  0.00    +0.000 A 
ATOM     12  C   UNL     1      -8.881   1.212 131.680  0.00  0.00    +0.000 A 
ATOM     13 CL   UNL     1      -9.666   2.337 132.720  0.00  0.00    +0.000 Cl
ATOM     14  C   UNL     1      -8.506  -0.036 132.172  0.00  0.00    +0.000 A 
ATOM     15  C   UNL     1      -7.863  -0.945 131.328  0.00  0.00    +0.000 A 
ATOM     16  C   UNL     1      -7.565  -0.596 129.998  0.00  0.00    +0.000 A 
ATOM     17  N   UNL     1      -7.031  -1.563 129.121  0.00  0.00    +0.000 N 
ATOM     18  C   UNL     1      -7.730  -1.925 127.954  0.00  0.00    +0.000 A 
ATOM     19  C   UNL     1      -8.184  -3.249 127.804  0.00  0.00    +0.000 A 
ATOM     20  C   UNL     1      -9.011  -3.613 126.736  0.00  0.00    +0.000 A 
ATOM     21  C   UNL     1      -9.410  -2.654 125.817  0.00  0.00    +0.000 A 
ATOM     22  C   UNL     1      -8.981  -1.336 125.968  0.00  0.00    +0.000 A 
ATOM     23  C   UNL     1      -8.147  -0.955 127.026  0.00  0.00    +0.000 A 
ATOM     24  H   UNL     1      -6.387  -2.233 129.511  0.00  0.00    +0.000 HD
ENDROOT
TORSDOF 0
ENDMDL
MODEL 6
REMARK VINA RESULT:      -7.3      7.144      9.154
REMARK  Name = Clozapine
REMARK  1 active torsions:
REMARK  status: ('A' for Active; 'I' for Inactive)
REMARK    1  A    between atoms: C_1  and  N_2
REMARK                            x       y       z     vdW  Elec       q    Type
REMARK                         _______ _______ _______ _____ _____    ______ ____
ROOT
ATOM      1  C   UNL     1     -12.924   9.184 129.305  0.00  0.00    +0.000 C 
ATOM      2  N   UNL     1     -12.223   7.904 129.295  0.00  0.00    +0.000 NA
ATOM      3  C   UNL     1     -11.990   7.439 130.673  0.00  0.00    +0.000 C 
ATOM      4  C   UNL     1     -11.297   6.069 130.709  0.00  0.00    +0.000 C 
ATOM      5  N   UNL     1     -10.064   6.061 129.934  0.00  0.00    +0.000 N 
ATOM      6  C   UNL     1     -10.177   6.649 128.587  0.00  0.00    +0.000 C 
ATOM      7  C   UNL     1     -10.902   8.014 128.632  0.00  0.00    +0.000 C 
ATOM      8  C   UNL     1      -8.865   5.473 130.348  0.00  0.00    +0.000 C 
ATOM      9  N   UNL     1      -7.819   6.243 130.349  0.00  0.00    +0.000 NA
ATOM     10  C   UNL     1      -6.504   5.811 130.636  0.00  0.00    +0.000 A 
ATOM     11  C   UNL     1      -5.687   6.670 131.375  0.00  0.00    +0.000 A 
ATOM     12  C   UNL     1      -4.331   6.389 131.544  0.00  0.00    +0.000 A 
ATOM     13 CL   UNL     1      -3.335   7.473 132.437  0.00  0.00    +0.000 Cl
ATOM     14  C   UNL     1      -3.771   5.245 130.980  0.00  0.00    +0.000 A 
ATOM     15  C   UNL     1      -4.580   4.371 130.250  0.00  0.00    +0.000 A 
ATOM     16  C   UNL     1      -5.944   4.655 130.054  0.00  0.00    +0.000 A 
ATOM     17  N   UNL     1      -6.776   3.706 129.424  0.00  0.00    +0.000 N 
ATOM     18  C   UNL     1      -7.880   3.165 130.110  0.00  0.00    +0.000 A 
ATOM     19  C   UNL     1      -7.916   1.784 130.382  0.00  0.00    +0.000 A 
ATOM     20  C   UNL     1      -8.915   1.233 131.190  0.00  0.00    +0.000 A 
ATOM     21  C   UNL     1      -9.879   2.056 131.753  0.00  0.00    +0.000 A 
ATOM     22  C   UNL     1      -9.841   3.427 131.505  0.00  0.00    +0.000 A 
ATOM     23  C   UNL     1      -8.853   3.997 130.693  0.00  0.00    +0.000 A 
ATOM     24  H   UNL     1      -6.372   3.161 128.679  0.00  0.00    +0.000 HD
ENDROOT
TORSDOF 0
ENDMDL
MODEL 7
REMARK VINA RESULT:      -7.3      8.185      8.838
REMARK  Name = Clozapine
REMARK  1 active torsions:
REMARK  status: ('A' for Active; 'I' for Inactive)
REMARK    1  A    between atoms: C_1  and  N_2
REMARK                            x       y       z     vdW  Elec       q    Type
REMARK                         _______ _______ _______ _____ _____    ______ ____
ROOT
ATOM      1  C   UNL     1      -2.040   6.240 133.575  0.00  0.00    +0.000 C 
ATOM      2  N   UNL     1      -3.292   5.492 133.573  0.00  0.00    +0.000 NA
ATOM      3  C   UNL     1      -3.529   4.898 132.246  0.00  0.00    +0.000 C 
ATOM      4  C   UNL     1      -4.815   4.059 132.212  0.00  0.00    +0.000 C 
ATOM      5  N   UNL     1      -5.973   4.818 132.665  0.00  0.00    +0.000 N 
ATOM      6  C   UNL     1      -5.769   5.566 133.919  0.00  0.00    +0.000 C 
ATOM      7  C   UNL     1      -4.447   6.367 133.883  0.00  0.00    +0.000 C 
ATOM      8  C   UNL     1      -7.229   4.800 132.051  0.00  0.00    +0.000 C 
ATOM      9  N   UNL     1      -7.716   5.954 131.707  0.00  0.00    +0.000 NA
ATOM     10  C   UNL     1      -9.008   6.152 131.169  0.00  0.00    +0.000 A 
ATOM     11  C   UNL     1      -9.149   7.105 130.158  0.00  0.00    +0.000 A 
ATOM     12  C   UNL     1     -10.415   7.478 129.706  0.00  0.00    +0.000 A 
ATOM     13 CL   UNL     1     -10.569   8.672 128.476  0.00  0.00    +0.000 Cl
ATOM     14  C   UNL     1     -11.558   6.902 130.254  0.00  0.00    +0.000 A 
ATOM     15  C   UNL     1     -11.431   5.938 131.256  0.00  0.00    +0.000 A 
ATOM     16  C   UNL     1     -10.161   5.571 131.737  0.00  0.00    +0.000 A 
ATOM     17  N   UNL     1     -10.037   4.509 132.657  0.00  0.00    +0.000 N 
ATOM     18  C   UNL     1      -9.284   3.366 132.325  0.00  0.00    +0.000 A 
ATOM     19  C   UNL     1      -9.926   2.116 132.240  0.00  0.00    +0.000 A 
ATOM     20  C   UNL     1      -9.249   0.988 131.767  0.00  0.00    +0.000 A 
ATOM     21  C   UNL     1      -7.930   1.098 131.355  0.00  0.00    +0.000 A 
ATOM     22  C   UNL     1      -7.291   2.336 131.418  0.00  0.00    +0.000 A 
ATOM     23  C   UNL     1      -7.950   3.475 131.895  0.00  0.00    +0.000 A 
ATOM     24  H   UNL     1     -10.767   4.408 133.345  0.00  0.00    +0.000 HD
ENDROOT
TORSDOF 0
ENDMDL
MODEL 8
REMARK VINA RESULT:      -7.2      3.245      4.063
REMARK  Name = Clozapine
REMARK  1 active torsions:
REMARK  status: ('A' for Active; 'I' for Inactive)
REMARK    1  A    between atoms: C_1  and  N_2
REMARK                            x       y       z     vdW  Elec       q    Type
REMARK                         _______ _______ _______ _____ _____    ______ ____
ROOT
ATOM      1  C   UNL     1      -4.910  -1.192 131.630  0.00  0.00    +0.000 C 
ATOM      2  N   UNL     1      -5.789  -1.424 130.489  0.00  0.00    +0.000 NA
ATOM      3  C   UNL     1      -5.001  -1.829 129.312  0.00  0.00    +0.000 C 
ATOM      4  C   UNL     1      -5.894  -2.132 128.099  0.00  0.00    +0.000 C 
ATOM      5  N   UNL     1      -6.780  -1.020 127.783  0.00  0.00    +0.000 N 
ATOM      6  C   UNL     1      -7.499  -0.456 128.939  0.00  0.00    +0.000 C 
ATOM      7  C   UNL     1      -6.539  -0.198 130.124  0.00  0.00    +0.000 C 
ATOM      8  C   UNL     1      -7.037  -0.546 126.493  0.00  0.00    +0.000 C 
ATOM      9  N   UNL     1      -6.827   0.720 126.294  0.00  0.00    +0.000 NA
ATOM     10  C   UNL     1      -7.122   1.404 125.093  0.00  0.00    +0.000 A 
ATOM     11  C   UNL     1      -6.223   2.386 124.669  0.00  0.00    +0.000 A 
ATOM     12  C   UNL     1      -6.537   3.219 123.595  0.00  0.00    +0.000 A 
ATOM     13 CL   UNL     1      -5.426   4.439 123.103  0.00  0.00    +0.000 Cl
ATOM     14  C   UNL     1      -7.751   3.083 122.927  0.00  0.00    +0.000 A 
ATOM     15  C   UNL     1      -8.653   2.096 123.332  0.00  0.00    +0.000 A 
ATOM     16  C   UNL     1      -8.358   1.265 124.428  0.00  0.00    +0.000 A 
ATOM     17  N   UNL     1      -9.217   0.194 124.750  0.00  0.00    +0.000 N 
ATOM     18  C   UNL     1      -8.738  -1.130 124.727  0.00  0.00    +0.000 A 
ATOM     19  C   UNL     1      -9.293  -2.050 123.817  0.00  0.00    +0.000 A 
ATOM     20  C   UNL     1      -8.745  -3.327 123.656  0.00  0.00    +0.000 A 
ATOM     21  C   UNL     1      -7.626  -3.693 124.389  0.00  0.00    +0.000 A 
ATOM     22  C   UNL     1      -7.059  -2.783 125.279  0.00  0.00    +0.000 A 
ATOM     23  C   UNL     1      -7.596  -1.503 125.459  0.00  0.00    +0.000 A 
ATOM     24  H   UNL     1     -10.205   0.339 124.615  0.00  0.00    +0.000 HD
ENDROOT
TORSDOF 0
ENDMDL
MODEL 9
REMARK VINA RESULT:      -7.1      4.251      5.734
REMARK  Name = Clozapine
REMARK  1 active torsions:
REMARK  status: ('A' for Active; 'I' for Inactive)
REMARK    1  A    between atoms: C_1  and  N_2
REMARK                            x       y       z     vdW  Elec       q    Type
REMARK                         _______ _______ _______ _____ _____    ______ ____
ROOT
ATOM      1  C   UNL     1      -6.816  -3.320 132.211  0.00  0.00    +0.000 C 
ATOM      2  N   UNL     1      -7.011  -2.964 130.810  0.00  0.00    +0.000 NA
ATOM      3  C   UNL     1      -5.770  -3.189 130.049  0.00  0.00    +0.000 C 
ATOM      4  C   UNL     1      -5.944  -2.873 128.556  0.00  0.00    +0.000 C 
ATOM      5  N   UNL     1      -6.459  -1.527 128.341  0.00  0.00    +0.000 N 
ATOM      6  C   UNL     1      -7.618  -1.168 129.177  0.00  0.00    +0.000 C 
ATOM      7  C   UNL     1      -7.374  -1.535 130.659  0.00  0.00    +0.000 C 
ATOM      8  C   UNL     1      -5.989  -0.640 127.368  0.00  0.00    +0.000 C 
ATOM      9  N   UNL     1      -5.609   0.528 127.791  0.00  0.00    +0.000 NA
ATOM     10  C   UNL     1      -5.201   1.592 126.955  0.00  0.00    +0.000 A 
ATOM     11  C   UNL     1      -4.139   2.387 127.391  0.00  0.00    +0.000 A 
ATOM     12  C   UNL     1      -3.799   3.555 126.707  0.00  0.00    +0.000 A 
ATOM     13 CL   UNL     1      -2.501   4.533 127.274  0.00  0.00    +0.000 Cl
ATOM     14  C   UNL     1      -4.513   3.944 125.577  0.00  0.00    +0.000 A 
ATOM     15  C   UNL     1      -5.570   3.151 125.123  0.00  0.00    +0.000 A 
ATOM     16  C   UNL     1      -5.936   1.984 125.817  0.00  0.00    +0.000 A 
ATOM     17  N   UNL     1      -6.920   1.127 125.281  0.00  0.00    +0.000 N 
ATOM     18  C   UNL     1      -6.601  -0.207 124.961  0.00  0.00    +0.000 A 
ATOM     19  C   UNL     1      -6.687  -0.636 123.623  0.00  0.00    +0.000 A 
ATOM     20  C   UNL     1      -6.234  -1.902 123.239  0.00  0.00    +0.000 A 
ATOM     21  C   UNL     1      -5.673  -2.748 124.184  0.00  0.00    +0.000 A 
ATOM     22  C   UNL     1      -5.566  -2.325 125.508  0.00  0.00    +0.000 A 
ATOM     23  C   UNL     1      -6.020  -1.064 125.913  0.00  0.00    +0.000 A 
ATOM     24  H   UNL     1      -7.689   1.557 124.792  0.00  0.00    +0.000 HD
ENDROOT
TORSDOF 0
ENDMDL
