MODEL 1
REMARK VINA RESULT:      -8.8      0.000      0.000
REMARK  Name = Cobimetinib
REMARK  5 active torsions:
REMARK  status: ('A' for Active; 'I' for Inactive)
REMARK    1  A    between atoms: O_1  and  C_2
REMARK    2  A    between atoms: C_2  and  C_25
REMARK    3  A    between atoms: C_6  and  C_8
REMARK    4  A    between atoms: C_9  and  N_10
REMARK    5  A    between atoms: N_10  and  C_11
REMARK                            x       y       z     vdW  Elec       q    Type
REMARK                         _______ _______ _______ _____ _____    ______ ____
ROOT
ATOM      1  C   UNL     1      -4.481   3.384 126.897  0.00  0.00    +0.000 A 
ATOM      2  C   UNL     1      -5.011   4.381 127.743  0.00  0.00    +0.000 A 
ATOM      3  C   UNL     1      -4.090   5.261 128.363  0.00  0.00    +0.000 A 
ATOM      4  F   UNL     1      -4.501   6.200 129.231  0.00  0.00    +0.000 F 
ATOM      5  C   UNL     1      -2.723   5.169 128.156  0.00  0.00    +0.000 A 
ATOM      6  F   UNL     1      -1.899   6.035 128.764  0.00  0.00    +0.000 F 
ATOM      7  C   UNL     1      -2.205   4.168 127.355  0.00  0.00    +0.000 A 
ATOM      8  C   UNL     1      -3.080   3.260 126.744  0.00  0.00    +0.000 A 
ENDROOT
BRANCH   1  13
ATOM      9  C   UNL     1      -7.238   3.179 123.525  0.00  0.00    +0.000 C 
ATOM     10  C   UNL     1      -6.874   1.838 124.245  0.00  0.00    +0.000 C 
ATOM     11  N   UNL     1      -5.987   2.654 125.077  0.00  0.00    +0.000 N 
ATOM     12  C   UNL     1      -5.850   3.682 124.054  0.00  0.00    +0.000 C 
ATOM     13  C   UNL     1      -5.363   2.361 126.266  0.00  0.00    +0.000 C 
ATOM     14  O   UNL     1      -5.541   1.296 126.867  0.00  0.00    +0.000 OA
BRANCH   9  15
ATOM     15  C   UNL     1      -7.412   3.103 121.984  0.00  0.00    +0.000 C 
ATOM     16  C   UNL     1      -6.180   3.756 121.316  0.00  0.00    +0.000 C 
ATOM     17  C   UNL     1      -6.321   3.859 119.802  0.00  0.00    +0.000 C 
ATOM     18  C   UNL     1      -7.639   4.526 119.430  0.00  0.00    +0.000 C 
ATOM     19  C   UNL     1      -8.812   3.838 120.121  0.00  0.00    +0.000 C 
ATOM     20  N   UNL     1      -8.638   3.817 121.569  0.00  0.00    +0.000 NA
ATOM     21  H   UNL     1      -9.462   3.418 122.014  0.00  0.00    +0.000 HD
ENDBRANCH   9  15
BRANCH   9  22
ATOM     22  O   UNL     1      -8.393   3.884 124.082  0.00  0.00    +0.000 OA
ATOM     23  H   UNL     1      -8.173   4.067 125.004  0.00  0.00    +0.000 HD
ENDBRANCH   9  22
ENDBRANCH   1  13
BRANCH   2  24
ATOM     24  N   UNL     1      -6.402   4.469 127.995  0.00  0.00    +0.000 N 
ATOM     25  H   UNL     1      -6.978   4.882 127.277  0.00  0.00    +0.000 HD
BRANCH  24  26
ATOM     26  C   UNL     1      -7.063   4.073 129.169  0.00  0.00    +0.000 A 
ATOM     27  C   UNL     1      -8.325   4.592 129.502  0.00  0.00    +0.000 A 
ATOM     28  F   UNL     1      -8.996   5.334 128.605  0.00  0.00    +0.000 F 
ATOM     29  C   UNL     1      -8.859   4.442 130.773  0.00  0.00    +0.000 A 
ATOM     30  C   UNL     1      -8.091   3.817 131.747  0.00  0.00    +0.000 A 
ATOM     31  I   UNL     1      -8.731   3.833 133.723  0.00  0.00    +0.000 I 
ATOM     32  C   UNL     1      -6.872   3.219 131.416  0.00  0.00    +0.000 A 
ATOM     33  C   UNL     1      -6.393   3.284 130.104  0.00  0.00    +0.000 A 
ENDBRANCH  24  26
ENDBRANCH   2  24
TORSDOF 5
ENDMDL
MODEL 2
REMARK VINA RESULT:      -8.7      5.289      7.356
REMARK  Name = Cobimetinib
REMARK  5 active torsions:
REMARK  status: ('A' for Active; 'I' for Inactive)
REMARK    1  A    between atoms: O_1  and  C_2
REMARK    2  A    between atoms: C_2  and  C_25
REMARK    3  A    between atoms: C_6  and  C_8
REMARK    4  A    between atoms: C_9  and  N_10
REMARK    5  A    between atoms: N_10  and  C_11
REMARK                            x       y       z     vdW  Elec       q    Type
REMARK                         _______ _______ _______ _____ _____    ______ ____
ROOT
ATOM      1  C   UNL     1      -7.803   4.627 132.983  0.00  0.00    +0.000 A 
ATOM      2  C   UNL     1      -6.647   5.308 132.547  0.00  0.00    +0.000 A 
ATOM      3  C   UNL     1      -5.800   5.851 133.544  0.00  0.00    +0.000 A 
ATOM      4  F   UNL     1      -4.711   6.567 133.218  0.00  0.00    +0.000 F 
ATOM      5  C   UNL     1      -6.072   5.724 134.897  0.00  0.00    +0.000 A 
ATOM      6  F   UNL     1      -5.229   6.251 135.796  0.00  0.00    +0.000 F 
ATOM      7  C   UNL     1      -7.224   5.088 135.319  0.00  0.00    +0.000 A 
ATOM      8  C   UNL     1      -8.103   4.560 134.363  0.00  0.00    +0.000 A 
ENDROOT
BRANCH   1  13
ATOM      9  C   UNL     1     -11.186   6.165 130.702  0.00  0.00    +0.000 C 
ATOM     10  C   UNL     1     -10.687   4.719 130.371  0.00  0.00    +0.000 C 
ATOM     11  N   UNL     1      -9.648   4.967 131.373  0.00  0.00    +0.000 N 
ATOM     12  C   UNL     1      -9.718   6.412 131.197  0.00  0.00    +0.000 C 
ATOM     13  C   UNL     1      -8.797   4.095 132.008  0.00  0.00    +0.000 C 
ATOM     14  O   UNL     1      -8.853   2.872 131.844  0.00  0.00    +0.000 OA
BRANCH   9  15
ATOM     15  C   UNL     1     -11.668   7.015 129.496  0.00  0.00    +0.000 C 
ATOM     16  C   UNL     1     -13.108   6.586 129.133  0.00  0.00    +0.000 C 
ATOM     17  C   UNL     1     -13.620   7.266 127.868  0.00  0.00    +0.000 C 
ATOM     18  C   UNL     1     -12.627   7.091 126.726  0.00  0.00    +0.000 C 
ATOM     19  C   UNL     1     -11.229   7.530 127.148  0.00  0.00    +0.000 C 
ATOM     20  N   UNL     1     -10.779   6.808 128.333  0.00  0.00    +0.000 NA
ATOM     21  H   UNL     1      -9.820   7.064 128.554  0.00  0.00    +0.000 HD
ENDBRANCH   9  15
BRANCH   9  22
ATOM     22  O   UNL     1     -12.203   6.242 131.752  0.00  0.00    +0.000 OA
ATOM     23  H   UNL     1     -12.984   6.629 131.338  0.00  0.00    +0.000 HD
ENDBRANCH   9  22
ENDBRANCH   1  13
BRANCH   2  24
ATOM     24  N   UNL     1      -6.370   5.480 131.168  0.00  0.00    +0.000 N 
ATOM     25  H   UNL     1      -7.041   6.000 130.622  0.00  0.00    +0.000 HD
BRANCH  24  26
ATOM     26  C   UNL     1      -5.269   4.962 130.467  0.00  0.00    +0.000 A 
ATOM     27  C   UNL     1      -4.333   5.813 129.855  0.00  0.00    +0.000 A 
ATOM     28  F   UNL     1      -4.381   7.134 130.093  0.00  0.00    +0.000 F 
ATOM     29  C   UNL     1      -3.417   5.336 128.930  0.00  0.00    +0.000 A 
ATOM     30  C   UNL     1      -3.477   3.998 128.562  0.00  0.00    +0.000 A 
ATOM     31  I   UNL     1      -2.323   3.317 126.976  0.00  0.00    +0.000 I 
ATOM     32  C   UNL     1      -4.342   3.118 129.220  0.00  0.00    +0.000 A 
ATOM     33  C   UNL     1      -5.188   3.590 130.228  0.00  0.00    +0.000 A 
ENDBRANCH  24  26
ENDBRANCH   2  24
TORSDOF 5
ENDMDL
MODEL 3
REMARK VINA RESULT:      -8.6      5.768      7.751
REMARK  Name = Cobimetinib
REMARK  5 active torsions:
REMARK  status: ('A' for Active; 'I' for Inactive)
REMARK    1  A    between atoms: O_1  and  C_2
REMARK    2  A    between atoms: C_2  and  C_25
REMARK    3  A    between atoms: C_6  and  C_8
REMARK    4  A    between atoms: C_9  and  N_10
REMARK    5  A    between atoms: N_10  and  C_11
REMARK                            x       y       z     vdW  Elec       q    Type
REMARK                         _______ _______ _______ _____ _____    ______ ____
ROOT
ATOM      1  C   UNL     1      -8.216   3.767 133.219  0.00  0.00    +0.000 A 
ATOM      2  C   UNL     1      -6.849   3.517 132.974  0.00  0.00    +0.000 A 
ATOM      3  C   UNL     1      -5.929   3.914 133.975  0.00  0.00    +0.000 A 
ATOM      4  F   UNL     1      -4.605   3.770 133.800  0.00  0.00    +0.000 F 
ATOM      5  C   UNL     1      -6.332   4.518 135.155  0.00  0.00    +0.000 A 
ATOM      6  F   UNL     1      -5.417   4.865 136.071  0.00  0.00    +0.000 F 
ATOM      7  C   UNL     1      -7.669   4.793 135.375  0.00  0.00    +0.000 A 
ATOM      8  C   UNL     1      -8.610   4.441 134.398  0.00  0.00    +0.000 A 
ENDROOT
BRANCH   1  13
ATOM      9  C   UNL     1     -11.203   5.971 130.931  0.00  0.00    +0.000 C 
ATOM     10  C   UNL     1     -10.946   4.478 130.538  0.00  0.00    +0.000 C 
ATOM     11  N   UNL     1      -9.917   4.496 131.580  0.00  0.00    +0.000 N 
ATOM     12  C   UNL     1      -9.733   5.938 131.478  0.00  0.00    +0.000 C 
ATOM     13  C   UNL     1      -9.250   3.461 132.190  0.00  0.00    +0.000 C 
ATOM     14  O   UNL     1      -9.508   2.274 131.959  0.00  0.00    +0.000 OA
BRANCH   9  15
ATOM     15  C   UNL     1     -11.489   6.948 129.759  0.00  0.00    +0.000 C 
ATOM     16  C   UNL     1     -12.388   8.093 130.280  0.00  0.00    +0.000 C 
ATOM     17  C   UNL     1     -12.842   9.032 129.168  0.00  0.00    +0.000 C 
ATOM     18  C   UNL     1     -13.464   8.244 128.021  0.00  0.00    +0.000 C 
ATOM     19  C   UNL     1     -12.530   7.131 127.556  0.00  0.00    +0.000 C 
ATOM     20  N   UNL     1     -12.173   6.241 128.656  0.00  0.00    +0.000 NA
ATOM     21  H   UNL     1     -11.609   5.469 128.311  0.00  0.00    +0.000 HD
ENDBRANCH   9  15
BRANCH   9  22
ATOM     22  O   UNL     1     -12.228   6.172 131.956  0.00  0.00    +0.000 OA
ATOM     23  H   UNL     1     -12.622   5.304 132.111  0.00  0.00    +0.000 HD
ENDBRANCH   9  22
ENDBRANCH   1  13
BRANCH   2  24
ATOM     24  N   UNL     1      -6.413   2.934 131.759  0.00  0.00    +0.000 N 
ATOM     25  H   UNL     1      -6.660   1.970 131.593  0.00  0.00    +0.000 HD
BRANCH  24  26
ATOM     26  C   UNL     1      -5.632   3.553 130.769  0.00  0.00    +0.000 A 
ATOM     27  C   UNL     1      -4.291   3.185 130.567  0.00  0.00    +0.000 A 
ATOM     28  F   UNL     1      -3.797   2.105 131.195  0.00  0.00    +0.000 F 
ATOM     29  C   UNL     1      -3.432   3.966 129.809  0.00  0.00    +0.000 A 
ATOM     30  C   UNL     1      -3.903   5.168 129.297  0.00  0.00    +0.000 A 
ATOM     31  I   UNL     1      -2.574   6.496 128.412  0.00  0.00    +0.000 I 
ATOM     32  C   UNL     1      -5.253   5.511 129.415  0.00  0.00    +0.000 A 
ATOM     33  C   UNL     1      -6.135   4.663 130.090  0.00  0.00    +0.000 A 
ENDBRANCH  24  26
ENDBRANCH   2  24
TORSDOF 5
ENDMDL
MODEL 4
REMARK VINA RESULT:      -8.6      6.664      7.808
REMARK  Name = Cobimetinib
REMARK  5 active torsions:
REMARK  status: ('A' for Active; 'I' for Inactive)
REMARK    1  A    between atoms: O_1  and  C_2
REMARK    2  A    between atoms: C_2  and  C_25
REMARK    3  A    between atoms: C_6  and  C_8
REMARK    4  A    between atoms: C_9  and  N_10
REMARK    5  A    between atoms: N_10  and  C_11
REMARK                            x       y       z     vdW  Elec       q    Type
REMARK                         _______ _______ _______ _____ _____    ______ ____
ROOT
ATOM      1  C   UNL     1      -5.089   6.029 132.134  0.00  0.00    +0.000 A 
ATOM      2  C   UNL     1      -4.449   6.225 133.376  0.00  0.00    +0.000 A 
ATOM      3  C   UNL     1      -3.360   7.131 133.406  0.00  0.00    +0.000 A 
ATOM      4  F   UNL     1      -2.654   7.333 134.531  0.00  0.00    +0.000 F 
ATOM      5  C   UNL     1      -2.930   7.812 132.278  0.00  0.00    +0.000 A 
ATOM      6  F   UNL     1      -1.899   8.664 132.369  0.00  0.00    +0.000 F 
ATOM      7  C   UNL     1      -3.538   7.589 131.057  0.00  0.00    +0.000 A 
ATOM      8  C   UNL     1      -4.602   6.680 130.977  0.00  0.00    +0.000 A 
ENDROOT
BRANCH   1  13
ATOM      9  C   UNL     1      -9.438   6.092 131.806  0.00  0.00    +0.000 C 
ATOM     10  C   UNL     1      -8.712   4.729 131.553  0.00  0.00    +0.000 C 
ATOM     11  N   UNL     1      -7.470   5.478 131.756  0.00  0.00    +0.000 N 
ATOM     12  C   UNL     1      -8.080   6.741 131.364  0.00  0.00    +0.000 C 
ATOM     13  C   UNL     1      -6.190   5.034 131.985  0.00  0.00    +0.000 C 
ATOM     14  O   UNL     1      -5.915   3.837 132.124  0.00  0.00    +0.000 OA
BRANCH   9  15
ATOM     15  C   UNL     1     -10.674   6.386 130.916  0.00  0.00    +0.000 C 
ATOM     16  C   UNL     1     -10.278   7.432 129.849  0.00  0.00    +0.000 C 
ATOM     17  C   UNL     1     -11.465   7.893 129.012  0.00  0.00    +0.000 C 
ATOM     18  C   UNL     1     -12.611   8.344 129.909  0.00  0.00    +0.000 C 
ATOM     19  C   UNL     1     -12.952   7.270 130.937  0.00  0.00    +0.000 C 
ATOM     20  N   UNL     1     -11.786   6.910 131.737  0.00  0.00    +0.000 NA
ATOM     21  H   UNL     1     -12.051   6.246 132.461  0.00  0.00    +0.000 HD
ENDBRANCH   9  15
BRANCH   9  22
ATOM     22  O   UNL     1      -9.806   6.345 133.200  0.00  0.00    +0.000 OA
ATOM     23  H   UNL     1      -8.977   6.493 133.671  0.00  0.00    +0.000 HD
ENDBRANCH   9  22
ENDBRANCH   1  13
BRANCH   2  24
ATOM     24  N   UNL     1      -4.849   5.512 134.532  0.00  0.00    +0.000 N 
ATOM     25  H   UNL     1      -4.550   4.552 134.612  0.00  0.00    +0.000 HD
BRANCH  24  26
ATOM     26  C   UNL     1      -5.662   5.995 135.570  0.00  0.00    +0.000 A 
ATOM     27  C   UNL     1      -7.012   5.619 135.671  0.00  0.00    +0.000 A 
ATOM     28  F   UNL     1      -7.491   4.644 134.880  0.00  0.00    +0.000 F 
ATOM     29  C   UNL     1      -7.894   6.296 136.500  0.00  0.00    +0.000 A 
ATOM     30  C   UNL     1      -7.434   7.409 137.193  0.00  0.00    +0.000 A 
ATOM     31  I   UNL     1      -8.785   8.614 138.209  0.00  0.00    +0.000 I 
ATOM     32  C   UNL     1      -6.078   7.748 137.173  0.00  0.00    +0.000 A 
ATOM     33  C   UNL     1      -5.177   6.992 136.417  0.00  0.00    +0.000 A 
ENDBRANCH  24  26
ENDBRANCH   2  24
TORSDOF 5
ENDMDL
MODEL 5
REMARK VINA RESULT:      -8.6      5.016      7.713
REMARK  Name = Cobimetinib
REMARK  5 active torsions:
REMARK  status: ('A' for Active; 'I' for Inactive)
REMARK    1  A    between atoms: O_1  and  C_2
REMARK    2  A    between atoms: C_2  and  C_25
REMARK    3  A    between atoms: C_6  and  C_8
REMARK    4  A    between atoms: C_9  and  N_10
REMARK    5  A    between atoms: N_10  and  C_11
REMARK                            x       y       z     vdW  Elec       q    Type
REMARK                         _______ _______ _______ _____ _____    ______ ____
ROOT
ATOM      1  C   UNL     1      -8.770  -0.299 125.076  0.00  0.00    +0.000 A 
ATOM      2  C   UNL     1      -8.769  -1.608 125.601  0.00  0.00    +0.000 A 
ATOM      3  C   UNL     1      -8.913  -2.675 124.681  0.00  0.00    +0.000 A 
ATOM      4  F   UNL     1      -8.983  -3.950 125.099  0.00  0.00    +0.000 F 
ATOM      5  C   UNL     1      -9.045  -2.466 123.318  0.00  0.00    +0.000 A 
ATOM      6  F   UNL     1      -9.171  -3.515 122.493  0.00  0.00    +0.000 F 
ATOM      7  C   UNL     1      -9.082  -1.180 122.811  0.00  0.00    +0.000 A 
ATOM      8  C   UNL     1      -8.970  -0.095 123.690  0.00  0.00    +0.000 A 
ENDROOT
BRANCH   1  13
ATOM      9  C   UNL     1      -5.675   2.174 126.897  0.00  0.00    +0.000 C 
ATOM     10  C   UNL     1      -7.156   2.665 127.015  0.00  0.00    +0.000 C 
ATOM     11  N   UNL     1      -7.494   1.490 126.208  0.00  0.00    +0.000 N 
ATOM     12  C   UNL     1      -6.167   1.429 125.608  0.00  0.00    +0.000 C 
ATOM     13  C   UNL     1      -8.707   0.891 125.972  0.00  0.00    +0.000 C 
ATOM     14  O   UNL     1      -9.752   1.265 126.516  0.00  0.00    +0.000 OA
BRANCH   9  15
ATOM     15  C   UNL     1      -4.602   3.278 126.698  0.00  0.00    +0.000 C 
ATOM     16  C   UNL     1      -3.214   2.681 127.024  0.00  0.00    +0.000 C 
ATOM     17  C   UNL     1      -2.106   3.728 126.995  0.00  0.00    +0.000 C 
ATOM     18  C   UNL     1      -2.473   4.923 127.866  0.00  0.00    +0.000 C 
ATOM     19  C   UNL     1      -3.851   5.463 127.496  0.00  0.00    +0.000 C 
ATOM     20  N   UNL     1      -4.872   4.424 127.591  0.00  0.00    +0.000 NA
ATOM     21  H   UNL     1      -5.791   4.821 127.410  0.00  0.00    +0.000 HD
ENDBRANCH   9  15
BRANCH   9  22
ATOM     22  O   UNL     1      -5.229   1.291 127.977  0.00  0.00    +0.000 OA
ATOM     23  H   UNL     1      -5.976   0.710 128.169  0.00  0.00    +0.000 HD
ENDBRANCH   9  22
ENDBRANCH   1  13
BRANCH   2  24
ATOM     24  N   UNL     1      -8.671  -1.842 126.995  0.00  0.00    +0.000 N 
ATOM     25  H   UNL     1      -9.439  -1.531 127.571  0.00  0.00    +0.000 HD
BRANCH  24  26
ATOM     26  C   UNL     1      -7.589  -2.431 127.669  0.00  0.00    +0.000 A 
ATOM     27  C   UNL     1      -7.792  -3.245 128.796  0.00  0.00    +0.000 A 
ATOM     28  F   UNL     1      -9.038  -3.620 129.129  0.00  0.00    +0.000 F 
ATOM     29  C   UNL     1      -6.746  -3.595 129.635  0.00  0.00    +0.000 A 
ATOM     30  C   UNL     1      -5.484  -3.070 129.381  0.00  0.00    +0.000 A 
ATOM     31  I   UNL     1      -3.965  -3.331 130.772  0.00  0.00    +0.000 I 
ATOM     32  C   UNL     1      -5.244  -2.329 128.220  0.00  0.00    +0.000 A 
ATOM     33  C   UNL     1      -6.286  -2.072 127.324  0.00  0.00    +0.000 A 
ENDBRANCH  24  26
ENDBRANCH   2  24
TORSDOF 5
ENDMDL
MODEL 6
REMARK VINA RESULT:      -8.6      6.076      7.573
REMARK  Name = Cobimetinib
REMARK  5 active torsions:
REMARK  status: ('A' for Active; 'I' for Inactive)
REMARK    1  A    between atoms: O_1  and  C_2
REMARK    2  A    between atoms: C_2  and  C_25
REMARK    3  A    between atoms: C_6  and  C_8
REMARK    4  A    between atoms: C_9  and  N_10
REMARK    5  A    between atoms: N_10  and  C_11
REMARK                            x       y       z     vdW  Elec       q    Type
REMARK                         _______ _______ _______ _____ _____    ______ ____
ROOT
ATOM      1  C   UNL     1      -8.730   2.547 132.549  0.00  0.00    +0.000 A 
ATOM      2  C   UNL     1      -7.368   2.223 132.723  0.00  0.00    +0.000 A 
ATOM      3  C   UNL     1      -6.960   0.919 132.352  0.00  0.00    +0.000 A 
ATOM      4  F   UNL     1      -5.696   0.505 132.541  0.00  0.00    +0.000 F 
ATOM      5  C   UNL     1      -7.842  -0.013 131.830  0.00  0.00    +0.000 A 
ATOM      6  F   UNL     1      -7.397  -1.231 131.488  0.00  0.00    +0.000 F 
ATOM      7  C   UNL     1      -9.182   0.296 131.694  0.00  0.00    +0.000 A 
ATOM      8  C   UNL     1      -9.633   1.567 132.075  0.00  0.00    +0.000 A 
ENDROOT
BRANCH   1  13
ATOM      9  C   UNL     1      -9.735   6.368 130.703  0.00  0.00    +0.000 C 
ATOM     10  C   UNL     1     -10.161   6.150 132.193  0.00  0.00    +0.000 C 
ATOM     11  N   UNL     1      -9.599   4.805 132.041  0.00  0.00    +0.000 N 
ATOM     12  C   UNL     1      -9.798   4.804 130.597  0.00  0.00    +0.000 C 
ATOM     13  C   UNL     1      -9.270   3.866 132.988  0.00  0.00    +0.000 C 
ATOM     14  O   UNL     1      -9.354   4.085 134.201  0.00  0.00    +0.000 OA
BRANCH   9  15
ATOM     15  C   UNL     1     -10.727   7.168 129.818  0.00  0.00    +0.000 C 
ATOM     16  C   UNL     1     -11.963   6.282 129.537  0.00  0.00    +0.000 C 
ATOM     17  C   UNL     1     -12.935   6.928 128.556  0.00  0.00    +0.000 C 
ATOM     18  C   UNL     1     -12.207   7.373 127.294  0.00  0.00    +0.000 C 
ATOM     19  C   UNL     1     -11.001   8.241 127.639  0.00  0.00    +0.000 C 
ATOM     20  N   UNL     1     -10.087   7.547 128.540  0.00  0.00    +0.000 NA
ATOM     21  H   UNL     1      -9.258   8.114 128.700  0.00  0.00    +0.000 HD
ENDBRANCH   9  15
BRANCH   9  22
ATOM     22  O   UNL     1      -8.398   6.936 130.520  0.00  0.00    +0.000 OA
ATOM     23  H   UNL     1      -7.881   6.257 130.070  0.00  0.00    +0.000 HD
ENDBRANCH   9  22
ENDBRANCH   1  13
BRANCH   2  24
ATOM     24  N   UNL     1      -6.458   3.149 133.289  0.00  0.00    +0.000 N 
ATOM     25  H   UNL     1      -6.448   3.236 134.294  0.00  0.00    +0.000 HD
BRANCH  24  26
ATOM     26  C   UNL     1      -5.586   3.998 132.587  0.00  0.00    +0.000 A 
ATOM     27  C   UNL     1      -5.834   5.377 132.493  0.00  0.00    +0.000 A 
ATOM     28  F   UNL     1      -6.811   5.928 133.233  0.00  0.00    +0.000 F 
ATOM     29  C   UNL     1      -5.161   6.175 131.580  0.00  0.00    +0.000 A 
ATOM     30  C   UNL     1      -4.269   5.572 130.702  0.00  0.00    +0.000 A 
ATOM     31  I   UNL     1      -3.466   6.679 129.138  0.00  0.00    +0.000 I 
ATOM     32  C   UNL     1      -3.945   4.219 130.834  0.00  0.00    +0.000 A 
ATOM     33  C   UNL     1      -4.552   3.447 131.829  0.00  0.00    +0.000 A 
ENDBRANCH  24  26
ENDBRANCH   2  24
TORSDOF 5
ENDMDL
MODEL 7
REMARK VINA RESULT:      -8.4      5.009      8.107
REMARK  Name = Cobimetinib
REMARK  5 active torsions:
REMARK  status: ('A' for Active; 'I' for Inactive)
REMARK    1  A    between atoms: O_1  and  C_2
REMARK    2  A    between atoms: C_2  and  C_25
REMARK    3  A    between atoms: C_6  and  C_8
REMARK    4  A    between atoms: C_9  and  N_10
REMARK    5  A    between atoms: N_10  and  C_11
REMARK                            x       y       z     vdW  Elec       q    Type
REMARK                         _______ _______ _______ _____ _____    ______ ____
ROOT
ATOM      1  C   UNL     1      -7.307  -0.919 124.996  0.00  0.00    +0.000 A 
ATOM      2  C   UNL     1      -7.350  -2.275 125.381  0.00  0.00    +0.000 A 
ATOM      3  C   UNL     1      -8.215  -3.128 124.652  0.00  0.00    +0.000 A 
ATOM      4  F   UNL     1      -8.365  -4.419 124.989  0.00  0.00    +0.000 F 
ATOM      5  C   UNL     1      -8.990  -2.671 123.598  0.00  0.00    +0.000 A 
ATOM      6  F   UNL     1      -9.785  -3.527 122.939  0.00  0.00    +0.000 F 
ATOM      7  C   UNL     1      -8.971  -1.335 123.248  0.00  0.00    +0.000 A 
ATOM      8  C   UNL     1      -8.149  -0.451 123.960  0.00  0.00    +0.000 A 
ENDROOT
BRANCH   1  13
ATOM      9  C   UNL     1      -7.997   2.160 128.006  0.00  0.00    +0.000 C 
ATOM     10  C   UNL     1      -6.512   1.797 127.669  0.00  0.00    +0.000 C 
ATOM     11  N   UNL     1      -7.079   0.793 126.766  0.00  0.00    +0.000 N 
ATOM     12  C   UNL     1      -8.321   0.704 127.523  0.00  0.00    +0.000 C 
ATOM     13  C   UNL     1      -6.490   0.072 125.755  0.00  0.00    +0.000 C 
ATOM     14  O   UNL     1      -5.316   0.245 125.409  0.00  0.00    +0.000 OA
BRANCH   9  15
ATOM     15  C   UNL     1      -8.302   2.486 129.492  0.00  0.00    +0.000 C 
ATOM     16  C   UNL     1      -8.215   1.178 130.312  0.00  0.00    +0.000 C 
ATOM     17  C   UNL     1      -8.639   1.369 131.764  0.00  0.00    +0.000 C 
ATOM     18  C   UNL     1     -10.002   2.046 131.842  0.00  0.00    +0.000 C 
ATOM     19  C   UNL     1     -10.021   3.326 131.013  0.00  0.00    +0.000 C 
ATOM     20  N   UNL     1      -9.655   3.067 129.624  0.00  0.00    +0.000 NA
ATOM     21  H   UNL     1      -9.743   3.919 129.075  0.00  0.00    +0.000 HD
ENDBRANCH   9  15
BRANCH   9  22
ATOM     22  O   UNL     1      -8.576   3.219 127.177  0.00  0.00    +0.000 OA
ATOM     23  H   UNL     1      -8.102   4.027 127.408  0.00  0.00    +0.000 HD
ENDBRANCH   9  22
ENDBRANCH   1  13
BRANCH   2  24
ATOM     24  N   UNL     1      -6.593  -2.753 126.478  0.00  0.00    +0.000 N 
ATOM     25  H   UNL     1      -5.808  -3.353 126.274  0.00  0.00    +0.000 HD
BRANCH  24  26
ATOM     26  C   UNL     1      -6.848  -2.508 127.838  0.00  0.00    +0.000 A 
ATOM     27  C   UNL     1      -5.863  -1.958 128.674  0.00  0.00    +0.000 A 
ATOM     28  F   UNL     1      -4.725  -1.486 128.138  0.00  0.00    +0.000 F 
ATOM     29  C   UNL     1      -5.990  -1.976 130.054  0.00  0.00    +0.000 A 
ATOM     30  C   UNL     1      -7.092  -2.614 130.612  0.00  0.00    +0.000 A 
ATOM     31  I   UNL     1      -7.169  -2.917 132.665  0.00  0.00    +0.000 I 
ATOM     32  C   UNL     1      -8.123  -3.092 129.799  0.00  0.00    +0.000 A 
ATOM     33  C   UNL     1      -8.033  -2.971 128.409  0.00  0.00    +0.000 A 
ENDBRANCH  24  26
ENDBRANCH   2  24
TORSDOF 5
ENDMDL
MODEL 8
REMARK VINA RESULT:      -8.2      2.893      3.961
REMARK  Name = Cobimetinib
REMARK  5 active torsions:
REMARK  status: ('A' for Active; 'I' for Inactive)
REMARK    1  A    between atoms: O_1  and  C_2
REMARK    2  A    between atoms: C_2  and  C_25
REMARK    3  A    between atoms: C_6  and  C_8
REMARK    4  A    between atoms: C_9  and  N_10
REMARK    5  A    between atoms: N_10  and  C_11
REMARK                            x       y       z     vdW  Elec       q    Type
REMARK                         _______ _______ _______ _____ _____    ______ ____
ROOT
ATOM      1  C   UNL     1      -7.167   4.264 129.398  0.00  0.00    +0.000 A 
ATOM      2  C   UNL     1      -8.060   5.009 130.197  0.00  0.00    +0.000 A 
ATOM      3  C   UNL     1      -7.500   5.989 131.052  0.00  0.00    +0.000 A 
ATOM      4  F   UNL     1      -8.269   6.702 131.891  0.00  0.00    +0.000 F 
ATOM      5  C   UNL     1      -6.136   6.229 131.112  0.00  0.00    +0.000 A 
ATOM      6  F   UNL     1      -5.663   7.176 131.934  0.00  0.00    +0.000 F 
ATOM      7  C   UNL     1      -5.262   5.472 130.354  0.00  0.00    +0.000 A 
ATOM      8  C   UNL     1      -5.773   4.473 129.515  0.00  0.00    +0.000 A 
ENDROOT
BRANCH   1  13
ATOM      9  C   UNL     1      -7.761   3.563 125.135  0.00  0.00    +0.000 C 
ATOM     10  C   UNL     1      -7.916   2.339 126.099  0.00  0.00    +0.000 C 
ATOM     11  N   UNL     1      -7.544   3.272 127.165  0.00  0.00    +0.000 N 
ATOM     12  C   UNL     1      -6.826   4.149 126.250  0.00  0.00    +0.000 C 
ATOM     13  C   UNL     1      -7.653   3.154 128.530  0.00  0.00    +0.000 C 
ATOM     14  O   UNL     1      -8.189   2.182 129.073  0.00  0.00    +0.000 OA
BRANCH   9  15
ATOM     15  C   UNL     1      -7.108   3.272 123.758  0.00  0.00    +0.000 C 
ATOM     16  C   UNL     1      -5.856   4.164 123.607  0.00  0.00    +0.000 C 
ATOM     17  C   UNL     1      -5.222   4.055 122.224  0.00  0.00    +0.000 C 
ATOM     18  C   UNL     1      -6.265   4.282 121.137  0.00  0.00    +0.000 C 
ATOM     19  C   UNL     1      -7.473   3.374 121.343  0.00  0.00    +0.000 C 
ATOM     20  N   UNL     1      -8.061   3.563 122.666  0.00  0.00    +0.000 NA
ATOM     21  H   UNL     1      -8.905   3.002 122.756  0.00  0.00    +0.000 HD
ENDBRANCH   9  15
BRANCH   9  22
ATOM     22  O   UNL     1      -8.989   4.328 124.909  0.00  0.00    +0.000 OA
ATOM     23  H   UNL     1      -9.574   4.114 125.645  0.00  0.00    +0.000 HD
ENDBRANCH   9  22
ENDBRANCH   1  13
BRANCH   2  24
ATOM     24  N   UNL     1      -9.453   4.754 130.177  0.00  0.00    +0.000 N 
ATOM     25  H   UNL     1      -9.753   3.804 130.337  0.00  0.00    +0.000 HD
BRANCH  24  26
ATOM     26  C   UNL     1     -10.468   5.688 129.916  0.00  0.00    +0.000 A 
ATOM     27  C   UNL     1     -10.444   6.482 128.756  0.00  0.00    +0.000 A 
ATOM     28  F   UNL     1      -9.545   6.222 127.792  0.00  0.00    +0.000 F 
ATOM     29  C   UNL     1     -11.262   7.593 128.621  0.00  0.00    +0.000 A 
ATOM     30  C   UNL     1     -12.073   7.955 129.689  0.00  0.00    +0.000 A 
ATOM     31  I   UNL     1     -13.087   9.767 129.637  0.00  0.00    +0.000 I 
ATOM     32  C   UNL     1     -12.175   7.134 130.816  0.00  0.00    +0.000 A 
ATOM     33  C   UNL     1     -11.424   5.958 130.895  0.00  0.00    +0.000 A 
ENDBRANCH  24  26
ENDBRANCH   2  24
TORSDOF 5
ENDMDL
MODEL 9
REMARK VINA RESULT:      -8.1      4.213      7.158
REMARK  Name = Cobimetinib
REMARK  5 active torsions:
REMARK  status: ('A' for Active; 'I' for Inactive)
REMARK    1  A    between atoms: O_1  and  C_2
REMARK    2  A    between atoms: C_2  and  C_25
REMARK    3  A    between atoms: C_6  and  C_8
REMARK    4  A    between atoms: C_9  and  N_10
REMARK    5  A    between atoms: N_10  and  C_11
REMARK                            x       y       z     vdW  Elec       q    Type
REMARK                         _______ _______ _______ _____ _____    ______ ____
ROOT
ATOM      1  C   UNL     1      -6.413   2.539 129.171  0.00  0.00    +0.000 A 
ATOM      2  C   UNL     1      -6.113   2.317 127.811  0.00  0.00    +0.000 A 
ATOM      3  C   UNL     1      -4.766   2.484 127.409  0.00  0.00    +0.000 A 
ATOM      4  F   UNL     1      -4.401   2.353 126.123  0.00  0.00    +0.000 F 
ATOM      5  C   UNL     1      -3.766   2.844 128.300  0.00  0.00    +0.000 A 
ATOM      6  F   UNL     1      -2.506   2.980 127.864  0.00  0.00    +0.000 F 
ATOM      7  C   UNL     1      -4.071   3.096 129.624  0.00  0.00    +0.000 A 
ATOM      8  C   UNL     1      -5.398   2.967 130.057  0.00  0.00    +0.000 A 
ENDROOT
BRANCH   1  13
ATOM      9  C   UNL     1      -9.447   5.330 130.593  0.00  0.00    +0.000 C 
ATOM     10  C   UNL     1      -9.885   3.847 130.348  0.00  0.00    +0.000 C 
ATOM     11  N   UNL     1      -8.511   3.633 129.888  0.00  0.00    +0.000 N 
ATOM     12  C   UNL     1      -8.334   5.034 129.528  0.00  0.00    +0.000 C 
ATOM     13  C   UNL     1      -7.816   2.468 129.672  0.00  0.00    +0.000 C 
ATOM     14  O   UNL     1      -8.288   1.354 129.924  0.00  0.00    +0.000 OA
BRANCH   9  15
ATOM     15  C   UNL     1     -10.489   6.421 130.229  0.00  0.00    +0.000 C 
ATOM     16  C   UNL     1     -11.678   6.316 131.211  0.00  0.00    +0.000 C 
ATOM     17  C   UNL     1     -12.822   7.255 130.847  0.00  0.00    +0.000 C 
ATOM     18  C   UNL     1     -13.222   7.074 129.388  0.00  0.00    +0.000 C 
ATOM     19  C   UNL     1     -12.007   7.188 128.473  0.00  0.00    +0.000 C 
ATOM     20  N   UNL     1     -10.971   6.230 128.844  0.00  0.00    +0.000 NA
ATOM     21  H   UNL     1     -10.201   6.273 128.180  0.00  0.00    +0.000 HD
ENDBRANCH   9  15
BRANCH   9  22
ATOM     22  O   UNL     1      -8.943   5.609 131.939  0.00  0.00    +0.000 OA
ATOM     23  H   UNL     1      -8.208   4.999 132.078  0.00  0.00    +0.000 HD
ENDBRANCH   9  22
ENDBRANCH   1  13
BRANCH   2  24
ATOM     24  N   UNL     1      -7.126   1.984 126.878  0.00  0.00    +0.000 N 
ATOM     25  H   UNL     1      -7.821   2.688 126.678  0.00  0.00    +0.000 HD
BRANCH  24  26
ATOM     26  C   UNL     1      -7.288   0.750 126.227  0.00  0.00    +0.000 A 
ATOM     27  C   UNL     1      -7.033   0.616 124.852  0.00  0.00    +0.000 A 
ATOM     28  F   UNL     1      -6.450   1.625 124.183  0.00  0.00    +0.000 F 
ATOM     29  C   UNL     1      -7.456  -0.496 124.141  0.00  0.00    +0.000 A 
ATOM     30  C   UNL     1      -8.203  -1.463 124.802  0.00  0.00    +0.000 A 
ATOM     31  I   UNL     1      -9.098  -2.988 123.713  0.00  0.00    +0.000 I 
ATOM     32  C   UNL     1      -8.395  -1.391 126.184  0.00  0.00    +0.000 A 
ATOM     33  C   UNL     1      -7.872  -0.317 126.910  0.00  0.00    +0.000 A 
ENDBRANCH  24  26
ENDBRANCH   2  24
TORSDOF 5
ENDMDL
