MODEL 1
REMARK VINA RESULT:      -7.5      0.000      0.000
REMARK  Name = Cocaine
REMARK  7 active torsions:
REMARK  status: ('A' for Active; 'I' for Inactive)
REMARK    1  A    between atoms: C_7  and  C_19
REMARK    2  A    between atoms: C_8  and  O_10
REMARK    3  A    between atoms: O_10  and  C_11
REMARK    4  A    between atoms: C_11  and  C_13
REMARK    5  A    between atoms: C_19  and  O_21
REMARK    6  A    between atoms: O_21  and  C_22
REMARK    7  A    between atoms: N_23  and  C_24
REMARK                            x       y       z     vdW  Elec       q    Type
REMARK                         _______ _______ _______ _____ _____    ______ ____
ROOT
ATOM      1  C   UNL     1      -8.939   3.177 131.831  0.00  0.00    +0.000 C 
ATOM      2  C   UNL     1      -9.329   2.924 133.292  0.00  0.00    +0.000 C 
ATOM      3  C   UNL     1      -8.369   3.819 134.096  0.00  0.00    +0.000 C 
ATOM      4  C   UNL     1      -7.516   4.558 133.028  0.00  0.00    +0.000 C 
ATOM      5  C   UNL     1      -8.169   5.892 132.563  0.00  0.00    +0.000 C 
ATOM      6  C   UNL     1      -9.616   5.618 132.109  0.00  0.00    +0.000 C 
ATOM      7  C   UNL     1      -9.726   4.354 131.240  0.00  0.00    +0.000 C 
ATOM      8  N   UNL     1      -7.526   3.505 132.000  0.00  0.00    +0.000 NA
ATOM      9  C   UNL     1      -6.825   3.788 130.761  0.00  0.00    +0.000 C 
ENDROOT
BRANCH   5  10
ATOM     10  C   UNL     1      -7.388   6.603 131.466  0.00  0.00    +0.000 C 
ATOM     11  O   UNL     1      -7.848   6.949 130.385  0.00  0.00    +0.000 OA
BRANCH  10  12
ATOM     12  O   UNL     1      -6.078   6.775 131.799  0.00  0.00    +0.000 OA
ATOM     13  C   UNL     1      -5.296   7.213 130.682  0.00  0.00    +0.000 C 
ENDBRANCH  10  12
ENDBRANCH   5  10
BRANCH   6  14
ATOM     14  O   UNL     1     -10.212   6.804 131.512  0.00  0.00    +0.000 OA
BRANCH  14  15
ATOM     15  C   UNL     1     -11.481   6.905 131.044  0.00  0.00    +0.000 C 
ATOM     16  O   UNL     1     -12.466   6.666 131.739  0.00  0.00    +0.000 OA
BRANCH  15  17
ATOM     17  C   UNL     1     -11.640   7.243 129.615  0.00  0.00    +0.000 A 
ATOM     18  C   UNL     1     -10.655   7.959 128.927  0.00  0.00    +0.000 A 
ATOM     19  C   UNL     1     -10.845   8.236 127.570  0.00  0.00    +0.000 A 
ATOM     20  C   UNL     1     -11.940   7.700 126.887  0.00  0.00    +0.000 A 
ATOM     21  C   UNL     1     -12.907   6.975 127.572  0.00  0.00    +0.000 A 
ATOM     22  C   UNL     1     -12.792   6.821 128.945  0.00  0.00    +0.000 A 
ENDBRANCH  15  17
ENDBRANCH  14  15
ENDBRANCH   6  14
TORSDOF 5
ENDMDL
MODEL 2
REMARK VINA RESULT:      -7.1      8.715     10.296
REMARK  Name = Cocaine
REMARK  7 active torsions:
REMARK  status: ('A' for Active; 'I' for Inactive)
REMARK    1  A    between atoms: C_7  and  C_19
REMARK    2  A    between atoms: C_8  and  O_10
REMARK    3  A    between atoms: O_10  and  C_11
REMARK    4  A    between atoms: C_11  and  C_13
REMARK    5  A    between atoms: C_19  and  O_21
REMARK    6  A    between atoms: O_21  and  C_22
REMARK    7  A    between atoms: N_23  and  C_24
REMARK                            x       y       z     vdW  Elec       q    Type
REMARK                         _______ _______ _______ _____ _____    ______ ____
ROOT
ATOM      1  C   UNL     1      -6.059  -2.513 124.978  0.00  0.00    +0.000 C 
ATOM      2  C   UNL     1      -5.001  -2.571 123.870  0.00  0.00    +0.000 C 
ATOM      3  C   UNL     1      -5.812  -2.419 122.570  0.00  0.00    +0.000 C 
ATOM      4  C   UNL     1      -7.285  -2.244 123.030  0.00  0.00    +0.000 C 
ATOM      5  C   UNL     1      -7.655  -0.754 123.288  0.00  0.00    +0.000 C 
ATOM      6  C   UNL     1      -6.632  -0.136 124.260  0.00  0.00    +0.000 C 
ATOM      7  C   UNL     1      -6.307  -1.071 125.437  0.00  0.00    +0.000 C 
ATOM      8  N   UNL     1      -7.209  -3.054 124.257  0.00  0.00    +0.000 NA
ATOM      9  C   UNL     1      -8.418  -3.159 125.053  0.00  0.00    +0.000 C 
ENDROOT
BRANCH   5  10
ATOM     10  C   UNL     1      -9.073  -0.559 123.807  0.00  0.00    +0.000 C 
ATOM     11  O   UNL     1      -9.369  -0.294 124.965  0.00  0.00    +0.000 OA
BRANCH  10  12
ATOM     12  O   UNL     1     -10.007  -0.764 122.835  0.00  0.00    +0.000 OA
ATOM     13  C   UNL     1     -10.564   0.468 122.361  0.00  0.00    +0.000 C 
ENDBRANCH  10  12
ENDBRANCH   5  10
BRANCH   6  14
ATOM     14  O   UNL     1      -7.030   1.205 124.658  0.00  0.00    +0.000 OA
BRANCH  14  15
ATOM     15  C   UNL     1      -6.486   2.363 124.203  0.00  0.00    +0.000 C 
ATOM     16  O   UNL     1      -5.706   3.036 124.872  0.00  0.00    +0.000 OA
BRANCH  15  17
ATOM     17  C   UNL     1      -6.937   2.836 122.878  0.00  0.00    +0.000 A 
ATOM     18  C   UNL     1      -8.297   2.984 122.586  0.00  0.00    +0.000 A 
ATOM     19  C   UNL     1      -8.670   3.455 121.324  0.00  0.00    +0.000 A 
ATOM     20  C   UNL     1      -7.697   3.887 120.417  0.00  0.00    +0.000 A 
ATOM     21  C   UNL     1      -6.348   3.754 120.719  0.00  0.00    +0.000 A 
ATOM     22  C   UNL     1      -5.977   3.155 121.913  0.00  0.00    +0.000 A 
ENDBRANCH  15  17
ENDBRANCH  14  15
ENDBRANCH   6  14
TORSDOF 5
ENDMDL
MODEL 3
REMARK VINA RESULT:      -6.8      8.354      9.546
REMARK  Name = Cocaine
REMARK  7 active torsions:
REMARK  status: ('A' for Active; 'I' for Inactive)
REMARK    1  A    between atoms: C_7  and  C_19
REMARK    2  A    between atoms: C_8  and  O_10
REMARK    3  A    between atoms: O_10  and  C_11
REMARK    4  A    between atoms: C_11  and  C_13
REMARK    5  A    between atoms: C_19  and  O_21
REMARK    6  A    between atoms: O_21  and  C_22
REMARK    7  A    between atoms: N_23  and  C_24
REMARK                            x       y       z     vdW  Elec       q    Type
REMARK                         _______ _______ _______ _____ _____    ______ ____
ROOT
ATOM      1  C   UNL     1      -7.462  -2.231 122.962  0.00  0.00    +0.000 C 
ATOM      2  C   UNL     1      -8.930  -2.629 123.150  0.00  0.00    +0.000 C 
ATOM      3  C   UNL     1      -9.033  -2.983 124.645  0.00  0.00    +0.000 C 
ATOM      4  C   UNL     1      -7.614  -2.723 125.221  0.00  0.00    +0.000 C 
ATOM      5  C   UNL     1      -7.429  -1.257 125.710  0.00  0.00    +0.000 C 
ATOM      6  C   UNL     1      -7.817  -0.290 124.574  0.00  0.00    +0.000 C 
ATOM      7  C   UNL     1      -7.254  -0.732 123.213  0.00  0.00    +0.000 C 
ATOM      8  N   UNL     1      -6.844  -3.043 124.008  0.00  0.00    +0.000 NA
ATOM      9  C   UNL     1      -5.401  -2.914 124.091  0.00  0.00    +0.000 C 
ENDROOT
BRANCH   5  10
ATOM     10  C   UNL     1      -6.025  -0.955 126.215  0.00  0.00    +0.000 C 
ATOM     11  O   UNL     1      -5.281  -0.096 125.759  0.00  0.00    +0.000 OA
BRANCH  10  12
ATOM     12  O   UNL     1      -5.651  -1.795 127.221  0.00  0.00    +0.000 OA
ATOM     13  C   UNL     1      -5.359  -1.084 128.430  0.00  0.00    +0.000 C 
ENDBRANCH  10  12
ENDBRANCH   5  10
BRANCH   6  14
ATOM     14  O   UNL     1      -7.504   1.086 124.928  0.00  0.00    +0.000 OA
BRANCH  14  15
ATOM     15  C   UNL     1      -8.174   2.187 124.504  0.00  0.00    +0.000 C 
ATOM     16  O   UNL     1      -9.183   2.607 125.066  0.00  0.00    +0.000 OA
BRANCH  15  17
ATOM     17  C   UNL     1      -7.684   2.832 123.269  0.00  0.00    +0.000 A 
ATOM     18  C   UNL     1      -6.346   3.218 123.136  0.00  0.00    +0.000 A 
ATOM     19  C   UNL     1      -5.928   3.806 121.938  0.00  0.00    +0.000 A 
ATOM     20  C   UNL     1      -6.804   3.892 120.852  0.00  0.00    +0.000 A 
ATOM     21  C   UNL     1      -8.128   3.492 120.984  0.00  0.00    +0.000 A 
ATOM     22  C   UNL     1      -8.579   3.041 122.215  0.00  0.00    +0.000 A 
ENDBRANCH  15  17
ENDBRANCH  14  15
ENDBRANCH   6  14
TORSDOF 5
ENDMDL
MODEL 4
REMARK VINA RESULT:      -6.7      8.326      9.675
REMARK  Name = Cocaine
REMARK  7 active torsions:
REMARK  status: ('A' for Active; 'I' for Inactive)
REMARK    1  A    between atoms: C_7  and  C_19
REMARK    2  A    between atoms: C_8  and  O_10
REMARK    3  A    between atoms: O_10  and  C_11
REMARK    4  A    between atoms: C_11  and  C_13
REMARK    5  A    between atoms: C_19  and  O_21
REMARK    6  A    between atoms: O_21  and  C_22
REMARK    7  A    between atoms: N_23  and  C_24
REMARK                            x       y       z     vdW  Elec       q    Type
REMARK                         _______ _______ _______ _____ _____    ______ ____
ROOT
ATOM      1  C   UNL     1      -7.582  -0.268 126.879  0.00  0.00    +0.000 C 
ATOM      2  C   UNL     1      -6.068  -0.029 126.914  0.00  0.00    +0.000 C 
ATOM      3  C   UNL     1      -5.524  -0.914 125.778  0.00  0.00    +0.000 C 
ATOM      4  C   UNL     1      -6.778  -1.572 125.141  0.00  0.00    +0.000 C 
ATOM      5  C   UNL     1      -7.392  -0.707 124.003  0.00  0.00    +0.000 C 
ATOM      6  C   UNL     1      -7.649   0.719 124.530  0.00  0.00    +0.000 C 
ATOM      7  C   UNL     1      -8.280   0.717 125.932  0.00  0.00    +0.000 C 
ATOM      8  N   UNL     1      -7.610  -1.631 126.354  0.00  0.00    +0.000 NA
ATOM      9  C   UNL     1      -8.942  -2.189 126.212  0.00  0.00    +0.000 C 
ENDROOT
BRANCH   5  10
ATOM     10  C   UNL     1      -8.664  -1.296 123.408  0.00  0.00    +0.000 C 
ATOM     11  O   UNL     1      -9.740  -0.716 123.332  0.00  0.00    +0.000 OA
BRANCH  10  12
ATOM     12  O   UNL     1      -8.490  -2.585 123.002  0.00  0.00    +0.000 OA
ATOM     13  C   UNL     1      -9.682  -3.363 123.169  0.00  0.00    +0.000 C 
ENDBRANCH  10  12
ENDBRANCH   5  10
BRANCH   6  14
ATOM     14  O   UNL     1      -8.373   1.516 123.552  0.00  0.00    +0.000 OA
BRANCH  14  15
ATOM     15  C   UNL     1      -8.280   2.861 123.400  0.00  0.00    +0.000 C 
ATOM     16  O   UNL     1      -8.677   3.654 124.250  0.00  0.00    +0.000 OA
BRANCH  15  17
ATOM     17  C   UNL     1      -7.747   3.352 122.112  0.00  0.00    +0.000 A 
ATOM     18  C   UNL     1      -6.370   3.437 121.884  0.00  0.00    +0.000 A 
ATOM     19  C   UNL     1      -5.917   3.888 120.641  0.00  0.00    +0.000 A 
ATOM     20  C   UNL     1      -6.824   4.132 119.606  0.00  0.00    +0.000 A 
ATOM     21  C   UNL     1      -8.191   4.030 119.833  0.00  0.00    +0.000 A 
ATOM     22  C   UNL     1      -8.645   3.720 121.106  0.00  0.00    +0.000 A 
ENDBRANCH  15  17
ENDBRANCH  14  15
ENDBRANCH   6  14
TORSDOF 5
ENDMDL
MODEL 5
REMARK VINA RESULT:      -6.6      8.262     10.885
REMARK  Name = Cocaine
REMARK  7 active torsions:
REMARK  status: ('A' for Active; 'I' for Inactive)
REMARK    1  A    between atoms: C_7  and  C_19
REMARK    2  A    between atoms: C_8  and  O_10
REMARK    3  A    between atoms: O_10  and  C_11
REMARK    4  A    between atoms: C_11  and  C_13
REMARK    5  A    between atoms: C_19  and  O_21
REMARK    6  A    between atoms: O_21  and  C_22
REMARK    7  A    between atoms: N_23  and  C_24
REMARK                            x       y       z     vdW  Elec       q    Type
REMARK                         _______ _______ _______ _____ _____    ______ ____
ROOT
ATOM      1  C   UNL     1      -7.476  -3.545 124.054  0.00  0.00    +0.000 C 
ATOM      2  C   UNL     1      -5.947  -3.626 124.149  0.00  0.00    +0.000 C 
ATOM      3  C   UNL     1      -5.487  -2.161 124.036  0.00  0.00    +0.000 C 
ATOM      4  C   UNL     1      -6.797  -1.333 123.923  0.00  0.00    +0.000 C 
ATOM      5  C   UNL     1      -7.361  -0.917 125.313  0.00  0.00    +0.000 C 
ATOM      6  C   UNL     1      -7.502  -2.170 126.200  0.00  0.00    +0.000 C 
ATOM      7  C   UNL     1      -8.111  -3.359 125.438  0.00  0.00    +0.000 C 
ATOM      8  N   UNL     1      -7.614  -2.345 123.232  0.00  0.00    +0.000 NA
ATOM      9  C   UNL     1      -8.986  -1.985 122.925  0.00  0.00    +0.000 C 
ENDROOT
BRANCH   5  10
ATOM     10  C   UNL     1      -8.682  -0.164 125.234  0.00  0.00    +0.000 C 
ATOM     11  O   UNL     1      -9.752  -0.572 125.667  0.00  0.00    +0.000 OA
BRANCH  10  12
ATOM     12  O   UNL     1      -8.557   1.020 124.571  0.00  0.00    +0.000 OA
ATOM     13  C   UNL     1      -9.832   1.604 124.276  0.00  0.00    +0.000 C 
ENDBRANCH  10  12
ENDBRANCH   5  10
BRANCH   6  14
ATOM     14  O   UNL     1      -8.178  -1.854 127.449  0.00  0.00    +0.000 OA
BRANCH  14  15
ATOM     15  C   UNL     1      -7.577  -1.456 128.598  0.00  0.00    +0.000 C 
ATOM     16  O   UNL     1      -7.788  -0.359 129.111  0.00  0.00    +0.000 OA
BRANCH  15  17
ATOM     17  C   UNL     1      -6.579  -2.375 129.182  0.00  0.00    +0.000 A 
ATOM     18  C   UNL     1      -6.971  -3.528 129.869  0.00  0.00    +0.000 A 
ATOM     19  C   UNL     1      -5.987  -4.375 130.385  0.00  0.00    +0.000 A 
ATOM     20  C   UNL     1      -4.637  -4.137 130.111  0.00  0.00    +0.000 A 
ATOM     21  C   UNL     1      -4.253  -2.998 129.413  0.00  0.00    +0.000 A 
ATOM     22  C   UNL     1      -5.220  -2.084 129.025  0.00  0.00    +0.000 A 
ENDBRANCH  15  17
ENDBRANCH  14  15
ENDBRANCH   6  14
TORSDOF 5
ENDMDL
MODEL 6
REMARK VINA RESULT:      -6.5      1.592      2.188
REMARK  Name = Cocaine
REMARK  7 active torsions:
REMARK  status: ('A' for Active; 'I' for Inactive)
REMARK    1  A    between atoms: C_7  and  C_19
REMARK    2  A    between atoms: C_8  and  O_10
REMARK    3  A    between atoms: O_10  and  C_11
REMARK    4  A    between atoms: C_11  and  C_13
REMARK    5  A    between atoms: C_19  and  O_21
REMARK    6  A    between atoms: O_21  and  C_22
REMARK    7  A    between atoms: N_23  and  C_24
REMARK                            x       y       z     vdW  Elec       q    Type
REMARK                         _______ _______ _______ _____ _____    ______ ____
ROOT
ATOM      1  C   UNL     1      -8.116   3.500 132.392  0.00  0.00    +0.000 C 
ATOM      2  C   UNL     1      -8.920   3.927 133.626  0.00  0.00    +0.000 C 
ATOM      3  C   UNL     1      -8.075   5.051 134.252  0.00  0.00    +0.000 C 
ATOM      4  C   UNL     1      -6.855   5.216 133.305  0.00  0.00    +0.000 C 
ATOM      5  C   UNL     1      -7.126   6.232 132.157  0.00  0.00    +0.000 C 
ATOM      6  C   UNL     1      -8.423   5.837 131.424  0.00  0.00    +0.000 C 
ATOM      7  C   UNL     1      -8.506   4.324 131.159  0.00  0.00    +0.000 C 
ATOM      8  N   UNL     1      -6.766   3.819 132.849  0.00  0.00    +0.000 NA
ATOM      9  C   UNL     1      -5.721   3.505 131.892  0.00  0.00    +0.000 C 
ENDROOT
BRANCH   5  10
ATOM     10  C   UNL     1      -5.971   6.361 131.173  0.00  0.00    +0.000 C 
ATOM     11  O   UNL     1      -6.016   6.049 129.989  0.00  0.00    +0.000 OA
BRANCH  10  12
ATOM     12  O   UNL     1      -4.838   6.826 131.770  0.00  0.00    +0.000 OA
ATOM     13  C   UNL     1      -4.013   7.558 130.856  0.00  0.00    +0.000 C 
ENDBRANCH  10  12
ENDBRANCH   5  10
BRANCH   6  14
ATOM     14  O   UNL     1      -8.628   6.660 130.242  0.00  0.00    +0.000 OA
BRANCH  14  15
ATOM     15  C   UNL     1      -9.662   6.553 129.370  0.00  0.00    +0.000 C 
ATOM     16  O   UNL     1      -9.559   5.982 128.287  0.00  0.00    +0.000 OA
BRANCH  15  17
ATOM     17  C   UNL     1     -10.920   7.232 129.741  0.00  0.00    +0.000 A 
ATOM     18  C   UNL     1     -11.614   6.886 130.904  0.00  0.00    +0.000 A 
ATOM     19  C   UNL     1     -12.790   7.572 131.220  0.00  0.00    +0.000 A 
ATOM     20  C   UNL     1     -13.195   8.668 130.451  0.00  0.00    +0.000 A 
ATOM     21  C   UNL     1     -12.492   9.019 129.306  0.00  0.00    +0.000 A 
ATOM     22  C   UNL     1     -11.408   8.249 128.914  0.00  0.00    +0.000 A 
ENDBRANCH  15  17
ENDBRANCH  14  15
ENDBRANCH   6  14
TORSDOF 5
ENDMDL
MODEL 7
REMARK VINA RESULT:      -6.4      8.025      9.807
REMARK  Name = Cocaine
REMARK  7 active torsions:
REMARK  status: ('A' for Active; 'I' for Inactive)
REMARK    1  A    between atoms: C_7  and  C_19
REMARK    2  A    between atoms: C_8  and  O_10
REMARK    3  A    between atoms: O_10  and  C_11
REMARK    4  A    between atoms: C_11  and  C_13
REMARK    5  A    between atoms: C_19  and  O_21
REMARK    6  A    between atoms: O_21  and  C_22
REMARK    7  A    between atoms: N_23  and  C_24
REMARK                            x       y       z     vdW  Elec       q    Type
REMARK                         _______ _______ _______ _____ _____    ______ ____
ROOT
ATOM      1  C   UNL     1      -6.901  -3.313 124.429  0.00  0.00    +0.000 C 
ATOM      2  C   UNL     1      -5.636  -3.027 123.612  0.00  0.00    +0.000 C 
ATOM      3  C   UNL     1      -6.080  -1.955 122.599  0.00  0.00    +0.000 C 
ATOM      4  C   UNL     1      -7.569  -1.672 122.937  0.00  0.00    +0.000 C 
ATOM      5  C   UNL     1      -7.735  -0.552 124.005  0.00  0.00    +0.000 C 
ATOM      6  C   UNL     1      -6.881  -0.898 125.241  0.00  0.00    +0.000 C 
ATOM      7  C   UNL     1      -7.005  -2.378 125.640  0.00  0.00    +0.000 C 
ATOM      8  N   UNL     1      -7.922  -3.014 123.428  0.00  0.00    +0.000 NA
ATOM      9  C   UNL     1      -9.285  -3.210 123.887  0.00  0.00    +0.000 C 
ENDROOT
BRANCH   5  10
ATOM     10  C   UNL     1      -9.182  -0.302 124.406  0.00  0.00    +0.000 C 
ATOM     11  O   UNL     1      -9.648  -0.497 125.522  0.00  0.00    +0.000 OA
BRANCH  10  12
ATOM     12  O   UNL     1      -9.939   0.125 123.356  0.00  0.00    +0.000 OA
ATOM     13  C   UNL     1      -9.637   1.479 122.996  0.00  0.00    +0.000 C 
ENDBRANCH  10  12
ENDBRANCH   5  10
BRANCH   6  14
ATOM     14  O   UNL     1      -7.132   0.035 126.329  0.00  0.00    +0.000 OA
BRANCH  14  15
ATOM     15  C   UNL     1      -6.240   0.922 126.836  0.00  0.00    +0.000 C 
ATOM     16  O   UNL     1      -5.631   0.725 127.885  0.00  0.00    +0.000 OA
BRANCH  15  17
ATOM     17  C   UNL     1      -6.081   2.198 126.108  0.00  0.00    +0.000 A 
ATOM     18  C   UNL     1      -4.828   2.806 125.979  0.00  0.00    +0.000 A 
ATOM     19  C   UNL     1      -4.728   4.003 125.263  0.00  0.00    +0.000 A 
ATOM     20  C   UNL     1      -5.839   4.514 124.585  0.00  0.00    +0.000 A 
ATOM     21  C   UNL     1      -7.078   3.896 124.702  0.00  0.00    +0.000 A 
ATOM     22  C   UNL     1      -7.207   2.790 125.528  0.00  0.00    +0.000 A 
ENDBRANCH  15  17
ENDBRANCH  14  15
ENDBRANCH   6  14
TORSDOF 5
ENDMDL
MODEL 8
REMARK VINA RESULT:      -6.4      2.068      3.690
REMARK  Name = Cocaine
REMARK  7 active torsions:
REMARK  status: ('A' for Active; 'I' for Inactive)
REMARK    1  A    between atoms: C_7  and  C_19
REMARK    2  A    between atoms: C_8  and  O_10
REMARK    3  A    between atoms: O_10  and  C_11
REMARK    4  A    between atoms: C_11  and  C_13
REMARK    5  A    between atoms: C_19  and  O_21
REMARK    6  A    between atoms: O_21  and  C_22
REMARK    7  A    between atoms: N_23  and  C_24
REMARK                            x       y       z     vdW  Elec       q    Type
REMARK                         _______ _______ _______ _____ _____    ______ ____
ROOT
ATOM      1  C   UNL     1      -6.960   6.303 131.925  0.00  0.00    +0.000 C 
ATOM      2  C   UNL     1      -5.808   6.544 130.943  0.00  0.00    +0.000 C 
ATOM      3  C   UNL     1      -5.520   5.150 130.356  0.00  0.00    +0.000 C 
ATOM      4  C   UNL     1      -6.562   4.208 131.019  0.00  0.00    +0.000 C 
ATOM      5  C   UNL     1      -7.894   4.134 130.216  0.00  0.00    +0.000 C 
ATOM      6  C   UNL     1      -8.423   5.561 129.975  0.00  0.00    +0.000 C 
ATOM      7  C   UNL     1      -8.321   6.441 131.232  0.00  0.00    +0.000 C 
ATOM      8  N   UNL     1      -6.685   4.918 132.302  0.00  0.00    +0.000 NA
ATOM      9  C   UNL     1      -7.613   4.368 133.273  0.00  0.00    +0.000 C 
ENDROOT
BRANCH   5  10
ATOM     10  C   UNL     1      -8.959   3.272 130.880  0.00  0.00    +0.000 C 
ATOM     11  O   UNL     1     -10.034   3.680 131.301  0.00  0.00    +0.000 OA
BRANCH  10  12
ATOM     12  O   UNL     1      -8.562   1.974 131.006  0.00  0.00    +0.000 OA
ATOM     13  C   UNL     1      -9.413   1.239 131.894  0.00  0.00    +0.000 C 
ENDBRANCH  10  12
ENDBRANCH   5  10
BRANCH   6  14
ATOM     14  O   UNL     1      -9.747   5.534 129.372  0.00  0.00    +0.000 OA
BRANCH  14  15
ATOM     15  C   UNL     1     -10.287   6.510 128.599  0.00  0.00    +0.000 C 
ATOM     16  O   UNL     1      -9.943   6.701 127.435  0.00  0.00    +0.000 OA
BRANCH  15  17
ATOM     17  C   UNL     1     -11.268   7.406 129.245  0.00  0.00    +0.000 A 
ATOM     18  C   UNL     1     -11.712   8.570 128.611  0.00  0.00    +0.000 A 
ATOM     19  C   UNL     1     -12.657   9.373 129.256  0.00  0.00    +0.000 A 
ATOM     20  C   UNL     1     -13.237   8.953 130.457  0.00  0.00    +0.000 A 
ATOM     21  C   UNL     1     -12.805   7.786 131.074  0.00  0.00    +0.000 A 
ATOM     22  C   UNL     1     -11.767   7.064 130.506  0.00  0.00    +0.000 A 
ENDBRANCH  15  17
ENDBRANCH  14  15
ENDBRANCH   6  14
TORSDOF 5
ENDMDL
MODEL 9
REMARK VINA RESULT:      -6.3      8.160      9.918
REMARK  Name = Cocaine
REMARK  7 active torsions:
REMARK  status: ('A' for Active; 'I' for Inactive)
REMARK    1  A    between atoms: C_7  and  C_19
REMARK    2  A    between atoms: C_8  and  O_10
REMARK    3  A    between atoms: O_10  and  C_11
REMARK    4  A    between atoms: C_11  and  C_13
REMARK    5  A    between atoms: C_19  and  O_21
REMARK    6  A    between atoms: O_21  and  C_22
REMARK    7  A    between atoms: N_23  and  C_24
REMARK                            x       y       z     vdW  Elec       q    Type
REMARK                         _______ _______ _______ _____ _____    ______ ____
ROOT
ATOM      1  C   UNL     1      -5.770  -2.294 129.781  0.00  0.00    +0.000 C 
ATOM      2  C   UNL     1      -6.478  -3.647 129.926  0.00  0.00    +0.000 C 
ATOM      3  C   UNL     1      -7.893  -3.388 129.378  0.00  0.00    +0.000 C 
ATOM      4  C   UNL     1      -7.884  -1.904 128.919  0.00  0.00    +0.000 C 
ATOM      5  C   UNL     1      -7.420  -1.740 127.443  0.00  0.00    +0.000 C 
ATOM      6  C   UNL     1      -6.064  -2.448 127.255  0.00  0.00    +0.000 C 
ATOM      7  C   UNL     1      -5.092  -2.163 128.412  0.00  0.00    +0.000 C 
ATOM      8  N   UNL     1      -6.915  -1.396 129.903  0.00  0.00    +0.000 NA
ATOM      9  C   UNL     1      -6.579   0.014 129.829  0.00  0.00    +0.000 C 
ENDROOT
BRANCH   5  10
ATOM     10  C   UNL     1      -7.335  -0.290 126.988  0.00  0.00    +0.000 C 
ATOM     11  O   UNL     1      -6.298   0.306 126.722  0.00  0.00    +0.000 OA
BRANCH  10  12
ATOM     12  O   UNL     1      -8.559   0.309 126.952  0.00  0.00    +0.000 OA
ATOM     13  C   UNL     1      -8.699   1.174 125.819  0.00  0.00    +0.000 C 
ENDBRANCH  10  12
ENDBRANCH   5  10
BRANCH   6  14
ATOM     14  O   UNL     1      -5.512  -2.182 125.935  0.00  0.00    +0.000 OA
BRANCH  14  15
ATOM     15  C   UNL     1      -5.740  -2.916 124.817  0.00  0.00    +0.000 C 
ATOM     16  O   UNL     1      -4.887  -3.647 124.317  0.00  0.00    +0.000 OA
BRANCH  15  17
ATOM     17  C   UNL     1      -7.052  -2.741 124.160  0.00  0.00    +0.000 A 
ATOM     18  C   UNL     1      -8.085  -3.664 124.348  0.00  0.00    +0.000 A 
ATOM     19  C   UNL     1      -9.313  -3.442 123.720  0.00  0.00    +0.000 A 
ATOM     20  C   UNL     1      -9.542  -2.254 123.018  0.00  0.00    +0.000 A 
ATOM     21  C   UNL     1      -8.517  -1.332 122.848  0.00  0.00    +0.000 A 
ATOM     22  C   UNL     1      -7.257  -1.619 123.350  0.00  0.00    +0.000 A 
ENDBRANCH  15  17
ENDBRANCH  14  15
ENDBRANCH   6  14
TORSDOF 5
ENDMDL
