MODEL 1
REMARK VINA RESULT:      -6.8      0.000      0.000
REMARK  Name = Cocarboxylase
REMARK  12 active torsions:
REMARK  status: ('A' for Active; 'I' for Inactive)
REMARK    1  A    between atoms: C_1  and  C_2
REMARK    2  A    between atoms: C_3  and  C_4
REMARK    3  A    between atoms: C_4  and  C_5
REMARK    4  A    between atoms: C_5  and  O_6
REMARK    5  A    between atoms: O_6  and  P_7
REMARK    6  A    between atoms: P_7  and  O_8
REMARK    7  A    between atoms: P_7  and  O_10
REMARK    8  A    between atoms: O_10  and  P_11
REMARK    9  A    between atoms: P_11  and  O_12
REMARK   10  A    between atoms: N_17  and  C_18
REMARK   11  A    between atoms: C_18  and  C_19
REMARK   12  A    between atoms: C_22  and  C_23
REMARK                            x       y       z     vdW  Elec       q    Type
REMARK                         _______ _______ _______ _____ _____    ______ ____
ROOT
ATOM      1  C   UNL     1     -10.304   3.094 130.697  0.00  0.00    +0.000 C 
ATOM      2  C   UNL     1      -8.973   3.445 130.125  0.00  0.00    +0.000 A 
ATOM      3  C   UNL     1      -8.132   2.650 129.344  0.00  0.00    +0.000 A 
ATOM      4  S   UNL     1      -6.726   3.518 128.901  0.00  0.00    +0.000 S 
ATOM      5  C   UNL     1      -7.221   4.878 129.804  0.00  0.00    +0.000 A 
ATOM      6  N   UNL     1      -8.383   4.686 130.422  0.00  0.00    +0.000 N 
ENDROOT
BRANCH   3   7
ATOM      7  C   UNL     1      -8.281   1.220 128.858  0.00  0.00    +0.000 C 
BRANCH   7   8
ATOM      8  C   UNL     1      -8.269   1.229 127.361  0.00  0.00    +0.000 C 
BRANCH   8   9
ATOM      9  O   UNL     1      -9.349   1.705 126.635  0.00  0.00    +0.000 OA
BRANCH   9  10
ATOM     10  P   UNL     1      -9.288   1.072 125.132  0.00  0.00    +0.000 P 
ATOM     11  O   UNL     1      -9.484  -0.414 125.082  0.00  0.00    +0.000 OA
BRANCH  10  12
ATOM     12  O   UNL     1     -10.560   1.790 124.476  0.00  0.00    +0.000 OA
ATOM     13  H   UNL     1     -11.343   1.256 124.711  0.00  0.00    +0.000 HD
ENDBRANCH  10  12
BRANCH  10  14
ATOM     14  O   UNL     1      -7.976   1.711 124.556  0.00  0.00    +0.000 OA
BRANCH  14  15
ATOM     15  P   UNL     1      -7.970   3.175 123.948  0.00  0.00    +0.000 P 
ATOM     16  O   UNL     1      -8.783   3.134 122.698  0.00  0.00    +0.000 OA
ATOM     17  O   UNL     1      -6.604   3.808 124.047  0.00  0.00    +0.000 OA
BRANCH  15  18
ATOM     18  O   UNL     1      -8.922   3.865 125.043  0.00  0.00    +0.000 OA
ATOM     19  H   UNL     1      -8.989   3.191 125.743  0.00  0.00    +0.000 HD
ENDBRANCH  15  18
ENDBRANCH  14  15
ENDBRANCH  10  14
ENDBRANCH   9  10
ENDBRANCH   8   9
ENDBRANCH   7   8
ENDBRANCH   3   7
BRANCH   6  20
ATOM     20  C   UNL     1      -8.882   5.791 131.307  0.00  0.00    +0.000 C 
BRANCH  20  21
ATOM     21  C   UNL     1      -9.887   6.727 130.723  0.00  0.00    +0.000 A 
ATOM     22  C   UNL     1      -9.576   7.489 129.608  0.00  0.00    +0.000 A 
ATOM     23  N   UNL     1     -10.491   8.125 128.861  0.00  0.00    +0.000 NA
ATOM     24  C   UNL     1     -11.769   8.032 129.263  0.00  0.00    +0.000 A 
ATOM     25  C   UNL     1     -12.817   8.718 128.438  0.00  0.00    +0.000 C 
ATOM     26  N   UNL     1     -12.155   7.373 130.377  0.00  0.00    +0.000 NA
ATOM     27  C   UNL     1     -11.219   6.743 131.101  0.00  0.00    +0.000 A 
ATOM     28  N   UNL     1     -11.690   5.981 132.174  0.00  0.00    +0.000 N 
ATOM     29  H   UNL     1     -12.710   5.913 132.043  0.00  0.00    +0.000 HD
ATOM     30  H   UNL     1     -11.325   5.049 132.304  0.00  0.00    +0.000 HD
ENDBRANCH  20  21
ENDBRANCH   6  20
TORSDOF 10
ENDMDL
MODEL 2
REMARK VINA RESULT:      -6.7      5.107      6.961
REMARK  Name = Cocarboxylase
REMARK  12 active torsions:
REMARK  status: ('A' for Active; 'I' for Inactive)
REMARK    1  A    between atoms: C_1  and  C_2
REMARK    2  A    between atoms: C_3  and  C_4
REMARK    3  A    between atoms: C_4  and  C_5
REMARK    4  A    between atoms: C_5  and  O_6
REMARK    5  A    between atoms: O_6  and  P_7
REMARK    6  A    between atoms: P_7  and  O_8
REMARK    7  A    between atoms: P_7  and  O_10
REMARK    8  A    between atoms: O_10  and  P_11
REMARK    9  A    between atoms: P_11  and  O_12
REMARK   10  A    between atoms: N_17  and  C_18
REMARK   11  A    between atoms: C_18  and  C_19
REMARK   12  A    between atoms: C_22  and  C_23
REMARK                            x       y       z     vdW  Elec       q    Type
REMARK                         _______ _______ _______ _____ _____    ______ ____
ROOT
ATOM      1  C   UNL     1      -8.590   1.601 127.645  0.00  0.00    +0.000 C 
ATOM      2  C   UNL     1      -7.413   2.510 127.553  0.00  0.00    +0.000 A 
ATOM      3  C   UNL     1      -6.970   3.448 128.489  0.00  0.00    +0.000 A 
ATOM      4  S   UNL     1      -5.549   4.222 127.936  0.00  0.00    +0.000 S 
ATOM      5  C   UNL     1      -5.597   3.368 126.461  0.00  0.00    +0.000 A 
ATOM      6  N   UNL     1      -6.640   2.547 126.379  0.00  0.00    +0.000 N 
ENDROOT
BRANCH   3   7
ATOM      7  C   UNL     1      -7.530   3.846 129.841  0.00  0.00    +0.000 C 
BRANCH   7   8
ATOM      8  C   UNL     1      -8.433   5.024 129.649  0.00  0.00    +0.000 C 
BRANCH   8   9
ATOM      9  O   UNL     1      -9.794   4.862 129.438  0.00  0.00    +0.000 OA
BRANCH   9  10
ATOM     10  P   UNL     1     -10.542   6.281 129.738  0.00  0.00    +0.000 P 
ATOM     11  O   UNL     1     -11.072   6.413 131.135  0.00  0.00    +0.000 OA
BRANCH  10  12
ATOM     12  O   UNL     1      -9.313   7.290 129.547  0.00  0.00    +0.000 OA
ATOM     13  H   UNL     1      -9.646   8.187 129.742  0.00  0.00    +0.000 HD
ENDBRANCH  10  12
BRANCH  10  14
ATOM     14  O   UNL     1     -11.515   6.408 128.514  0.00  0.00    +0.000 OA
BRANCH  14  15
ATOM     15  P   UNL     1     -11.111   7.236 127.223  0.00  0.00    +0.000 P 
ATOM     16  O   UNL     1     -10.725   8.602 127.682  0.00  0.00    +0.000 OA
ATOM     17  O   UNL     1     -12.055   6.965 126.078  0.00  0.00    +0.000 OA
BRANCH  15  18
ATOM     18  O   UNL     1      -9.722   6.489 126.915  0.00  0.00    +0.000 OA
ATOM     19  H   UNL     1      -9.352   6.325 127.800  0.00  0.00    +0.000 HD
ENDBRANCH  15  18
ENDBRANCH  14  15
ENDBRANCH  10  14
ENDBRANCH   9  10
ENDBRANCH   8   9
ENDBRANCH   7   8
ENDBRANCH   3   7
BRANCH   6  20
ATOM     20  C   UNL     1      -6.825   1.794 125.093  0.00  0.00    +0.000 C 
BRANCH  20  21
ATOM     21  C   UNL     1      -7.286   2.576 123.909  0.00  0.00    +0.000 A 
ATOM     22  C   UNL     1      -6.369   3.106 123.014  0.00  0.00    +0.000 A 
ATOM     23  N   UNL     1      -6.695   3.564 121.797  0.00  0.00    +0.000 NA
ATOM     24  C   UNL     1      -7.997   3.530 121.468  0.00  0.00    +0.000 A 
ATOM     25  C   UNL     1      -8.391   4.019 120.105  0.00  0.00    +0.000 C 
ATOM     26  N   UNL     1      -8.967   3.100 122.303  0.00  0.00    +0.000 NA
ATOM     27  C   UNL     1      -8.611   2.644 123.513  0.00  0.00    +0.000 A 
ATOM     28  N   UNL     1      -9.641   2.103 124.287  0.00  0.00    +0.000 N 
ATOM     29  H   UNL     1     -10.442   1.993 123.649  0.00  0.00    +0.000 HD
ATOM     30  H   UNL     1      -9.484   1.223 124.755  0.00  0.00    +0.000 HD
ENDBRANCH  20  21
ENDBRANCH   6  20
TORSDOF 10
ENDMDL
MODEL 3
REMARK VINA RESULT:      -6.4      1.916      3.186
REMARK  Name = Cocarboxylase
REMARK  12 active torsions:
REMARK  status: ('A' for Active; 'I' for Inactive)
REMARK    1  A    between atoms: C_1  and  C_2
REMARK    2  A    between atoms: C_3  and  C_4
REMARK    3  A    between atoms: C_4  and  C_5
REMARK    4  A    between atoms: C_5  and  O_6
REMARK    5  A    between atoms: O_6  and  P_7
REMARK    6  A    between atoms: P_7  and  O_8
REMARK    7  A    between atoms: P_7  and  O_10
REMARK    8  A    between atoms: O_10  and  P_11
REMARK    9  A    between atoms: P_11  and  O_12
REMARK   10  A    between atoms: N_17  and  C_18
REMARK   11  A    between atoms: C_18  and  C_19
REMARK   12  A    between atoms: C_22  and  C_23
REMARK                            x       y       z     vdW  Elec       q    Type
REMARK                         _______ _______ _______ _____ _____    ______ ____
ROOT
ATOM      1  C   UNL     1      -7.659   3.627 128.876  0.00  0.00    +0.000 C 
ATOM      2  C   UNL     1      -6.791   4.627 129.559  0.00  0.00    +0.000 A 
ATOM      3  C   UNL     1      -5.451   4.926 129.304  0.00  0.00    +0.000 A 
ATOM      4  S   UNL     1      -4.907   6.177 130.335  0.00  0.00    +0.000 S 
ATOM      5  C   UNL     1      -6.411   6.238 131.136  0.00  0.00    +0.000 A 
ATOM      6  N   UNL     1      -7.280   5.351 130.660  0.00  0.00    +0.000 N 
ENDROOT
BRANCH   3   7
ATOM      7  C   UNL     1      -4.473   4.341 128.301  0.00  0.00    +0.000 C 
BRANCH   7   8
ATOM      8  C   UNL     1      -4.705   5.001 126.978  0.00  0.00    +0.000 C 
BRANCH   8   9
ATOM      9  O   UNL     1      -4.736   4.268 125.803  0.00  0.00    +0.000 OA
BRANCH   9  10
ATOM     10  P   UNL     1      -6.224   4.400 125.144  0.00  0.00    +0.000 P 
ATOM     11  O   UNL     1      -7.097   5.429 125.799  0.00  0.00    +0.000 OA
BRANCH  10  12
ATOM     12  O   UNL     1      -5.834   4.903 123.675  0.00  0.00    +0.000 OA
ATOM     13  H   UNL     1      -5.641   5.858 123.740  0.00  0.00    +0.000 HD
ENDBRANCH  10  12
BRANCH  10  14
ATOM     14  O   UNL     1      -6.690   2.904 125.075  0.00  0.00    +0.000 OA
BRANCH  14  15
ATOM     15  P   UNL     1      -8.081   2.503 124.428  0.00  0.00    +0.000 P 
ATOM     16  O   UNL     1      -9.097   2.534 125.520  0.00  0.00    +0.000 OA
ATOM     17  O   UNL     1      -7.926   1.364 123.450  0.00  0.00    +0.000 OA
BRANCH  15  18
ATOM     18  O   UNL     1      -8.324   3.852 123.591  0.00  0.00    +0.000 OA
ATOM     19  H   UNL     1      -8.125   3.590 122.675  0.00  0.00    +0.000 HD
ENDBRANCH  15  18
ENDBRANCH  14  15
ENDBRANCH  10  14
ENDBRANCH   9  10
ENDBRANCH   8   9
ENDBRANCH   7   8
ENDBRANCH   3   7
BRANCH   6  20
ATOM     20  C   UNL     1      -8.617   5.265 131.339  0.00  0.00    +0.000 C 
BRANCH  20  21
ATOM     21  C   UNL     1      -9.776   5.891 130.639  0.00  0.00    +0.000 A 
ATOM     22  C   UNL     1      -9.684   7.181 130.138  0.00  0.00    +0.000 A 
ATOM     23  N   UNL     1     -10.554   7.704 129.262  0.00  0.00    +0.000 NA
ATOM     24  C   UNL     1     -11.585   6.925 128.897  0.00  0.00    +0.000 A 
ATOM     25  C   UNL     1     -12.566   7.476 127.905  0.00  0.00    +0.000 C 
ATOM     26  N   UNL     1     -11.795   5.686 129.389  0.00  0.00    +0.000 NA
ATOM     27  C   UNL     1     -10.906   5.187 130.260  0.00  0.00    +0.000 A 
ATOM     28  N   UNL     1     -11.109   3.858 130.644  0.00  0.00    +0.000 N 
ATOM     29  H   UNL     1     -11.814   3.483 129.992  0.00  0.00    +0.000 HD
ATOM     30  H   UNL     1     -10.319   3.229 130.652  0.00  0.00    +0.000 HD
ENDBRANCH  20  21
ENDBRANCH   6  20
TORSDOF 10
ENDMDL
MODEL 4
REMARK VINA RESULT:      -6.4      4.889      7.597
REMARK  Name = Cocarboxylase
REMARK  12 active torsions:
REMARK  status: ('A' for Active; 'I' for Inactive)
REMARK    1  A    between atoms: C_1  and  C_2
REMARK    2  A    between atoms: C_3  and  C_4
REMARK    3  A    between atoms: C_4  and  C_5
REMARK    4  A    between atoms: C_5  and  O_6
REMARK    5  A    between atoms: O_6  and  P_7
REMARK    6  A    between atoms: P_7  and  O_8
REMARK    7  A    between atoms: P_7  and  O_10
REMARK    8  A    between atoms: O_10  and  P_11
REMARK    9  A    between atoms: P_11  and  O_12
REMARK   10  A    between atoms: N_17  and  C_18
REMARK   11  A    between atoms: C_18  and  C_19
REMARK   12  A    between atoms: C_22  and  C_23
REMARK                            x       y       z     vdW  Elec       q    Type
REMARK                         _______ _______ _______ _____ _____    ______ ____
ROOT
ATOM      1  C   UNL     1      -8.629   0.030 130.836  0.00  0.00    +0.000 C 
ATOM      2  C   UNL     1      -8.263   1.174 129.955  0.00  0.00    +0.000 A 
ATOM      3  C   UNL     1      -8.655   2.510 130.067  0.00  0.00    +0.000 A 
ATOM      4  S   UNL     1      -7.940   3.450 128.830  0.00  0.00    +0.000 S 
ATOM      5  C   UNL     1      -7.203   2.076 128.141  0.00  0.00    +0.000 A 
ATOM      6  N   UNL     1      -7.490   0.957 128.801  0.00  0.00    +0.000 N 
ENDROOT
BRANCH   3   7
ATOM      7  C   UNL     1      -9.561   3.202 131.068  0.00  0.00    +0.000 C 
BRANCH   7   8
ATOM      8  C   UNL     1      -9.897   4.560 130.538  0.00  0.00    +0.000 C 
BRANCH   8   9
ATOM      9  O   UNL     1     -11.055   4.783 129.810  0.00  0.00    +0.000 OA
BRANCH   9  10
ATOM     10  P   UNL     1     -11.470   6.355 129.955  0.00  0.00    +0.000 P 
ATOM     11  O   UNL     1     -12.348   6.652 131.135  0.00  0.00    +0.000 OA
BRANCH  10  12
ATOM     12  O   UNL     1     -10.026   7.003 130.200  0.00  0.00    +0.000 OA
ATOM     13  H   UNL     1      -9.637   6.551 130.974  0.00  0.00    +0.000 HD
ENDBRANCH  10  12
BRANCH  10  14
ATOM     14  O   UNL     1     -11.958   6.704 128.506  0.00  0.00    +0.000 OA
BRANCH  14  15
ATOM     15  P   UNL     1     -11.000   7.419 127.463  0.00  0.00    +0.000 P 
ATOM     16  O   UNL     1     -10.524   8.681 128.100  0.00  0.00    +0.000 OA
ATOM     17  O   UNL     1     -11.550   7.334 126.061  0.00  0.00    +0.000 OA
BRANCH  15  18
ATOM     18  O   UNL     1      -9.762   6.400 127.578  0.00  0.00    +0.000 OA
ATOM     19  H   UNL     1      -9.355   6.437 126.695  0.00  0.00    +0.000 HD
ENDBRANCH  15  18
ENDBRANCH  14  15
ENDBRANCH  10  14
ENDBRANCH   9  10
ENDBRANCH   8   9
ENDBRANCH   7   8
ENDBRANCH   3   7
BRANCH   6  20
ATOM     20  C   UNL     1      -6.953  -0.328 128.242  0.00  0.00    +0.000 C 
BRANCH  20  21
ATOM     21  C   UNL     1      -7.800  -1.040 127.241  0.00  0.00    +0.000 A 
ATOM     22  C   UNL     1      -7.989  -0.510 125.974  0.00  0.00    +0.000 A 
ATOM     23  N   UNL     1      -8.484  -1.207 124.941  0.00  0.00    +0.000 NA
ATOM     24  C   UNL     1      -8.846  -2.477 125.187  0.00  0.00    +0.000 A 
ATOM     25  C   UNL     1      -9.387  -3.287 124.047  0.00  0.00    +0.000 C 
ATOM     26  N   UNL     1      -8.766  -3.052 126.405  0.00  0.00    +0.000 NA
ATOM     27  C   UNL     1      -8.263  -2.333 127.419  0.00  0.00    +0.000 A 
ATOM     28  N   UNL     1      -8.094  -3.016 128.626  0.00  0.00    +0.000 N 
ATOM     29  H   UNL     1      -8.217  -4.015 128.403  0.00  0.00    +0.000 HD
ATOM     30  H   UNL     1      -7.225  -2.908 129.128  0.00  0.00    +0.000 HD
ENDBRANCH  20  21
ENDBRANCH   6  20
TORSDOF 10
ENDMDL
MODEL 5
REMARK VINA RESULT:      -6.4      4.681      6.956
REMARK  Name = Cocarboxylase
REMARK  12 active torsions:
REMARK  status: ('A' for Active; 'I' for Inactive)
REMARK    1  A    between atoms: C_1  and  C_2
REMARK    2  A    between atoms: C_3  and  C_4
REMARK    3  A    between atoms: C_4  and  C_5
REMARK    4  A    between atoms: C_5  and  O_6
REMARK    5  A    between atoms: O_6  and  P_7
REMARK    6  A    between atoms: P_7  and  O_8
REMARK    7  A    between atoms: P_7  and  O_10
REMARK    8  A    between atoms: O_10  and  P_11
REMARK    9  A    between atoms: P_11  and  O_12
REMARK   10  A    between atoms: N_17  and  C_18
REMARK   11  A    between atoms: C_18  and  C_19
REMARK   12  A    between atoms: C_22  and  C_23
REMARK                            x       y       z     vdW  Elec       q    Type
REMARK                         _______ _______ _______ _____ _____    ______ ____
ROOT
ATOM      1  C   UNL     1      -7.373   4.137 127.929  0.00  0.00    +0.000 C 
ATOM      2  C   UNL     1      -7.801   3.058 128.864  0.00  0.00    +0.000 A 
ATOM      3  C   UNL     1      -8.226   3.181 130.188  0.00  0.00    +0.000 A 
ATOM      4  S   UNL     1      -8.643   1.652 130.829  0.00  0.00    +0.000 S 
ATOM      5  C   UNL     1      -8.185   0.866 129.387  0.00  0.00    +0.000 A 
ATOM      6  N   UNL     1      -7.726   1.711 128.468  0.00  0.00    +0.000 N 
ENDROOT
BRANCH   3   7
ATOM      7  C   UNL     1      -8.367   4.401 131.080  0.00  0.00    +0.000 C 
BRANCH   7   8
ATOM      8  C   UNL     1      -9.816   4.770 131.146  0.00  0.00    +0.000 C 
BRANCH   8   9
ATOM      9  O   UNL     1     -10.581   4.894 129.998  0.00  0.00    +0.000 OA
BRANCH   9  10
ATOM     10  P   UNL     1     -11.445   6.275 130.092  0.00  0.00    +0.000 P 
ATOM     11  O   UNL     1     -12.376   6.338 131.266  0.00  0.00    +0.000 OA
BRANCH  10  12
ATOM     12  O   UNL     1     -10.261   7.331 130.306  0.00  0.00    +0.000 OA
ATOM     13  H   UNL     1      -9.575   7.131 129.640  0.00  0.00    +0.000 HD
ENDBRANCH  10  12
BRANCH  10  14
ATOM     14  O   UNL     1     -12.009   6.414 128.635  0.00  0.00    +0.000 OA
BRANCH  14  15
ATOM     15  P   UNL     1     -11.240   7.253 127.530  0.00  0.00    +0.000 P 
ATOM     16  O   UNL     1     -11.062   8.631 128.071  0.00  0.00    +0.000 OA
ATOM     17  O   UNL     1     -11.760   6.948 126.147  0.00  0.00    +0.000 OA
BRANCH  15  18
ATOM     18  O   UNL     1      -9.803   6.551 127.691  0.00  0.00    +0.000 OA
ATOM     19  H   UNL     1      -9.904   6.010 128.493  0.00  0.00    +0.000 HD
ENDBRANCH  15  18
ENDBRANCH  14  15
ENDBRANCH  10  14
ENDBRANCH   9  10
ENDBRANCH   8   9
ENDBRANCH   7   8
ENDBRANCH   3   7
BRANCH   6  20
ATOM     20  C   UNL     1      -7.224   1.123 127.181  0.00  0.00    +0.000 C 
BRANCH  20  21
ATOM     21  C   UNL     1      -8.214   0.963 126.076  0.00  0.00    +0.000 A 
ATOM     22  C   UNL     1      -8.506   2.023 125.233  0.00  0.00    +0.000 A 
ATOM     23  N   UNL     1      -9.149   1.891 124.064  0.00  0.00    +0.000 NA
ATOM     24  C   UNL     1      -9.557   0.653 123.736  0.00  0.00    +0.000 A 
ATOM     25  C   UNL     1     -10.264   0.470 122.425  0.00  0.00    +0.000 C 
ATOM     26  N   UNL     1      -9.381  -0.424 124.529  0.00  0.00    +0.000 NA
ATOM     27  C   UNL     1      -8.730  -0.262 125.690  0.00  0.00    +0.000 A 
ATOM     28  N   UNL     1      -8.474  -1.431 126.413  0.00  0.00    +0.000 N 
ATOM     29  H   UNL     1      -8.679  -2.209 125.769  0.00  0.00    +0.000 HD
ATOM     30  H   UNL     1      -7.551  -1.571 126.797  0.00  0.00    +0.000 HD
ENDBRANCH  20  21
ENDBRANCH   6  20
TORSDOF 10
ENDMDL
MODEL 6
REMARK VINA RESULT:      -6.3      5.392      8.043
REMARK  Name = Cocarboxylase
REMARK  12 active torsions:
REMARK  status: ('A' for Active; 'I' for Inactive)
REMARK    1  A    between atoms: C_1  and  C_2
REMARK    2  A    between atoms: C_3  and  C_4
REMARK    3  A    between atoms: C_4  and  C_5
REMARK    4  A    between atoms: C_5  and  O_6
REMARK    5  A    between atoms: O_6  and  P_7
REMARK    6  A    between atoms: P_7  and  O_8
REMARK    7  A    between atoms: P_7  and  O_10
REMARK    8  A    between atoms: O_10  and  P_11
REMARK    9  A    between atoms: P_11  and  O_12
REMARK   10  A    between atoms: N_17  and  C_18
REMARK   11  A    between atoms: C_18  and  C_19
REMARK   12  A    between atoms: C_22  and  C_23
REMARK                            x       y       z     vdW  Elec       q    Type
REMARK                         _______ _______ _______ _____ _____    ______ ____
ROOT
ATOM      1  C   UNL     1      -6.826   4.625 125.670  0.00  0.00    +0.000 C 
ATOM      2  C   UNL     1      -7.416   3.460 126.387  0.00  0.00    +0.000 A 
ATOM      3  C   UNL     1      -7.631   3.308 127.759  0.00  0.00    +0.000 A 
ATOM      4  S   UNL     1      -8.370   1.802 128.088  0.00  0.00    +0.000 S 
ATOM      5  C   UNL     1      -8.318   1.360 126.441  0.00  0.00    +0.000 A 
ATOM      6  N   UNL     1      -7.759   2.295 125.679  0.00  0.00    +0.000 N 
ENDROOT
BRANCH   3   7
ATOM      7  C   UNL     1      -7.327   4.233 128.923  0.00  0.00    +0.000 C 
BRANCH   7   8
ATOM      8  C   UNL     1      -8.616   4.820 129.406  0.00  0.00    +0.000 C 
BRANCH   8   9
ATOM      9  O   UNL     1      -9.287   5.786 128.673  0.00  0.00    +0.000 OA
BRANCH   9  10
ATOM     10  P   UNL     1      -9.729   6.993 129.678  0.00  0.00    +0.000 P 
ATOM     11  O   UNL     1     -10.704   6.580 130.741  0.00  0.00    +0.000 OA
BRANCH  10  12
ATOM     12  O   UNL     1      -8.318   7.319 130.360  0.00  0.00    +0.000 OA
ATOM     13  H   UNL     1      -8.483   7.444 131.315  0.00  0.00    +0.000 HD
ENDBRANCH  10  12
BRANCH  10  14
ATOM     14  O   UNL     1     -10.100   8.141 128.676  0.00  0.00    +0.000 OA
BRANCH  14  15
ATOM     15  P   UNL     1     -11.407   8.063 127.781  0.00  0.00    +0.000 P 
ATOM     16  O   UNL     1     -10.962   8.025 126.358  0.00  0.00    +0.000 OA
ATOM     17  O   UNL     1     -12.488   8.977 128.303  0.00  0.00    +0.000 OA
BRANCH  15  18
ATOM     18  O   UNL     1     -11.818   6.550 128.133  0.00  0.00    +0.000 OA
ATOM     19  H   UNL     1     -12.550   6.655 128.766  0.00  0.00    +0.000 HD
ENDBRANCH  15  18
ENDBRANCH  14  15
ENDBRANCH  10  14
ENDBRANCH   9  10
ENDBRANCH   8   9
ENDBRANCH   7   8
ENDBRANCH   3   7
BRANCH   6  20
ATOM     20  C   UNL     1      -7.594   1.985 124.219  0.00  0.00    +0.000 C 
BRANCH  20  21
ATOM     21  C   UNL     1      -8.022   0.631 123.760  0.00  0.00    +0.000 A 
ATOM     22  C   UNL     1      -7.177  -0.459 123.897  0.00  0.00    +0.000 A 
ATOM     23  N   UNL     1      -7.579  -1.733 123.781  0.00  0.00    +0.000 NA
ATOM     24  C   UNL     1      -8.872  -1.933 123.476  0.00  0.00    +0.000 A 
ATOM     25  C   UNL     1      -9.356  -3.348 123.357  0.00  0.00    +0.000 C 
ATOM     26  N   UNL     1      -9.749  -0.931 123.252  0.00  0.00    +0.000 NA
ATOM     27  C   UNL     1      -9.320   0.332 123.380  0.00  0.00    +0.000 A 
ATOM     28  N   UNL     1     -10.297   1.324 123.253  0.00  0.00    +0.000 N 
ATOM     29  H   UNL     1     -11.202   0.831 123.287  0.00  0.00    +0.000 HD
ATOM     30  H   UNL     1     -10.319   2.072 123.930  0.00  0.00    +0.000 HD
ENDBRANCH  20  21
ENDBRANCH   6  20
TORSDOF 10
ENDMDL
MODEL 7
REMARK VINA RESULT:      -6.2      5.237      6.514
REMARK  Name = Cocarboxylase
REMARK  12 active torsions:
REMARK  status: ('A' for Active; 'I' for Inactive)
REMARK    1  A    between atoms: C_1  and  C_2
REMARK    2  A    between atoms: C_3  and  C_4
REMARK    3  A    between atoms: C_4  and  C_5
REMARK    4  A    between atoms: C_5  and  O_6
REMARK    5  A    between atoms: O_6  and  P_7
REMARK    6  A    between atoms: P_7  and  O_8
REMARK    7  A    between atoms: P_7  and  O_10
REMARK    8  A    between atoms: O_10  and  P_11
REMARK    9  A    between atoms: P_11  and  O_12
REMARK   10  A    between atoms: N_17  and  C_18
REMARK   11  A    between atoms: C_18  and  C_19
REMARK   12  A    between atoms: C_22  and  C_23
REMARK                            x       y       z     vdW  Elec       q    Type
REMARK                         _______ _______ _______ _____ _____    ______ ____
ROOT
ATOM      1  C   UNL     1      -9.555   0.594 126.175  0.00  0.00    +0.000 C 
ATOM      2  C   UNL     1      -8.183   0.871 126.687  0.00  0.00    +0.000 A 
ATOM      3  C   UNL     1      -7.392   0.072 127.515  0.00  0.00    +0.000 A 
ATOM      4  S   UNL     1      -5.876   0.813 127.794  0.00  0.00    +0.000 S 
ATOM      5  C   UNL     1      -6.326   2.188 126.891  0.00  0.00    +0.000 A 
ATOM      6  N   UNL     1      -7.563   2.102 126.411  0.00  0.00    +0.000 N 
ENDROOT
BRANCH   3   7
ATOM      7  C   UNL     1      -7.666  -1.277 128.155  0.00  0.00    +0.000 C 
BRANCH   7   8
ATOM      8  C   UNL     1      -7.597  -2.325 127.090  0.00  0.00    +0.000 C 
BRANCH   8   9
ATOM      9  O   UNL     1      -8.745  -2.821 126.491  0.00  0.00    +0.000 OA
BRANCH   9  10
ATOM     10  P   UNL     1      -8.422  -3.138 124.923  0.00  0.00    +0.000 P 
ATOM     11  O   UNL     1      -7.929  -4.531 124.667  0.00  0.00    +0.000 OA
BRANCH  10  12
ATOM     12  O   UNL     1      -9.888  -2.979 124.300  0.00  0.00    +0.000 OA
ATOM     13  H   UNL     1      -9.780  -2.887 123.333  0.00  0.00    +0.000 HD
ENDBRANCH  10  12
BRANCH  10  14
ATOM     14  O   UNL     1      -7.545  -1.905 124.510  0.00  0.00    +0.000 OA
BRANCH  14  15
ATOM     15  P   UNL     1      -7.052  -1.709 123.015  0.00  0.00    +0.000 P 
ATOM     16  O   UNL     1      -8.221  -1.979 122.129  0.00  0.00    +0.000 OA
ATOM     17  O   UNL     1      -5.679  -2.299 122.805  0.00  0.00    +0.000 OA
BRANCH  15  18
ATOM     18  O   UNL     1      -6.911  -0.108 123.045  0.00  0.00    +0.000 OA
ATOM     19  H   UNL     1      -6.353   0.055 123.826  0.00  0.00    +0.000 HD
ENDBRANCH  15  18
ENDBRANCH  14  15
ENDBRANCH  10  14
ENDBRANCH   9  10
ENDBRANCH   8   9
ENDBRANCH   7   8
ENDBRANCH   3   7
BRANCH   6  20
ATOM     20  C   UNL     1      -8.093   3.289 125.659  0.00  0.00    +0.000 C 
BRANCH  20  21
ATOM     21  C   UNL     1      -7.455   3.602 124.348  0.00  0.00    +0.000 A 
ATOM     22  C   UNL     1      -6.280   4.336 124.293  0.00  0.00    +0.000 A 
ATOM     23  N   UNL     1      -5.501   4.415 123.205  0.00  0.00    +0.000 NA
ATOM     24  C   UNL     1      -5.929   3.768 122.108  0.00  0.00    +0.000 A 
ATOM     25  C   UNL     1      -5.069   3.823 120.879  0.00  0.00    +0.000 C 
ATOM     26  N   UNL     1      -7.094   3.091 122.048  0.00  0.00    +0.000 NA
ATOM     27  C   UNL     1      -7.851   3.025 123.153  0.00  0.00    +0.000 A 
ATOM     28  N   UNL     1      -8.986   2.213 123.067  0.00  0.00    +0.000 N 
ATOM     29  H   UNL     1      -8.876   1.669 122.199  0.00  0.00    +0.000 HD
ATOM     30  H   UNL     1      -9.181   1.571 123.821  0.00  0.00    +0.000 HD
ENDBRANCH  20  21
ENDBRANCH   6  20
TORSDOF 10
ENDMDL
MODEL 8
REMARK VINA RESULT:      -6.2      2.335      3.694
REMARK  Name = Cocarboxylase
REMARK  12 active torsions:
REMARK  status: ('A' for Active; 'I' for Inactive)
REMARK    1  A    between atoms: C_1  and  C_2
REMARK    2  A    between atoms: C_3  and  C_4
REMARK    3  A    between atoms: C_4  and  C_5
REMARK    4  A    between atoms: C_5  and  O_6
REMARK    5  A    between atoms: O_6  and  P_7
REMARK    6  A    between atoms: P_7  and  O_8
REMARK    7  A    between atoms: P_7  and  O_10
REMARK    8  A    between atoms: O_10  and  P_11
REMARK    9  A    between atoms: P_11  and  O_12
REMARK   10  A    between atoms: N_17  and  C_18
REMARK   11  A    between atoms: C_18  and  C_19
REMARK   12  A    between atoms: C_22  and  C_23
REMARK                            x       y       z     vdW  Elec       q    Type
REMARK                         _______ _______ _______ _____ _____    ______ ____
ROOT
ATOM      1  C   UNL     1      -8.482   3.227 129.722  0.00  0.00    +0.000 C 
ATOM      2  C   UNL     1      -8.250   4.609 130.230  0.00  0.00    +0.000 A 
ATOM      3  C   UNL     1      -7.078   5.147 130.765  0.00  0.00    +0.000 A 
ATOM      4  S   UNL     1      -7.304   6.792 131.173  0.00  0.00    +0.000 S 
ATOM      5  C   UNL     1      -8.945   6.732 130.714  0.00  0.00    +0.000 A 
ATOM      6  N   UNL     1      -9.312   5.528 130.284  0.00  0.00    +0.000 N 
ENDROOT
BRANCH   3   7
ATOM      7  C   UNL     1      -5.717   4.522 131.012  0.00  0.00    +0.000 C 
BRANCH   7   8
ATOM      8  C   UNL     1      -5.096   4.208 129.687  0.00  0.00    +0.000 C 
BRANCH   8   9
ATOM      9  O   UNL     1      -5.088   5.135 128.657  0.00  0.00    +0.000 OA
BRANCH   9  10
ATOM     10  P   UNL     1      -5.475   4.375 127.266  0.00  0.00    +0.000 P 
ATOM     11  O   UNL     1      -4.403   4.427 126.218  0.00  0.00    +0.000 OA
BRANCH  10  12
ATOM     12  O   UNL     1      -5.613   2.871 127.799  0.00  0.00    +0.000 OA
ATOM     13  H   UNL     1      -5.423   2.281 127.044  0.00  0.00    +0.000 HD
ENDBRANCH  10  12
BRANCH  10  14
ATOM     14  O   UNL     1      -6.901   4.950 126.959  0.00  0.00    +0.000 OA
BRANCH  14  15
ATOM     15  P   UNL     1      -7.785   4.375 125.774  0.00  0.00    +0.000 P 
ATOM     16  O   UNL     1      -9.033   5.190 125.723  0.00  0.00    +0.000 OA
ATOM     17  O   UNL     1      -7.759   2.867 125.750  0.00  0.00    +0.000 OA
BRANCH  15  18
ATOM     18  O   UNL     1      -6.885   4.912 124.556  0.00  0.00    +0.000 OA
ATOM     19  H   UNL     1      -6.178   5.413 125.000  0.00  0.00    +0.000 HD
ENDBRANCH  15  18
ENDBRANCH  14  15
ENDBRANCH  10  14
ENDBRANCH   9  10
ENDBRANCH   8   9
ENDBRANCH   7   8
ENDBRANCH   3   7
BRANCH   6  20
ATOM     20  C   UNL     1     -10.756   5.339 129.920  0.00  0.00    +0.000 C 
BRANCH  20  21
ATOM     21  C   UNL     1     -11.579   6.570 129.740  0.00  0.00    +0.000 A 
ATOM     22  C   UNL     1     -12.371   7.046 130.773  0.00  0.00    +0.000 A 
ATOM     23  N   UNL     1     -12.906   8.275 130.798  0.00  0.00    +0.000 NA
ATOM     24  C   UNL     1     -12.676   9.055 129.729  0.00  0.00    +0.000 A 
ATOM     25  C   UNL     1     -13.246  10.442 129.735  0.00  0.00    +0.000 C 
ATOM     26  N   UNL     1     -11.979   8.650 128.646  0.00  0.00    +0.000 NA
ATOM     27  C   UNL     1     -11.452   7.417 128.652  0.00  0.00    +0.000 A 
ATOM     28  N   UNL     1     -10.643   7.095 127.558  0.00  0.00    +0.000 N 
ATOM     29  H   UNL     1     -10.466   7.985 127.069  0.00  0.00    +0.000 HD
ATOM     30  H   UNL     1      -9.756   6.645 127.728  0.00  0.00    +0.000 HD
ENDBRANCH  20  21
ENDBRANCH   6  20
TORSDOF 10
ENDMDL
MODEL 9
REMARK VINA RESULT:      -6.2      6.435      8.059
REMARK  Name = Cocarboxylase
REMARK  12 active torsions:
REMARK  status: ('A' for Active; 'I' for Inactive)
REMARK    1  A    between atoms: C_1  and  C_2
REMARK    2  A    between atoms: C_3  and  C_4
REMARK    3  A    between atoms: C_4  and  C_5
REMARK    4  A    between atoms: C_5  and  O_6
REMARK    5  A    between atoms: O_6  and  P_7
REMARK    6  A    between atoms: P_7  and  O_8
REMARK    7  A    between atoms: P_7  and  O_10
REMARK    8  A    between atoms: O_10  and  P_11
REMARK    9  A    between atoms: P_11  and  O_12
REMARK   10  A    between atoms: N_17  and  C_18
REMARK   11  A    between atoms: C_18  and  C_19
REMARK   12  A    between atoms: C_22  and  C_23
REMARK                            x       y       z     vdW  Elec       q    Type
REMARK                         _______ _______ _______ _____ _____    ______ ____
ROOT
ATOM      1  C   UNL     1      -8.834  -3.304 126.790  0.00  0.00    +0.000 C 
ATOM      2  C   UNL     1      -7.674  -2.374 126.890  0.00  0.00    +0.000 A 
ATOM      3  C   UNL     1      -6.768  -2.013 125.890  0.00  0.00    +0.000 A 
ATOM      4  S   UNL     1      -5.632  -0.884 126.490  0.00  0.00    +0.000 S 
ATOM      5  C   UNL     1      -6.308  -0.958 128.054  0.00  0.00    +0.000 A 
ATOM      6  N   UNL     1      -7.333  -1.802 128.128  0.00  0.00    +0.000 N 
ENDROOT
BRANCH   3   7
ATOM      7  C   UNL     1      -6.659  -2.446 124.440  0.00  0.00    +0.000 C 
BRANCH   7   8
ATOM      8  C   UNL     1      -7.181  -1.340 123.578  0.00  0.00    +0.000 C 
BRANCH   8   9
ATOM      9  O   UNL     1      -8.423  -1.426 122.969  0.00  0.00    +0.000 OA
BRANCH   9  10
ATOM     10  P   UNL     1      -9.287  -0.095 123.350  0.00  0.00    +0.000 P 
ATOM     11  O   UNL     1     -10.459   0.156 122.450  0.00  0.00    +0.000 OA
BRANCH  10  12
ATOM     12  O   UNL     1      -9.821  -0.515 124.800  0.00  0.00    +0.000 OA
ATOM     13  H   UNL     1      -9.221  -1.209 125.137  0.00  0.00    +0.000 HD
ENDBRANCH  10  12
BRANCH  10  14
ATOM     14  O   UNL     1      -8.167   0.993 123.504  0.00  0.00    +0.000 OA
BRANCH  14  15
ATOM     15  P   UNL     1      -8.329   2.206 124.514  0.00  0.00    +0.000 P 
ATOM     16  O   UNL     1      -7.818   3.424 123.821  0.00  0.00    +0.000 OA
ATOM     17  O   UNL     1      -7.945   1.808 125.917  0.00  0.00    +0.000 OA
BRANCH  15  18
ATOM     18  O   UNL     1      -9.930   2.326 124.447  0.00  0.00    +0.000 OA
ATOM     19  H   UNL     1     -10.095   2.672 123.553  0.00  0.00    +0.000 HD
ENDBRANCH  15  18
ENDBRANCH  14  15
ENDBRANCH  10  14
ENDBRANCH   9  10
ENDBRANCH   8   9
ENDBRANCH   7   8
ENDBRANCH   3   7
BRANCH   6  20
ATOM     20  C   UNL     1      -7.962  -2.003 129.476  0.00  0.00    +0.000 C 
BRANCH  20  21
ATOM     21  C   UNL     1      -7.292  -2.963 130.402  0.00  0.00    +0.000 A 
ATOM     22  C   UNL     1      -6.577  -4.041 129.903  0.00  0.00    +0.000 A 
ATOM     23  N   UNL     1      -5.722  -4.771 130.634  0.00  0.00    +0.000 NA
ATOM     24  C   UNL     1      -5.602  -4.440 131.931  0.00  0.00    +0.000 A 
ATOM     25  C   UNL     1      -4.640  -5.227 132.771  0.00  0.00    +0.000 C 
ATOM     26  N   UNL     1      -6.313  -3.455 132.518  0.00  0.00    +0.000 NA
ATOM     27  C   UNL     1      -7.156  -2.738 131.761  0.00  0.00    +0.000 A 
ATOM     28  N   UNL     1      -7.776  -1.657 132.395  0.00  0.00    +0.000 N 
ATOM     29  H   UNL     1      -7.273  -1.530 133.286  0.00  0.00    +0.000 HD
ATOM     30  H   UNL     1      -7.806  -0.768 131.918  0.00  0.00    +0.000 HD
ENDBRANCH  20  21
ENDBRANCH   6  20
TORSDOF 10
ENDMDL
