MODEL 1
REMARK VINA RESULT:      -7.3      0.000      0.000
REMARK  Name = Codeine
REMARK  4 active torsions:
REMARK  status: ('A' for Active; 'I' for Inactive)
REMARK    1  A    between atoms: C_5  and  O_6
REMARK    2  A    between atoms: N_14  and  C_15
REMARK    3  A    between atoms: C_21  and  O_22
REMARK    4  A    between atoms: O_22  and  C_23
REMARK                            x       y       z     vdW  Elec       q    Type
REMARK                         _______ _______ _______ _____ _____    ______ ____
ROOT
ATOM      1  C   UNL     1      -6.600  -2.817 126.086  0.00  0.00    +0.000 C 
ATOM      2  C   UNL     1      -6.525  -2.707 124.570  0.00  0.00    +0.000 C 
ATOM      3  C   UNL     1      -7.645  -2.907 123.846  0.00  0.00    +0.000 C 
ATOM      4  C   UNL     1      -8.908  -3.323 124.547  0.00  0.00    +0.000 C 
ATOM      5  C   UNL     1      -9.182  -2.511 125.839  0.00  0.00    +0.000 C 
ATOM      6  O   UNL     1      -9.891  -1.271 125.535  0.00  0.00    +0.000 OA
ATOM      7  C   UNL     1      -8.982  -0.258 125.700  0.00  0.00    +0.000 A 
ATOM      8  C   UNL     1      -7.804  -0.704 126.262  0.00  0.00    +0.000 A 
ATOM      9  C   UNL     1      -6.651   0.067 126.314  0.00  0.00    +0.000 A 
ATOM     10  C   UNL     1      -5.332  -0.607 126.610  0.00  0.00    +0.000 C 
ATOM     11  C   UNL     1      -5.427  -2.154 126.869  0.00  0.00    +0.000 C 
ATOM     12  N   UNL     1      -5.604  -2.544 128.295  0.00  0.00    +0.000 NA
ATOM     13  C   UNL     1      -4.417  -2.289 129.102  0.00  0.00    +0.000 C 
ATOM     14  C   UNL     1      -6.798  -1.943 128.899  0.00  0.00    +0.000 C 
ATOM     15  C   UNL     1      -8.057  -2.338 128.122  0.00  0.00    +0.000 C 
ATOM     16  C   UNL     1      -7.893  -2.157 126.604  0.00  0.00    +0.000 C 
ATOM     17  C   UNL     1      -6.767   1.404 125.941  0.00  0.00    +0.000 A 
ATOM     18  C   UNL     1      -7.997   1.896 125.453  0.00  0.00    +0.000 A 
ATOM     19  C   UNL     1      -9.114   1.056 125.292  0.00  0.00    +0.000 A 
ENDROOT
BRANCH   4  20
ATOM     20  O   UNL     1      -9.998  -3.276 123.638  0.00  0.00    +0.000 OA
ATOM     21  H   UNL     1      -9.619  -3.426 122.754  0.00  0.00    +0.000 HD
ENDBRANCH   4  20
BRANCH  19  22
ATOM     22  O   UNL     1     -10.210   1.628 124.708  0.00  0.00    +0.000 OA
ATOM     23  C   UNL     1     -10.386   1.366 123.317  0.00  0.00    +0.000 C 
ENDBRANCH  19  22
TORSDOF 2
ENDMDL
MODEL 2
REMARK VINA RESULT:      -7.1      2.746      5.317
REMARK  Name = Codeine
REMARK  4 active torsions:
REMARK  status: ('A' for Active; 'I' for Inactive)
REMARK    1  A    between atoms: C_5  and  O_6
REMARK    2  A    between atoms: N_14  and  C_15
REMARK    3  A    between atoms: C_21  and  O_22
REMARK    4  A    between atoms: O_22  and  C_23
REMARK                            x       y       z     vdW  Elec       q    Type
REMARK                         _______ _______ _______ _____ _____    ______ ____
ROOT
ATOM      1  C   UNL     1      -7.199   0.066 124.747  0.00  0.00    +0.000 C 
ATOM      2  C   UNL     1      -5.946  -0.793 124.843  0.00  0.00    +0.000 C 
ATOM      3  C   UNL     1      -5.146  -0.659 125.920  0.00  0.00    +0.000 C 
ATOM      4  C   UNL     1      -5.462   0.396 126.943  0.00  0.00    +0.000 C 
ATOM      5  C   UNL     1      -6.964   0.447 127.320  0.00  0.00    +0.000 C 
ATOM      6  O   UNL     1      -7.269  -0.513 128.378  0.00  0.00    +0.000 OA
ATOM      7  C   UNL     1      -7.976  -1.526 127.784  0.00  0.00    +0.000 A 
ATOM      8  C   UNL     1      -8.319  -1.227 126.483  0.00  0.00    +0.000 A 
ATOM      9  C   UNL     1      -8.825  -2.170 125.598  0.00  0.00    +0.000 A 
ATOM     10  C   UNL     1      -8.835  -1.856 124.120  0.00  0.00    +0.000 C 
ATOM     11  C   UNL     1      -8.285  -0.433 123.746  0.00  0.00    +0.000 C 
ATOM     12  N   UNL     1      -9.313   0.641 123.676  0.00  0.00    +0.000 NA
ATOM     13  C   UNL     1     -10.218   0.485 122.544  0.00  0.00    +0.000 C 
ATOM     14  C   UNL     1     -10.054   0.795 124.933  0.00  0.00    +0.000 C 
ATOM     15  C   UNL     1      -9.101   1.103 126.091  0.00  0.00    +0.000 C 
ATOM     16  C   UNL     1      -7.888   0.158 126.122  0.00  0.00    +0.000 C 
ATOM     17  C   UNL     1      -9.159  -3.416 126.124  0.00  0.00    +0.000 A 
ATOM     18  C   UNL     1      -8.899  -3.701 127.482  0.00  0.00    +0.000 A 
ATOM     19  C   UNL     1      -8.267  -2.767 128.322  0.00  0.00    +0.000 A 
ENDROOT
BRANCH   4  20
ATOM     20  O   UNL     1      -4.625   0.227 128.078  0.00  0.00    +0.000 OA
ATOM     21  H   UNL     1      -4.239   1.102 128.261  0.00  0.00    +0.000 HD
ENDBRANCH   4  20
BRANCH  19  22
ATOM     22  O   UNL     1      -7.972  -3.204 129.584  0.00  0.00    +0.000 OA
ATOM     23  C   UNL     1      -6.658  -3.723 129.775  0.00  0.00    +0.000 C 
ENDBRANCH  19  22
TORSDOF 2
ENDMDL
MODEL 3
REMARK VINA RESULT:      -6.9      2.064      4.377
REMARK  Name = Codeine
REMARK  4 active torsions:
REMARK  status: ('A' for Active; 'I' for Inactive)
REMARK    1  A    between atoms: C_5  and  O_6
REMARK    2  A    between atoms: N_14  and  C_15
REMARK    3  A    between atoms: C_21  and  O_22
REMARK    4  A    between atoms: O_22  and  C_23
REMARK                            x       y       z     vdW  Elec       q    Type
REMARK                         _______ _______ _______ _____ _____    ______ ____
ROOT
ATOM      1  C   UNL     1      -6.520  -0.957 129.796  0.00  0.00    +0.000 C 
ATOM      2  C   UNL     1      -7.799  -0.137 129.876  0.00  0.00    +0.000 C 
ATOM      3  C   UNL     1      -8.032   0.802 128.937  0.00  0.00    +0.000 C 
ATOM      4  C   UNL     1      -6.981   1.075 127.897  0.00  0.00    +0.000 C 
ATOM      5  C   UNL     1      -6.370  -0.216 127.296  0.00  0.00    +0.000 C 
ATOM      6  O   UNL     1      -7.181  -0.710 126.187  0.00  0.00    +0.000 OA
ATOM      7  C   UNL     1      -7.817  -1.835 126.647  0.00  0.00    +0.000 A 
ATOM      8  C   UNL     1      -7.353  -2.223 127.886  0.00  0.00    +0.000 A 
ATOM      9  C   UNL     1      -7.988  -3.178 128.666  0.00  0.00    +0.000 A 
ATOM     10  C   UNL     1      -7.631  -3.284 130.131  0.00  0.00    +0.000 C 
ATOM     11  C   UNL     1      -6.517  -2.286 130.610  0.00  0.00    +0.000 C 
ATOM     12  N   UNL     1      -5.127  -2.814 130.542  0.00  0.00    +0.000 NA
ATOM     13  C   UNL     1      -4.873  -3.865 131.520  0.00  0.00    +0.000 C 
ATOM     14  C   UNL     1      -4.753  -3.244 129.190  0.00  0.00    +0.000 C 
ATOM     15  C   UNL     1      -4.887  -2.087 128.197  0.00  0.00    +0.000 C 
ATOM     16  C   UNL     1      -6.228  -1.346 128.333  0.00  0.00    +0.000 C 
ATOM     17  C   UNL     1      -9.030  -3.889 128.074  0.00  0.00    +0.000 A 
ATOM     18  C   UNL     1      -9.451  -3.563 126.766  0.00  0.00    +0.000 A 
ATOM     19  C   UNL     1      -8.870  -2.501 126.049  0.00  0.00    +0.000 A 
ENDROOT
BRANCH   4  20
ATOM     20  O   UNL     1      -7.509   1.938 126.899  0.00  0.00    +0.000 OA
ATOM     21  H   UNL     1      -7.351   1.494 126.047  0.00  0.00    +0.000 HD
ENDBRANCH   4  20
BRANCH  19  22
ATOM     22  O   UNL     1      -9.440  -2.217 124.839  0.00  0.00    +0.000 OA
ATOM     23  C   UNL     1      -9.200  -3.161 123.798  0.00  0.00    +0.000 C 
ENDBRANCH  19  22
TORSDOF 2
ENDMDL
MODEL 4
REMARK VINA RESULT:      -6.6      2.792      4.377
REMARK  Name = Codeine
REMARK  4 active torsions:
REMARK  status: ('A' for Active; 'I' for Inactive)
REMARK    1  A    between atoms: C_5  and  O_6
REMARK    2  A    between atoms: N_14  and  C_15
REMARK    3  A    between atoms: C_21  and  O_22
REMARK    4  A    between atoms: O_22  and  C_23
REMARK                            x       y       z     vdW  Elec       q    Type
REMARK                         _______ _______ _______ _____ _____    ______ ____
ROOT
ATOM      1  C   UNL     1      -7.855  -2.994 126.204  0.00  0.00    +0.000 C 
ATOM      2  C   UNL     1      -8.994  -3.263 127.175  0.00  0.00    +0.000 C 
ATOM      3  C   UNL     1      -8.706  -3.487 128.474  0.00  0.00    +0.000 C 
ATOM      4  C   UNL     1      -7.267  -3.558 128.903  0.00  0.00    +0.000 C 
ATOM      5  C   UNL     1      -6.394  -2.432 128.295  0.00  0.00    +0.000 C 
ATOM      6  O   UNL     1      -6.462  -1.221 129.110  0.00  0.00    +0.000 OA
ATOM      7  C   UNL     1      -7.216  -0.322 128.400  0.00  0.00    +0.000 A 
ATOM      8  C   UNL     1      -7.487  -0.766 127.123  0.00  0.00    +0.000 A 
ATOM      9  C   UNL     1      -8.419  -0.159 126.293  0.00  0.00    +0.000 A 
ATOM     10  C   UNL     1      -8.909  -0.903 125.073  0.00  0.00    +0.000 C 
ATOM     11  C   UNL     1      -8.259  -2.317 124.860  0.00  0.00    +0.000 C 
ATOM     12  N   UNL     1      -7.040  -2.326 124.005  0.00  0.00    +0.000 NA
ATOM     13  C   UNL     1      -7.329  -2.038 122.605  0.00  0.00    +0.000 C 
ATOM     14  C   UNL     1      -5.982  -1.451 124.521  0.00  0.00    +0.000 C 
ATOM     15  C   UNL     1      -5.587  -1.858 125.943  0.00  0.00    +0.000 C 
ATOM     16  C   UNL     1      -6.807  -2.070 126.856  0.00  0.00    +0.000 C 
ATOM     17  C   UNL     1      -8.955   1.054 126.723  0.00  0.00    +0.000 A 
ATOM     18  C   UNL     1      -8.609   1.566 127.992  0.00  0.00    +0.000 A 
ATOM     19  C   UNL     1      -7.760   0.861 128.864  0.00  0.00    +0.000 A 
ENDROOT
BRANCH   4  20
ATOM     20  O   UNL     1      -7.193  -3.593 130.321  0.00  0.00    +0.000 OA
ATOM     21  H   UNL     1      -7.977  -3.117 130.645  0.00  0.00    +0.000 HD
ENDBRANCH   4  20
BRANCH  19  22
ATOM     22  O   UNL     1      -7.592   1.410 130.106  0.00  0.00    +0.000 OA
ATOM     23  C   UNL     1      -8.663   1.214 131.026  0.00  0.00    +0.000 C 
ENDBRANCH  19  22
TORSDOF 2
ENDMDL
MODEL 5
REMARK VINA RESULT:      -6.5      7.625      9.847
REMARK  Name = Codeine
REMARK  4 active torsions:
REMARK  status: ('A' for Active; 'I' for Inactive)
REMARK    1  A    between atoms: C_5  and  O_6
REMARK    2  A    between atoms: N_14  and  C_15
REMARK    3  A    between atoms: C_21  and  O_22
REMARK    4  A    between atoms: O_22  and  C_23
REMARK                            x       y       z     vdW  Elec       q    Type
REMARK                         _______ _______ _______ _____ _____    ______ ____
ROOT
ATOM      1  C   UNL     1      -8.409   6.699 131.404  0.00  0.00    +0.000 C 
ATOM      2  C   UNL     1      -6.941   6.312 131.294  0.00  0.00    +0.000 C 
ATOM      3  C   UNL     1      -6.296   5.880 132.397  0.00  0.00    +0.000 C 
ATOM      4  C   UNL     1      -7.016   5.883 133.716  0.00  0.00    +0.000 C 
ATOM      5  C   UNL     1      -8.458   5.323 133.624  0.00  0.00    +0.000 C 
ATOM      6  O   UNL     1      -8.461   3.868 133.752  0.00  0.00    +0.000 OA
ATOM      7  C   UNL     1      -8.734   3.373 132.502  0.00  0.00    +0.000 A 
ATOM      8  C   UNL     1      -9.092   4.368 131.617  0.00  0.00    +0.000 A 
ATOM      9  C   UNL     1      -9.186   4.164 130.247  0.00  0.00    +0.000 A 
ATOM     10  C   UNL     1      -9.229   5.363 129.329  0.00  0.00    +0.000 C 
ATOM     11  C   UNL     1      -9.195   6.753 130.060  0.00  0.00    +0.000 C 
ATOM     12  N   UNL     1     -10.530   7.327 130.380  0.00  0.00    +0.000 NA
ATOM     13  C   UNL     1     -11.262   7.755 129.193  0.00  0.00    +0.000 C 
ATOM     14  C   UNL     1     -11.344   6.435 131.213  0.00  0.00    +0.000 C 
ATOM     15  C   UNL     1     -10.622   6.109 132.524  0.00  0.00    +0.000 C 
ATOM     16  C   UNL     1      -9.157   5.695 132.302  0.00  0.00    +0.000 C 
ATOM     17  C   UNL     1      -9.087   2.849 129.795  0.00  0.00    +0.000 A 
ATOM     18  C   UNL     1      -8.815   1.808 130.709  0.00  0.00    +0.000 A 
ATOM     19  C   UNL     1      -8.598   2.066 132.075  0.00  0.00    +0.000 A 
ENDROOT
BRANCH   4  20
ATOM     20  O   UNL     1      -6.235   5.206 134.690  0.00  0.00    +0.000 OA
ATOM     21  H   UNL     1      -5.874   4.418 134.246  0.00  0.00    +0.000 HD
ENDBRANCH   4  20
BRANCH  19  22
ATOM     22  O   UNL     1      -8.235   0.987 132.834  0.00  0.00    +0.000 OA
ATOM     23  C   UNL     1      -8.088  -0.247 132.136  0.00  0.00    +0.000 C 
ENDBRANCH  19  22
TORSDOF 2
ENDMDL
MODEL 6
REMARK VINA RESULT:      -6.3      3.803      6.730
REMARK  Name = Codeine
REMARK  4 active torsions:
REMARK  status: ('A' for Active; 'I' for Inactive)
REMARK    1  A    between atoms: C_5  and  O_6
REMARK    2  A    between atoms: N_14  and  C_15
REMARK    3  A    between atoms: C_21  and  O_22
REMARK    4  A    between atoms: O_22  and  C_23
REMARK                            x       y       z     vdW  Elec       q    Type
REMARK                         _______ _______ _______ _____ _____    ______ ____
ROOT
ATOM      1  C   UNL     1      -7.609  -0.938 129.135  0.00  0.00    +0.000 C 
ATOM      2  C   UNL     1      -6.756   0.032 129.939  0.00  0.00    +0.000 C 
ATOM      3  C   UNL     1      -6.806  -0.017 131.286  0.00  0.00    +0.000 C 
ATOM      4  C   UNL     1      -7.771  -0.959 131.950  0.00  0.00    +0.000 C 
ATOM      5  C   UNL     1      -7.778  -2.372 131.312  0.00  0.00    +0.000 C 
ATOM      6  O   UNL     1      -6.732  -3.211 131.890  0.00  0.00    +0.000 OA
ATOM      7  C   UNL     1      -5.765  -3.338 130.927  0.00  0.00    +0.000 A 
ATOM      8  C   UNL     1      -6.167  -2.817 129.715  0.00  0.00    +0.000 A 
ATOM      9  C   UNL     1      -5.297  -2.608 128.655  0.00  0.00    +0.000 A 
ATOM     10  C   UNL     1      -5.731  -1.719 127.514  0.00  0.00    +0.000 C 
ATOM     11  C   UNL     1      -7.185  -1.139 127.649  0.00  0.00    +0.000 C 
ATOM     12  N   UNL     1      -8.252  -1.962 127.018  0.00  0.00    +0.000 NA
ATOM     13  C   UNL     1      -8.182  -1.959 125.561  0.00  0.00    +0.000 C 
ATOM     14  C   UNL     1      -8.296  -3.330 127.545  0.00  0.00    +0.000 C 
ATOM     15  C   UNL     1      -8.515  -3.320 129.061  0.00  0.00    +0.000 C 
ATOM     16  C   UNL     1      -7.581  -2.336 129.784  0.00  0.00    +0.000 C 
ATOM     17  C   UNL     1      -4.008  -3.124 128.783  0.00  0.00    +0.000 A 
ATOM     18  C   UNL     1      -3.614  -3.746 129.987  0.00  0.00    +0.000 A 
ATOM     19  C   UNL     1      -4.482  -3.826 131.092  0.00  0.00    +0.000 A 
ENDROOT
BRANCH   4  20
ATOM     20  O   UNL     1      -7.516  -0.999 133.347  0.00  0.00    +0.000 OA
ATOM     21  H   UNL     1      -7.279  -0.090 133.604  0.00  0.00    +0.000 HD
ENDBRANCH   4  20
BRANCH  19  22
ATOM     22  O   UNL     1      -3.945  -4.353 132.234  0.00  0.00    +0.000 OA
ATOM     23  C   UNL     1      -3.444  -3.411 133.181  0.00  0.00    +0.000 C 
ENDBRANCH  19  22
TORSDOF 2
ENDMDL
MODEL 7
REMARK VINA RESULT:      -6.3      2.380      3.130
REMARK  Name = Codeine
REMARK  4 active torsions:
REMARK  status: ('A' for Active; 'I' for Inactive)
REMARK    1  A    between atoms: C_5  and  O_6
REMARK    2  A    between atoms: N_14  and  C_15
REMARK    3  A    between atoms: C_21  and  O_22
REMARK    4  A    between atoms: O_22  and  C_23
REMARK                            x       y       z     vdW  Elec       q    Type
REMARK                         _______ _______ _______ _____ _____    ______ ____
ROOT
ATOM      1  C   UNL     1      -6.654  -0.475 126.293  0.00  0.00    +0.000 C 
ATOM      2  C   UNL     1      -5.602  -0.961 125.306  0.00  0.00    +0.000 C 
ATOM      3  C   UNL     1      -6.000  -1.430 124.107  0.00  0.00    +0.000 C 
ATOM      4  C   UNL     1      -7.470  -1.548 123.817  0.00  0.00    +0.000 C 
ATOM      5  C   UNL     1      -8.279  -0.301 124.255  0.00  0.00    +0.000 C 
ATOM      6  O   UNL     1      -8.268   0.721 123.212  0.00  0.00    +0.000 OA
ATOM      7  C   UNL     1      -7.449   1.723 123.665  0.00  0.00    +0.000 A 
ATOM      8  C   UNL     1      -7.076   1.535 124.979  0.00  0.00    +0.000 A 
ATOM      9  C   UNL     1      -6.073   2.271 125.594  0.00  0.00    +0.000 A 
ATOM     10  C   UNL     1      -5.489   1.771 126.894  0.00  0.00    +0.000 C 
ATOM     11  C   UNL     1      -6.133   0.445 127.437  0.00  0.00    +0.000 C 
ATOM     12  N   UNL     1      -7.276   0.637 128.372  0.00  0.00    +0.000 NA
ATOM     13  C   UNL     1      -6.868   1.190 129.658  0.00  0.00    +0.000 C 
ATOM     14  C   UNL     1      -8.365   1.420 127.777  0.00  0.00    +0.000 C 
ATOM     15  C   UNL     1      -8.881   0.748 126.502  0.00  0.00    +0.000 C 
ATOM     16  C   UNL     1      -7.744   0.328 125.555  0.00  0.00    +0.000 C 
ATOM     17  C   UNL     1      -5.564   3.360 124.888  0.00  0.00    +0.000 A 
ATOM     18  C   UNL     1      -6.010   3.619 123.574  0.00  0.00    +0.000 A 
ATOM     19  C   UNL     1      -6.935   2.776 122.931  0.00  0.00    +0.000 A 
ENDROOT
BRANCH   4  20
ATOM     20  O   UNL     1      -7.664  -1.862 122.445  0.00  0.00    +0.000 OA
ATOM     21  H   UNL     1      -8.594  -1.655 122.249  0.00  0.00    +0.000 HD
ENDBRANCH   4  20
BRANCH  19  22
ATOM     22  O   UNL     1      -7.202   3.073 121.623  0.00  0.00    +0.000 OA
ATOM     23  C   UNL     1      -8.533   3.496 121.337  0.00  0.00    +0.000 C 
ENDBRANCH  19  22
TORSDOF 2
ENDMDL
MODEL 8
REMARK VINA RESULT:      -6.3      7.611      9.797
REMARK  Name = Codeine
REMARK  4 active torsions:
REMARK  status: ('A' for Active; 'I' for Inactive)
REMARK    1  A    between atoms: C_5  and  O_6
REMARK    2  A    between atoms: N_14  and  C_15
REMARK    3  A    between atoms: C_21  and  O_22
REMARK    4  A    between atoms: O_22  and  C_23
REMARK                            x       y       z     vdW  Elec       q    Type
REMARK                         _______ _______ _______ _____ _____    ______ ____
ROOT
ATOM      1  C   UNL     1      -4.403   6.005 132.262  0.00  0.00    +0.000 C 
ATOM      2  C   UNL     1      -5.538   6.412 131.335  0.00  0.00    +0.000 C 
ATOM      3  C   UNL     1      -5.287   7.288 130.341  0.00  0.00    +0.000 C 
ATOM      4  C   UNL     1      -3.920   7.905 130.237  0.00  0.00    +0.000 C 
ATOM      5  C   UNL     1      -2.773   6.880 130.418  0.00  0.00    +0.000 C 
ATOM      6  O   UNL     1      -2.452   6.226 129.152  0.00  0.00    +0.000 OA
ATOM      7  C   UNL     1      -2.928   4.944 129.251  0.00  0.00    +0.000 A 
ATOM      8  C   UNL     1      -3.361   4.647 130.525  0.00  0.00    +0.000 A 
ATOM      9  C   UNL     1      -4.098   3.510 130.829  0.00  0.00    +0.000 A 
ATOM     10  C   UNL     1      -4.827   3.441 132.150  0.00  0.00    +0.000 C 
ATOM     11  C   UNL     1      -4.632   4.696 133.076  0.00  0.00    +0.000 C 
ATOM     12  N   UNL     1      -3.500   4.598 134.038  0.00  0.00    +0.000 NA
ATOM     13  C   UNL     1      -3.737   3.620 135.092  0.00  0.00    +0.000 C 
ATOM     14  C   UNL     1      -2.214   4.363 133.373  0.00  0.00    +0.000 C 
ATOM     15  C   UNL     1      -1.911   5.479 132.369  0.00  0.00    +0.000 C 
ATOM     16  C   UNL     1      -3.108   5.790 131.455  0.00  0.00    +0.000 C 
ATOM     17  C   UNL     1      -4.235   2.558 129.822  0.00  0.00    +0.000 A 
ATOM     18  C   UNL     1      -3.711   2.811 128.535  0.00  0.00    +0.000 A 
ATOM     19  C   UNL     1      -3.081   4.030 128.224  0.00  0.00    +0.000 A 
ENDROOT
BRANCH   4  20
ATOM     20  O   UNL     1      -3.812   8.626 129.017  0.00  0.00    +0.000 OA
ATOM     21  H   UNL     1      -3.674   7.960 128.321  0.00  0.00    +0.000 HD
ENDBRANCH   4  20
BRANCH  19  22
ATOM     22  O   UNL     1      -2.716   4.196 126.917  0.00  0.00    +0.000 OA
ATOM     23  C   UNL     1      -1.784   3.246 126.403  0.00  0.00    +0.000 C 
ENDBRANCH  19  22
TORSDOF 2
ENDMDL
MODEL 9
REMARK VINA RESULT:      -6.2      6.728      8.887
REMARK  Name = Codeine
REMARK  4 active torsions:
REMARK  status: ('A' for Active; 'I' for Inactive)
REMARK    1  A    between atoms: C_5  and  O_6
REMARK    2  A    between atoms: N_14  and  C_15
REMARK    3  A    between atoms: C_21  and  O_22
REMARK    4  A    between atoms: O_22  and  C_23
REMARK                            x       y       z     vdW  Elec       q    Type
REMARK                         _______ _______ _______ _____ _____    ______ ____
ROOT
ATOM      1  C   UNL     1      -7.947   6.205 130.850  0.00  0.00    +0.000 C 
ATOM      2  C   UNL     1      -9.123   6.245 131.815  0.00  0.00    +0.000 C 
ATOM      3  C   UNL     1     -10.202   5.477 131.561  0.00  0.00    +0.000 C 
ATOM      4  C   UNL     1     -10.250   4.679 130.289  0.00  0.00    +0.000 C 
ATOM      5  C   UNL     1      -8.922   3.943 129.980  0.00  0.00    +0.000 C 
ATOM      6  O   UNL     1      -8.872   2.651 130.658  0.00  0.00    +0.000 OA
ATOM      7  C   UNL     1      -7.967   2.788 131.680  0.00  0.00    +0.000 A 
ATOM      8  C   UNL     1      -7.289   3.986 131.616  0.00  0.00    +0.000 A 
ATOM      9  C   UNL     1      -6.499   4.466 132.652  0.00  0.00    +0.000 A 
ATOM     10  C   UNL     1      -6.091   5.920 132.649  0.00  0.00    +0.000 C 
ATOM     11  C   UNL     1      -6.596   6.743 131.410  0.00  0.00    +0.000 C 
ATOM     12  N   UNL     1      -5.655   6.787 130.257  0.00  0.00    +0.000 NA
ATOM     13  C   UNL     1      -4.459   7.574 130.533  0.00  0.00    +0.000 C 
ATOM     14  C   UNL     1      -5.309   5.450 129.761  0.00  0.00    +0.000 C 
ATOM     15  C   UNL     1      -6.567   4.686 129.339  0.00  0.00    +0.000 C 
ATOM     16  C   UNL     1      -7.681   4.757 130.396  0.00  0.00    +0.000 C 
ATOM     17  C   UNL     1      -6.254   3.598 133.714  0.00  0.00    +0.000 A 
ATOM     18  C   UNL     1      -6.870   2.328 133.744  0.00  0.00    +0.000 A 
ATOM     19  C   UNL     1      -7.768   1.922 132.739  0.00  0.00    +0.000 A 
ENDROOT
BRANCH   4  20
ATOM     20  O   UNL     1     -11.362   3.796 130.320  0.00  0.00    +0.000 OA
ATOM     21  H   UNL     1     -11.523   3.531 129.397  0.00  0.00    +0.000 HD
ENDBRANCH   4  20
BRANCH  19  22
ATOM     22  O   UNL     1      -8.381   0.716 132.940  0.00  0.00    +0.000 OA
ATOM     23  C   UNL     1      -7.713  -0.422 132.399  0.00  0.00    +0.000 C 
ENDBRANCH  19  22
TORSDOF 2
ENDMDL
