MODEL 1
REMARK VINA RESULT:      -3.9      0.000      0.000
REMARK  Name = Coenzyme M
REMARK  4 active torsions:
REMARK  status: ('A' for Active; 'I' for Inactive)
REMARK    1  A    between atoms: O_1  and  S_2
REMARK    2  A    between atoms: S_2  and  C_5
REMARK    3  A    between atoms: C_5  and  C_6
REMARK    4  A    between atoms: C_6  and  S_7
REMARK                            x       y       z     vdW  Elec       q    Type
REMARK                         _______ _______ _______ _____ _____    ______ ____
ROOT
ATOM      1  S   UNL     1     -10.924   7.217 126.514  0.00  0.00    +0.000 S 
ATOM      2  O   UNL     1     -12.277   6.706 126.505  0.00  0.00    +0.000 OA
ATOM      3  O   UNL     1      -9.778   6.341 126.475  0.00  0.00    +0.000 OA
ENDROOT
BRANCH   1   4
ATOM      4  O   UNL     1     -10.796   8.200 125.240  0.00  0.00    +0.000 OA
ATOM      5  H   UNL     1     -11.630   8.136 124.723  0.00  0.00    +0.000 HD
ENDBRANCH   1   4
BRANCH   1   6
ATOM      6  C   UNL     1     -10.731   8.419 127.834  0.00  0.00    +0.000 C 
BRANCH   6   7
ATOM      7  C   UNL     1     -12.101   8.698 128.429  0.00  0.00    +0.000 C 
BRANCH   7   8
ATOM      8  S   UNL     1     -12.355   7.837 130.014  0.00  0.00    +0.000 S 
ATOM      9  H   UNL     1     -13.276   6.952 129.607  0.00  0.00    +0.000 HD
ENDBRANCH   7   8
ENDBRANCH   6   7
ENDBRANCH   1   6
TORSDOF 4
ENDMDL
MODEL 2
REMARK VINA RESULT:      -3.8      0.479      1.675
REMARK  Name = Coenzyme M
REMARK  4 active torsions:
REMARK  status: ('A' for Active; 'I' for Inactive)
REMARK    1  A    between atoms: O_1  and  S_2
REMARK    2  A    between atoms: S_2  and  C_5
REMARK    3  A    between atoms: C_5  and  C_6
REMARK    4  A    between atoms: C_6  and  S_7
REMARK                            x       y       z     vdW  Elec       q    Type
REMARK                         _______ _______ _______ _____ _____    ______ ____
ROOT
ATOM      1  S   UNL     1     -10.870   7.363 126.535  0.00  0.00    +0.000 S 
ATOM      2  O   UNL     1      -9.832   6.421 126.888  0.00  0.00    +0.000 OA
ATOM      3  O   UNL     1     -10.806   8.152 125.328  0.00  0.00    +0.000 OA
ENDROOT
BRANCH   1   4
ATOM      4  O   UNL     1     -12.246   6.522 126.464  0.00  0.00    +0.000 OA
ATOM      5  H   UNL     1     -12.677   6.571 127.346  0.00  0.00    +0.000 HD
ENDBRANCH   1   4
BRANCH   1   6
ATOM      6  C   UNL     1     -11.243   8.420 127.938  0.00  0.00    +0.000 C 
BRANCH   6   7
ATOM      7  C   UNL     1     -12.680   8.163 128.360  0.00  0.00    +0.000 C 
BRANCH   7   8
ATOM      8  S   UNL     1     -12.787   7.320 129.972  0.00  0.00    +0.000 S 
ATOM      9  H   UNL     1     -12.938   8.404 130.747  0.00  0.00    +0.000 HD
ENDBRANCH   7   8
ENDBRANCH   6   7
ENDBRANCH   1   6
TORSDOF 4
ENDMDL
MODEL 3
REMARK VINA RESULT:      -3.7      1.396      1.686
REMARK  Name = Coenzyme M
REMARK  4 active torsions:
REMARK  status: ('A' for Active; 'I' for Inactive)
REMARK    1  A    between atoms: O_1  and  S_2
REMARK    2  A    between atoms: S_2  and  C_5
REMARK    3  A    between atoms: C_5  and  C_6
REMARK    4  A    between atoms: C_6  and  S_7
REMARK                            x       y       z     vdW  Elec       q    Type
REMARK                         _______ _______ _______ _____ _____    ______ ____
ROOT
ATOM      1  S   UNL     1     -10.886   7.581 126.828  0.00  0.00    +0.000 S 
ATOM      2  O   UNL     1     -10.829   8.029 125.455  0.00  0.00    +0.000 OA
ATOM      3  O   UNL     1      -9.991   6.572 127.339  0.00  0.00    +0.000 OA
ENDROOT
BRANCH   1   4
ATOM      4  O   UNL     1     -10.676   8.892 127.747  0.00  0.00    +0.000 OA
ATOM      5  H   UNL     1     -11.119   9.648 127.302  0.00  0.00    +0.000 HD
ENDBRANCH   1   4
BRANCH   1   6
ATOM      6  C   UNL     1     -12.579   7.179 127.273  0.00  0.00    +0.000 C 
BRANCH   6   7
ATOM      7  C   UNL     1     -12.985   8.053 128.448  0.00  0.00    +0.000 C 
BRANCH   7   8
ATOM      8  S   UNL     1     -12.811   7.190 130.043  0.00  0.00    +0.000 S 
ATOM      9  H   UNL     1     -11.689   7.792 130.466  0.00  0.00    +0.000 HD
ENDBRANCH   7   8
ENDBRANCH   6   7
ENDBRANCH   1   6
TORSDOF 4
ENDMDL
MODEL 4
REMARK VINA RESULT:      -3.3      3.227      4.227
REMARK  Name = Coenzyme M
REMARK  4 active torsions:
REMARK  status: ('A' for Active; 'I' for Inactive)
REMARK    1  A    between atoms: O_1  and  S_2
REMARK    2  A    between atoms: S_2  and  C_5
REMARK    3  A    between atoms: C_5  and  C_6
REMARK    4  A    between atoms: C_6  and  S_7
REMARK                            x       y       z     vdW  Elec       q    Type
REMARK                         _______ _______ _______ _____ _____    ______ ____
ROOT
ATOM      1  S   UNL     1     -11.395   6.374 130.562  0.00  0.00    +0.000 S 
ATOM      2  O   UNL     1     -10.053   6.794 130.895  0.00  0.00    +0.000 OA
ATOM      3  O   UNL     1     -11.651   5.220 129.735  0.00  0.00    +0.000 OA
ENDROOT
BRANCH   1   4
ATOM      4  O   UNL     1     -12.154   6.114 131.963  0.00  0.00    +0.000 OA
ATOM      5  H   UNL     1     -11.902   5.219 132.283  0.00  0.00    +0.000 HD
ENDBRANCH   1   4
BRANCH   1   6
ATOM      6  C   UNL     1     -12.347   7.775 129.967  0.00  0.00    +0.000 C 
BRANCH   6   7
ATOM      7  C   UNL     1     -12.468   7.664 128.457  0.00  0.00    +0.000 C 
BRANCH   7   8
ATOM      8  S   UNL     1     -10.930   8.140 127.603  0.00  0.00    +0.000 S 
ATOM      9  H   UNL     1     -10.620   9.212 128.348  0.00  0.00    +0.000 HD
ENDBRANCH   7   8
ENDBRANCH   6   7
ENDBRANCH   1   6
TORSDOF 4
ENDMDL
MODEL 5
REMARK VINA RESULT:      -3.2      2.793      3.829
REMARK  Name = Coenzyme M
REMARK  4 active torsions:
REMARK  status: ('A' for Active; 'I' for Inactive)
REMARK    1  A    between atoms: O_1  and  S_2
REMARK    2  A    between atoms: S_2  and  C_5
REMARK    3  A    between atoms: C_5  and  C_6
REMARK    4  A    between atoms: C_6  and  S_7
REMARK                            x       y       z     vdW  Elec       q    Type
REMARK                         _______ _______ _______ _____ _____    ______ ____
ROOT
ATOM      1  S   UNL     1     -11.914   6.989 130.353  0.00  0.00    +0.000 S 
ATOM      2  O   UNL     1     -13.017   7.027 131.287  0.00  0.00    +0.000 OA
ATOM      3  O   UNL     1     -10.543   6.904 130.793  0.00  0.00    +0.000 OA
ENDROOT
BRANCH   1   4
ATOM      4  O   UNL     1     -12.170   5.715 129.394  0.00  0.00    +0.000 OA
ATOM      5  H   UNL     1     -12.805   5.985 128.694  0.00  0.00    +0.000 HD
ENDBRANCH   1   4
BRANCH   1   6
ATOM      6  C   UNL     1     -12.088   8.306 129.145  0.00  0.00    +0.000 C 
BRANCH   6   7
ATOM      7  C   UNL     1     -10.806   8.381 128.333  0.00  0.00    +0.000 C 
BRANCH   7   8
ATOM      8  S   UNL     1     -11.002   7.677 126.663  0.00  0.00    +0.000 S 
ATOM      9  H   UNL     1     -10.557   6.439 126.924  0.00  0.00    +0.000 HD
ENDBRANCH   7   8
ENDBRANCH   6   7
ENDBRANCH   1   6
TORSDOF 4
ENDMDL
MODEL 6
REMARK VINA RESULT:      -3.1      2.082      2.809
REMARK  Name = Coenzyme M
REMARK  4 active torsions:
REMARK  status: ('A' for Active; 'I' for Inactive)
REMARK    1  A    between atoms: O_1  and  S_2
REMARK    2  A    between atoms: S_2  and  C_5
REMARK    3  A    between atoms: C_5  and  C_6
REMARK    4  A    between atoms: C_6  and  S_7
REMARK                            x       y       z     vdW  Elec       q    Type
REMARK                         _______ _______ _______ _____ _____    ______ ____
ROOT
ATOM      1  S   UNL     1     -11.381   7.277 128.282  0.00  0.00    +0.000 S 
ATOM      2  O   UNL     1     -10.162   8.011 128.027  0.00  0.00    +0.000 OA
ATOM      3  O   UNL     1     -12.212   6.781 127.212  0.00  0.00    +0.000 OA
ENDROOT
BRANCH   1   4
ATOM      4  O   UNL     1     -10.967   5.998 129.175  0.00  0.00    +0.000 OA
ATOM      5  H   UNL     1     -10.898   5.220 128.577  0.00  0.00    +0.000 HD
ENDBRANCH   1   4
BRANCH   1   6
ATOM      6  C   UNL     1     -12.388   8.158 129.480  0.00  0.00    +0.000 C 
BRANCH   6   7
ATOM      7  C   UNL     1     -13.093   9.298 128.764  0.00  0.00    +0.000 C 
BRANCH   7   8
ATOM      8  S   UNL     1     -13.461  10.693 129.878  0.00  0.00    +0.000 S 
ATOM      9  H   UNL     1     -14.522  11.187 129.223  0.00  0.00    +0.000 HD
ENDBRANCH   7   8
ENDBRANCH   6   7
ENDBRANCH   1   6
TORSDOF 4
ENDMDL
MODEL 7
REMARK VINA RESULT:      -3.1      2.421      2.988
REMARK  Name = Coenzyme M
REMARK  4 active torsions:
REMARK  status: ('A' for Active; 'I' for Inactive)
REMARK    1  A    between atoms: O_1  and  S_2
REMARK    2  A    between atoms: S_2  and  C_5
REMARK    3  A    between atoms: C_5  and  C_6
REMARK    4  A    between atoms: C_6  and  S_7
REMARK                            x       y       z     vdW  Elec       q    Type
REMARK                         _______ _______ _______ _____ _____    ______ ____
ROOT
ATOM      1  S   UNL     1     -10.150   6.889 129.041  0.00  0.00    +0.000 S 
ATOM      2  O   UNL     1      -9.492   6.009 128.101  0.00  0.00    +0.000 OA
ATOM      3  O   UNL     1     -11.209   6.428 129.906  0.00  0.00    +0.000 OA
ENDROOT
BRANCH   1   4
ATOM      4  O   UNL     1      -8.995   7.481 130.001  0.00  0.00    +0.000 OA
ATOM      5  H   UNL     1      -9.016   8.461 129.931  0.00  0.00    +0.000 HD
ENDBRANCH   1   4
BRANCH   1   6
ATOM      6  C   UNL     1     -10.651   8.403 128.215  0.00  0.00    +0.000 C 
BRANCH   6   7
ATOM      7  C   UNL     1     -12.159   8.372 128.034  0.00  0.00    +0.000 C 
BRANCH   7   8
ATOM      8  S   UNL     1     -13.017   9.506 129.173  0.00  0.00    +0.000 S 
ATOM      9  H   UNL     1     -13.238  10.511 128.313  0.00  0.00    +0.000 HD
ENDBRANCH   7   8
ENDBRANCH   6   7
ENDBRANCH   1   6
TORSDOF 4
ENDMDL
MODEL 8
REMARK VINA RESULT:      -3.1     10.072     10.849
REMARK  Name = Coenzyme M
REMARK  4 active torsions:
REMARK  status: ('A' for Active; 'I' for Inactive)
REMARK    1  A    between atoms: O_1  and  S_2
REMARK    2  A    between atoms: S_2  and  C_5
REMARK    3  A    between atoms: C_5  and  C_6
REMARK    4  A    between atoms: C_6  and  S_7
REMARK                            x       y       z     vdW  Elec       q    Type
REMARK                         _______ _______ _______ _____ _____    ______ ____
ROOT
ATOM      1  S   UNL     1      -9.107  -3.059 124.573  0.00  0.00    +0.000 S 
ATOM      2  O   UNL     1      -9.918  -2.632 125.692  0.00  0.00    +0.000 OA
ATOM      3  O   UNL     1      -8.160  -4.142 124.687  0.00  0.00    +0.000 OA
ENDROOT
BRANCH   1   4
ATOM      4  O   UNL     1     -10.131  -3.464 123.393  0.00  0.00    +0.000 OA
ATOM      5  H   UNL     1      -9.687  -4.130 122.822  0.00  0.00    +0.000 HD
ENDBRANCH   1   4
BRANCH   1   6
ATOM      6  C   UNL     1      -8.322  -1.637 123.807  0.00  0.00    +0.000 C 
BRANCH   6   7
ATOM      7  C   UNL     1      -9.297  -1.033 122.811  0.00  0.00    +0.000 C 
BRANCH   7   8
ATOM      8  S   UNL     1      -9.641   0.723 123.157  0.00  0.00    +0.000 S 
ATOM      9  H   UNL     1      -8.382   1.123 123.391  0.00  0.00    +0.000 HD
ENDBRANCH   7   8
ENDBRANCH   6   7
ENDBRANCH   1   6
TORSDOF 4
ENDMDL
MODEL 9
REMARK VINA RESULT:      -3.1     10.851     11.507
REMARK  Name = Coenzyme M
REMARK  4 active torsions:
REMARK  status: ('A' for Active; 'I' for Inactive)
REMARK    1  A    between atoms: O_1  and  S_2
REMARK    2  A    between atoms: S_2  and  C_5
REMARK    3  A    between atoms: C_5  and  C_6
REMARK    4  A    between atoms: C_6  and  S_7
REMARK                            x       y       z     vdW  Elec       q    Type
REMARK                         _______ _______ _______ _____ _____    ______ ____
ROOT
ATOM      1  S   UNL     1      -9.020  -3.025 124.402  0.00  0.00    +0.000 S 
ATOM      2  O   UNL     1      -9.674  -2.193 125.387  0.00  0.00    +0.000 OA
ATOM      3  O   UNL     1      -8.273  -4.203 124.773  0.00  0.00    +0.000 OA
ENDROOT
BRANCH   1   4
ATOM      4  O   UNL     1     -10.169  -3.512 123.378  0.00  0.00    +0.000 OA
ATOM      5  H   UNL     1     -10.021  -4.465 123.188  0.00  0.00    +0.000 HD
ENDBRANCH   1   4
BRANCH   1   6
ATOM      6  C   UNL     1      -8.046  -2.008 123.289  0.00  0.00    +0.000 C 
BRANCH   6   7
ATOM      7  C   UNL     1      -6.580  -2.361 123.480  0.00  0.00    +0.000 C 
BRANCH   7   8
ATOM      8  S   UNL     1      -5.831  -1.473 124.883  0.00  0.00    +0.000 S 
ATOM      9  H   UNL     1      -4.924  -2.397 125.234  0.00  0.00    +0.000 HD
ENDBRANCH   7   8
ENDBRANCH   6   7
ENDBRANCH   1   6
TORSDOF 4
ENDMDL
