MODEL 1
REMARK VINA RESULT:      -7.9      0.000      0.000
REMARK  Name = Colchicine
REMARK  10 active torsions:
REMARK  status: ('A' for Active; 'I' for Inactive)
REMARK    1  A    between atoms: C_1  and  O_2
REMARK    2  A    between atoms: O_2  and  C_3
REMARK    3  A    between atoms: C_7  and  O_8
REMARK    4  A    between atoms: O_8  and  C_9
REMARK    5  A    between atoms: C_10  and  O_11
REMARK    6  A    between atoms: O_11  and  C_12
REMARK    7  A    between atoms: C_16  and  O_17
REMARK    8  A    between atoms: O_17  and  C_18
REMARK    9  A    between atoms: C_23  and  N_26
REMARK   10  A    between atoms: C_27  and  C_28
REMARK                            x       y       z     vdW  Elec       q    Type
REMARK                         _______ _______ _______ _____ _____    ______ ____
ROOT
ATOM      1  C   UNL     1      -7.237  -2.843 129.922  0.00  0.00    +0.000 A 
ATOM      2  C   UNL     1      -7.575  -3.473 128.797  0.00  0.00    +0.000 A 
ATOM      3  C   UNL     1      -8.087  -2.667 127.740  0.00  0.00    +0.000 A 
ATOM      4  C   UNL     1      -8.042  -1.308 127.446  0.00  0.00    +0.000 A 
ATOM      5  C   UNL     1      -7.528  -0.742 128.607  0.00  0.00    +0.000 A 
ATOM      6  C   UNL     1      -7.174  -1.472 129.810  0.00  0.00    +0.000 A 
ATOM      7  C   UNL     1      -8.411  -0.576 125.962  0.00  0.00    +0.000 A 
ATOM      8  C   UNL     1      -7.876   0.660 125.948  0.00  0.00    +0.000 A 
ATOM      9  C   UNL     1      -7.608   1.435 124.821  0.00  0.00    +0.000 A 
ATOM     10  C   UNL     1      -7.993   2.729 124.692  0.00  0.00    +0.000 A 
ATOM     11  C   UNL     1      -8.951   2.428 123.335  0.00  0.00    +0.000 A 
ATOM     12  O   UNL     1      -9.066   2.742 122.181  0.00  0.00    +0.000 OA
ATOM     13  C   UNL     1      -9.708   0.781 123.822  0.00  0.00    +0.000 A 
ATOM     14  C   UNL     1      -9.156  -0.511 124.545  0.00  0.00    +0.000 A 
ATOM     15  C   UNL     1      -8.879  -2.512 124.584  0.00  0.00    +0.000 C 
ATOM     16  C   UNL     1      -9.780  -3.196 125.855  0.00  0.00    +0.000 C 
ATOM     17  C   UNL     1      -8.662  -3.457 126.746  0.00  0.00    +0.000 C 
ENDROOT
BRANCH  15  18
ATOM     18  N   UNL     1      -7.322  -3.494 124.699  0.00  0.00    +0.000 N 
ATOM     19  C   UNL     1      -5.687  -3.012 124.671  0.00  0.00    +0.000 C 
ATOM     20  C   UNL     1      -5.167  -1.409 124.950  0.00  0.00    +0.000 C 
ATOM     21  O   UNL     1      -4.792  -3.708 124.155  0.00  0.00    +0.000 OA
ATOM     22  H   UNL     1      -7.211  -4.306 124.020  0.00  0.00    +0.000 HD
ENDBRANCH  15  18
BRANCH   1  24
ATOM     23  C   UNL     1      -5.776  -4.436 130.872  0.00  0.00    +0.000 C 
ATOM     24  O   UNL     1      -6.947  -3.631 130.981  0.00  0.00    +0.000 OA
ENDBRANCH   1  24
BRANCH   5  25
ATOM     25  O   UNL     1      -7.459   0.604 128.583  0.00  0.00    +0.000 OA
ATOM     26  C   UNL     1      -8.370   1.471 129.163  0.00  0.00    +0.000 C 
ENDBRANCH   5  25
BRANCH   6  27
ATOM     27  O   UNL     1      -6.709  -0.672 130.781  0.00  0.00    +0.000 OA
ATOM     28  C   UNL     1      -5.353  -0.549 131.088  0.00  0.00    +0.000 C 
ENDBRANCH   6  27
BRANCH  10  29
ATOM     29  O   UNL     1      -8.291   3.577 125.788  0.00  0.00    +0.000 OA
ATOM     30  C   UNL     1      -7.806   4.922 125.619  0.00  0.00    +0.000 C 
ENDBRANCH  10  29
TORSDOF 5
ENDMDL
MODEL 2
REMARK VINA RESULT:      -7.6      3.358      6.098
REMARK  Name = Colchicine
REMARK  10 active torsions:
REMARK  status: ('A' for Active; 'I' for Inactive)
REMARK    1  A    between atoms: C_1  and  O_2
REMARK    2  A    between atoms: O_2  and  C_3
REMARK    3  A    between atoms: C_7  and  O_8
REMARK    4  A    between atoms: O_8  and  C_9
REMARK    5  A    between atoms: C_10  and  O_11
REMARK    6  A    between atoms: O_11  and  C_12
REMARK    7  A    between atoms: C_16  and  O_17
REMARK    8  A    between atoms: O_17  and  C_18
REMARK    9  A    between atoms: C_23  and  N_26
REMARK   10  A    between atoms: C_27  and  C_28
REMARK                            x       y       z     vdW  Elec       q    Type
REMARK                         _______ _______ _______ _____ _____    ______ ____
ROOT
ATOM      1  C   UNL     1      -7.716  -1.843 123.647  0.00  0.00    +0.000 A 
ATOM      2  C   UNL     1      -8.211  -0.670 123.249  0.00  0.00    +0.000 A 
ATOM      3  C   UNL     1      -7.827   0.476 124.004  0.00  0.00    +0.000 A 
ATOM      4  C   UNL     1      -6.795   0.752 124.894  0.00  0.00    +0.000 A 
ATOM      5  C   UNL     1      -6.229  -0.496 125.131  0.00  0.00    +0.000 A 
ATOM      6  C   UNL     1      -6.691  -1.749 124.561  0.00  0.00    +0.000 A 
ATOM      7  C   UNL     1      -6.296   2.281 125.430  0.00  0.00    +0.000 A 
ATOM      8  C   UNL     1      -5.054   2.173 125.942  0.00  0.00    +0.000 A 
ATOM      9  C   UNL     1      -4.141   3.208 126.129  0.00  0.00    +0.000 A 
ATOM     10  C   UNL     1      -3.479   3.422 127.293  0.00  0.00    +0.000 A 
ATOM     11  C   UNL     1      -4.134   4.962 127.517  0.00  0.00    +0.000 A 
ATOM     12  O   UNL     1      -3.806   6.112 127.635  0.00  0.00    +0.000 OA
ATOM     13  C   UNL     1      -5.895   4.660 126.940  0.00  0.00    +0.000 A 
ATOM     14  C   UNL     1      -6.536   3.830 125.759  0.00  0.00    +0.000 A 
ATOM     15  C   UNL     1      -7.756   3.729 124.151  0.00  0.00    +0.000 C 
ATOM     16  C   UNL     1      -9.067   2.697 124.484  0.00  0.00    +0.000 C 
ATOM     17  C   UNL     1      -8.620   1.575 123.676  0.00  0.00    +0.000 C 
ENDROOT
BRANCH  15  18
ATOM     18  N   UNL     1      -7.386   3.262 122.405  0.00  0.00    +0.000 N 
ATOM     19  C   UNL     1      -6.163   3.788 121.340  0.00  0.00    +0.000 C 
ATOM     20  C   UNL     1      -4.742   4.587 121.847  0.00  0.00    +0.000 C 
ATOM     21  O   UNL     1      -6.349   3.905 120.113  0.00  0.00    +0.000 OA
ATOM     22  H   UNL     1      -8.183   3.335 121.706  0.00  0.00    +0.000 HD
ENDBRANCH  15  18
BRANCH   1  24
ATOM     23  C   UNL     1      -9.538  -3.336 123.492  0.00  0.00    +0.000 C 
ATOM     24  O   UNL     1      -8.241  -2.940 123.057  0.00  0.00    +0.000 OA
ENDBRANCH   1  24
BRANCH   5  25
ATOM     25  O   UNL     1      -5.232  -0.488 126.038  0.00  0.00    +0.000 OA
ATOM     26  C   UNL     1      -5.349  -0.846 127.371  0.00  0.00    +0.000 C 
ENDBRANCH   5  25
BRANCH   6  27
ATOM     27  O   UNL     1      -5.965  -2.799 124.969  0.00  0.00    +0.000 OA
ATOM     28  C   UNL     1      -5.044  -3.456 124.150  0.00  0.00    +0.000 C 
ENDBRANCH   6  27
BRANCH  10  29
ATOM     29  O   UNL     1      -3.267   2.423 128.277  0.00  0.00    +0.000 OA
ATOM     30  C   UNL     1      -4.071   2.603 129.457  0.00  0.00    +0.000 C 
ENDBRANCH  10  29
TORSDOF 5
ENDMDL
MODEL 3
REMARK VINA RESULT:      -7.2      1.595      6.356
REMARK  Name = Colchicine
REMARK  10 active torsions:
REMARK  status: ('A' for Active; 'I' for Inactive)
REMARK    1  A    between atoms: C_1  and  O_2
REMARK    2  A    between atoms: O_2  and  C_3
REMARK    3  A    between atoms: C_7  and  O_8
REMARK    4  A    between atoms: O_8  and  C_9
REMARK    5  A    between atoms: C_10  and  O_11
REMARK    6  A    between atoms: O_11  and  C_12
REMARK    7  A    between atoms: C_16  and  O_17
REMARK    8  A    between atoms: O_17  and  C_18
REMARK    9  A    between atoms: C_23  and  N_26
REMARK   10  A    between atoms: C_27  and  C_28
REMARK                            x       y       z     vdW  Elec       q    Type
REMARK                         _______ _______ _______ _____ _____    ______ ____
ROOT
ATOM      1  C   UNL     1      -7.842   2.254 123.697  0.00  0.00    +0.000 A 
ATOM      2  C   UNL     1      -7.361   1.053 123.373  0.00  0.00    +0.000 A 
ATOM      3  C   UNL     1      -6.921   0.228 124.448  0.00  0.00    +0.000 A 
ATOM      4  C   UNL     1      -7.150   0.217 125.820  0.00  0.00    +0.000 A 
ATOM      5  C   UNL     1      -7.797   1.425 126.050  0.00  0.00    +0.000 A 
ATOM      6  C   UNL     1      -8.100   2.421 125.039  0.00  0.00    +0.000 A 
ATOM      7  C   UNL     1      -6.819  -1.052 126.895  0.00  0.00    +0.000 A 
ATOM      8  C   UNL     1      -7.528  -0.854 128.024  0.00  0.00    +0.000 A 
ATOM      9  C   UNL     1      -7.852  -1.815 128.979  0.00  0.00    +0.000 A 
ATOM     10  C   UNL     1      -7.654  -1.645 130.310  0.00  0.00    +0.000 A 
ATOM     11  C   UNL     1      -6.596  -2.955 130.437  0.00  0.00    +0.000 A 
ATOM     12  O   UNL     1      -6.472  -4.008 131.003  0.00  0.00    +0.000 OA
ATOM     13  C   UNL     1      -5.631  -2.759 128.839  0.00  0.00    +0.000 A 
ATOM     14  C   UNL     1      -6.023  -2.362 127.361  0.00  0.00    +0.000 A 
ATOM     15  C   UNL     1      -6.007  -2.756 125.379  0.00  0.00    +0.000 C 
ATOM     16  C   UNL     1      -5.078  -1.586 124.565  0.00  0.00    +0.000 C 
ATOM     17  C   UNL     1      -6.189  -0.859 123.973  0.00  0.00    +0.000 C 
ENDROOT
BRANCH  15  18
ATOM     18  N   UNL     1      -7.407  -2.968 124.197  0.00  0.00    +0.000 N 
ATOM     19  C   UNL     1      -9.075  -3.195 124.465  0.00  0.00    +0.000 C 
ATOM     20  C   UNL     1      -9.854  -2.847 125.945  0.00  0.00    +0.000 C 
ATOM     21  O   UNL     1      -9.783  -3.903 123.723  0.00  0.00    +0.000 OA
ATOM     22  H   UNL     1      -7.307  -3.729 123.461  0.00  0.00    +0.000 HD
ENDBRANCH  15  18
BRANCH   1  24
ATOM     23  C   UNL     1      -6.918   3.536 121.943  0.00  0.00    +0.000 C 
ATOM     24  O   UNL     1      -8.065   3.103 122.669  0.00  0.00    +0.000 OA
ENDBRANCH   1  24
BRANCH   5  25
ATOM     25  O   UNL     1      -8.061   1.673 127.349  0.00  0.00    +0.000 OA
ATOM     26  C   UNL     1      -7.251   2.385 128.217  0.00  0.00    +0.000 C 
ENDBRANCH   5  25
BRANCH   6  27
ATOM     27  O   UNL     1      -8.723   3.496 125.544  0.00  0.00    +0.000 OA
ATOM     28  C   UNL     1      -8.106   4.740 125.691  0.00  0.00    +0.000 C 
ENDBRANCH   6  27
BRANCH  10  29
ATOM     29  O   UNL     1      -7.537  -0.379 130.936  0.00  0.00    +0.000 OA
ATOM     30  C   UNL     1      -8.751   0.060 131.572  0.00  0.00    +0.000 C 
ENDBRANCH  10  29
TORSDOF 5
ENDMDL
MODEL 4
REMARK VINA RESULT:      -7.2      2.896      7.218
REMARK  Name = Colchicine
REMARK  10 active torsions:
REMARK  status: ('A' for Active; 'I' for Inactive)
REMARK    1  A    between atoms: C_1  and  O_2
REMARK    2  A    between atoms: O_2  and  C_3
REMARK    3  A    between atoms: C_7  and  O_8
REMARK    4  A    between atoms: O_8  and  C_9
REMARK    5  A    between atoms: C_10  and  O_11
REMARK    6  A    between atoms: O_11  and  C_12
REMARK    7  A    between atoms: C_16  and  O_17
REMARK    8  A    between atoms: O_17  and  C_18
REMARK    9  A    between atoms: C_23  and  N_26
REMARK   10  A    between atoms: C_27  and  C_28
REMARK                            x       y       z     vdW  Elec       q    Type
REMARK                         _______ _______ _______ _____ _____    ______ ____
ROOT
ATOM      1  C   UNL     1      -9.414   0.021 125.226  0.00  0.00    +0.000 A 
ATOM      2  C   UNL     1      -8.698   1.026 125.734  0.00  0.00    +0.000 A 
ATOM      3  C   UNL     1      -7.894   0.730 126.872  0.00  0.00    +0.000 A 
ATOM      4  C   UNL     1      -7.402  -0.444 127.434  0.00  0.00    +0.000 A 
ATOM      5  C   UNL     1      -8.075  -1.442 126.740  0.00  0.00    +0.000 A 
ATOM      6  C   UNL     1      -9.068  -1.222 125.704  0.00  0.00    +0.000 A 
ATOM      7  C   UNL     1      -6.172  -0.577 128.594  0.00  0.00    +0.000 A 
ATOM      8  C   UNL     1      -5.710  -1.842 128.586  0.00  0.00    +0.000 A 
ATOM      9  C   UNL     1      -4.483  -2.280 129.080  0.00  0.00    +0.000 A 
ATOM     10  C   UNL     1      -4.347  -3.338 129.917  0.00  0.00    +0.000 A 
ATOM     11  C   UNL     1      -3.670  -2.415 131.159  0.00  0.00    +0.000 A 
ATOM     12  O   UNL     1      -2.674  -2.326 131.824  0.00  0.00    +0.000 OA
ATOM     13  C   UNL     1      -4.713  -0.860 131.021  0.00  0.00    +0.000 A 
ATOM     14  C   UNL     1      -5.285  -0.025 129.808  0.00  0.00    +0.000 A 
ATOM     15  C   UNL     1      -5.508   1.738 128.846  0.00  0.00    +0.000 C 
ATOM     16  C   UNL     1      -7.145   2.203 128.863  0.00  0.00    +0.000 C 
ATOM     17  C   UNL     1      -7.430   1.899 127.471  0.00  0.00    +0.000 C 
ENDROOT
BRANCH  15  18
ATOM     18  N   UNL     1      -5.029   2.226 127.133  0.00  0.00    +0.000 N 
ATOM     19  C   UNL     1      -3.706   3.131 126.553  0.00  0.00    +0.000 C 
ATOM     20  C   UNL     1      -2.290   3.429 127.461  0.00  0.00    +0.000 C 
ATOM     21  O   UNL     1      -3.793   3.887 125.566  0.00  0.00    +0.000 OA
ATOM     22  H   UNL     1      -5.767   2.717 126.546  0.00  0.00    +0.000 HD
ENDBRANCH  15  18
BRANCH   1  24
ATOM     23  C   UNL     1      -9.801   0.820 123.038  0.00  0.00    +0.000 C 
ATOM     24  O   UNL     1     -10.321   0.355 124.281  0.00  0.00    +0.000 OA
ENDBRANCH   1  24
BRANCH   5  25
ATOM     25  O   UNL     1      -7.807  -2.692 127.170  0.00  0.00    +0.000 OA
ATOM     26  C   UNL     1      -8.602  -3.443 128.019  0.00  0.00    +0.000 C 
ENDBRANCH   5  25
BRANCH   6  27
ATOM     27  O   UNL     1      -9.562  -2.367 125.212  0.00  0.00    +0.000 OA
ATOM     28  C   UNL     1      -9.164  -2.909 123.988  0.00  0.00    +0.000 C 
ENDBRANCH   6  27
BRANCH  10  29
ATOM     29  O   UNL     1      -5.302  -4.378 130.039  0.00  0.00    +0.000 OA
ATOM     30  C   UNL     1      -5.499  -4.819 131.395  0.00  0.00    +0.000 C 
ENDBRANCH  10  29
TORSDOF 5
ENDMDL
MODEL 5
REMARK VINA RESULT:      -7.0      2.545      4.427
REMARK  Name = Colchicine
REMARK  10 active torsions:
REMARK  status: ('A' for Active; 'I' for Inactive)
REMARK    1  A    between atoms: C_1  and  O_2
REMARK    2  A    between atoms: O_2  and  C_3
REMARK    3  A    between atoms: C_7  and  O_8
REMARK    4  A    between atoms: O_8  and  C_9
REMARK    5  A    between atoms: C_10  and  O_11
REMARK    6  A    between atoms: O_11  and  C_12
REMARK    7  A    between atoms: C_16  and  O_17
REMARK    8  A    between atoms: O_17  and  C_18
REMARK    9  A    between atoms: C_23  and  N_26
REMARK   10  A    between atoms: C_27  and  C_28
REMARK                            x       y       z     vdW  Elec       q    Type
REMARK                         _______ _______ _______ _____ _____    ______ ____
ROOT
ATOM      1  C   UNL     1      -8.554   1.454 131.653  0.00  0.00    +0.000 A 
ATOM      2  C   UNL     1      -7.979   0.254 131.561  0.00  0.00    +0.000 A 
ATOM      3  C   UNL     1      -7.879  -0.310 130.257  0.00  0.00    +0.000 A 
ATOM      4  C   UNL     1      -7.947   0.207 128.967  0.00  0.00    +0.000 A 
ATOM      5  C   UNL     1      -8.397   1.508 129.163  0.00  0.00    +0.000 A 
ATOM      6  C   UNL     1      -8.723   2.099 130.449  0.00  0.00    +0.000 A 
ATOM      7  C   UNL     1      -7.458  -0.561 127.537  0.00  0.00    +0.000 A 
ATOM      8  C   UNL     1      -7.304   0.374 126.579  0.00  0.00    +0.000 A 
ATOM      9  C   UNL     1      -6.565   0.245 125.405  0.00  0.00    +0.000 A 
ATOM     10  C   UNL     1      -7.047   0.558 124.177  0.00  0.00    +0.000 A 
ATOM     11  C   UNL     1      -6.866  -1.011 123.579  0.00  0.00    +0.000 A 
ATOM     12  O   UNL     1      -6.303  -1.624 122.714  0.00  0.00    +0.000 OA
ATOM     13  C   UNL     1      -7.396  -2.002 125.083  0.00  0.00    +0.000 A 
ATOM     14  C   UNL     1      -7.157  -1.851 126.637  0.00  0.00    +0.000 A 
ATOM     15  C   UNL     1      -6.552  -2.634 128.400  0.00  0.00    +0.000 C 
ATOM     16  C   UNL     1      -7.879  -2.771 129.457  0.00  0.00    +0.000 C 
ATOM     17  C   UNL     1      -7.531  -1.658 130.324  0.00  0.00    +0.000 C 
ENDROOT
BRANCH  15  18
ATOM     18  N   UNL     1      -5.241  -2.065 129.566  0.00  0.00    +0.000 N 
ATOM     19  C   UNL     1      -3.712  -2.720 129.941  0.00  0.00    +0.000 C 
ATOM     20  C   UNL     1      -2.904  -3.862 128.961  0.00  0.00    +0.000 C 
ATOM     21  O   UNL     1      -3.217  -2.654 131.082  0.00  0.00    +0.000 OA
ATOM     22  H   UNL     1      -5.534  -1.881 130.571  0.00  0.00    +0.000 HD
ENDBRANCH  15  18
BRANCH   1  24
ATOM     23  C   UNL     1      -7.824   2.682 133.533  0.00  0.00    +0.000 C 
ATOM     24  O   UNL     1      -8.826   1.889 132.904  0.00  0.00    +0.000 OA
ENDBRANCH   1  24
BRANCH   5  25
ATOM     25  O   UNL     1      -8.612   2.197 128.024  0.00  0.00    +0.000 OA
ATOM     26  C   UNL     1      -7.864   3.271 127.575  0.00  0.00    +0.000 C 
ENDBRANCH   5  25
BRANCH   6  27
ATOM     27  O   UNL     1      -9.142   3.368 130.342  0.00  0.00    +0.000 OA
ATOM     28  C   UNL     1     -10.474   3.751 130.509  0.00  0.00    +0.000 C 
ENDBRANCH   6  27
BRANCH  10  29
ATOM     29  O   UNL     1      -8.130   1.445 123.956  0.00  0.00    +0.000 OA
ATOM     30  C   UNL     1      -9.271   0.815 123.346  0.00  0.00    +0.000 C 
ENDBRANCH  10  29
TORSDOF 5
ENDMDL
MODEL 6
REMARK VINA RESULT:      -6.8      3.256      5.644
REMARK  Name = Colchicine
REMARK  10 active torsions:
REMARK  status: ('A' for Active; 'I' for Inactive)
REMARK    1  A    between atoms: C_1  and  O_2
REMARK    2  A    between atoms: O_2  and  C_3
REMARK    3  A    between atoms: C_7  and  O_8
REMARK    4  A    between atoms: O_8  and  C_9
REMARK    5  A    between atoms: C_10  and  O_11
REMARK    6  A    between atoms: O_11  and  C_12
REMARK    7  A    between atoms: C_16  and  O_17
REMARK    8  A    between atoms: O_17  and  C_18
REMARK    9  A    between atoms: C_23  and  N_26
REMARK   10  A    between atoms: C_27  and  C_28
REMARK                            x       y       z     vdW  Elec       q    Type
REMARK                         _______ _______ _______ _____ _____    ______ ____
ROOT
ATOM      1  C   UNL     1      -4.120   2.903 129.831  0.00  0.00    +0.000 A 
ATOM      2  C   UNL     1      -4.700   1.934 130.542  0.00  0.00    +0.000 A 
ATOM      3  C   UNL     1      -5.501   1.002 129.821  0.00  0.00    +0.000 A 
ATOM      4  C   UNL     1      -5.600   0.638 128.483  0.00  0.00    +0.000 A 
ATOM      5  C   UNL     1      -4.838   1.599 127.828  0.00  0.00    +0.000 A 
ATOM      6  C   UNL     1      -4.156   2.708 128.469  0.00  0.00    +0.000 A 
ATOM      7  C   UNL     1      -6.368  -0.739 127.858  0.00  0.00    +0.000 A 
ATOM      8  C   UNL     1      -5.916  -0.952 126.607  0.00  0.00    +0.000 A 
ATOM      9  C   UNL     1      -5.980  -2.148 125.895  0.00  0.00    +0.000 A 
ATOM     10  C   UNL     1      -6.450  -2.240 124.626  0.00  0.00    +0.000 A 
ATOM     11  C   UNL     1      -7.703  -3.291 125.044  0.00  0.00    +0.000 A 
ATOM     12  O   UNL     1      -8.121  -4.392 124.807  0.00  0.00    +0.000 OA
ATOM     13  C   UNL     1      -8.230  -2.544 126.683  0.00  0.00    +0.000 A 
ATOM     14  C   UNL     1      -7.449  -1.920 127.907  0.00  0.00    +0.000 A 
ATOM     15  C   UNL     1      -7.071  -1.850 129.892  0.00  0.00    +0.000 C 
ATOM     16  C   UNL     1      -7.587  -0.358 130.526  0.00  0.00    +0.000 C 
ATOM     17  C   UNL     1      -6.269   0.230 130.691  0.00  0.00    +0.000 C 
ENDROOT
BRANCH  15  18
ATOM     18  N   UNL     1      -5.489  -2.086 130.809  0.00  0.00    +0.000 N 
ATOM     19  C   UNL     1      -4.071  -2.939 130.399  0.00  0.00    +0.000 C 
ATOM     20  C   UNL     1      -3.683  -3.424 128.807  0.00  0.00    +0.000 C 
ATOM     21  O   UNL     1      -3.376  -3.531 131.247  0.00  0.00    +0.000 OA
ATOM     22  H   UNL     1      -5.557  -2.455 131.804  0.00  0.00    +0.000 HD
ENDBRANCH  15  18
BRANCH   1  24
ATOM     23  C   UNL     1      -3.379   3.664 131.940  0.00  0.00    +0.000 C 
ATOM     24  O   UNL     1      -3.533   3.891 130.541  0.00  0.00    +0.000 OA
ENDBRANCH   1  24
BRANCH   5  25
ATOM     25  O   UNL     1      -4.845   1.489 126.484  0.00  0.00    +0.000 OA
ATOM     26  C   UNL     1      -5.667   2.193 125.620  0.00  0.00    +0.000 C 
ENDBRANCH   5  25
BRANCH   6  27
ATOM     27  O   UNL     1      -3.502   3.486 127.594  0.00  0.00    +0.000 OA
ATOM     28  C   UNL     1      -2.143   3.340 127.307  0.00  0.00    +0.000 C 
ENDBRANCH   6  27
BRANCH  10  29
ATOM     29  O   UNL     1      -6.504  -1.150 123.722  0.00  0.00    +0.000 OA
ATOM     30  C   UNL     1      -7.843  -0.802 123.324  0.00  0.00    +0.000 C 
ENDBRANCH  10  29
TORSDOF 5
ENDMDL
MODEL 7
REMARK VINA RESULT:      -6.8      2.208      6.565
REMARK  Name = Colchicine
REMARK  10 active torsions:
REMARK  status: ('A' for Active; 'I' for Inactive)
REMARK    1  A    between atoms: C_1  and  O_2
REMARK    2  A    between atoms: O_2  and  C_3
REMARK    3  A    between atoms: C_7  and  O_8
REMARK    4  A    between atoms: O_8  and  C_9
REMARK    5  A    between atoms: C_10  and  O_11
REMARK    6  A    between atoms: O_11  and  C_12
REMARK    7  A    between atoms: C_16  and  O_17
REMARK    8  A    between atoms: O_17  and  C_18
REMARK    9  A    between atoms: C_23  and  N_26
REMARK   10  A    between atoms: C_27  and  C_28
REMARK                            x       y       z     vdW  Elec       q    Type
REMARK                         _______ _______ _______ _____ _____    ______ ____
ROOT
ATOM      1  C   UNL     1      -7.986   3.488 127.551  0.00  0.00    +0.000 A 
ATOM      2  C   UNL     1      -7.520   2.642 126.631  0.00  0.00    +0.000 A 
ATOM      3  C   UNL     1      -6.948   1.428 127.110  0.00  0.00    +0.000 A 
ATOM      4  C   UNL     1      -7.022   0.725 128.308  0.00  0.00    +0.000 A 
ATOM      5  C   UNL     1      -7.664   1.612 129.164  0.00  0.00    +0.000 A 
ATOM      6  C   UNL     1      -8.096   2.953 128.814  0.00  0.00    +0.000 A 
ATOM      7  C   UNL     1      -6.550  -0.882 128.575  0.00  0.00    +0.000 A 
ATOM      8  C   UNL     1      -7.133  -1.318 129.708  0.00  0.00    +0.000 A 
ATOM      9  C   UNL     1      -7.330  -2.645 130.082  0.00  0.00    +0.000 A 
ATOM     10  C   UNL     1      -6.989  -3.140 131.298  0.00  0.00    +0.000 A 
ATOM     11  C   UNL     1      -5.898  -4.262 130.663  0.00  0.00    +0.000 A 
ATOM     12  O   UNL     1      -5.692  -5.445 130.617  0.00  0.00    +0.000 OA
ATOM     13  C   UNL     1      -5.120  -3.234 129.299  0.00  0.00    +0.000 A 
ATOM     14  C   UNL     1      -5.681  -2.189 128.256  0.00  0.00    +0.000 A 
ATOM     15  C   UNL     1      -5.877  -1.552 126.347  0.00  0.00    +0.000 C 
ATOM     16  C   UNL     1      -5.068  -0.069 126.148  0.00  0.00    +0.000 C 
ATOM     17  C   UNL     1      -6.251   0.773 126.095  0.00  0.00    +0.000 C 
ENDROOT
BRANCH  15  18
ATOM     18  N   UNL     1      -7.395  -1.254 125.343  0.00  0.00    +0.000 N 
ATOM     19  C   UNL     1      -8.870  -2.105 125.261  0.00  0.00    +0.000 C 
ATOM     20  C   UNL     1      -9.392  -3.214 126.451  0.00  0.00    +0.000 C 
ATOM     21  O   UNL     1      -9.522  -2.215 124.205  0.00  0.00    +0.000 OA
ATOM     22  H   UNL     1      -7.267  -1.151 124.292  0.00  0.00    +0.000 HD
ENDBRANCH  15  18
BRANCH   1  24
ATOM     23  C   UNL     1      -8.089   4.987 125.729  0.00  0.00    +0.000 C 
ATOM     24  O   UNL     1      -8.338   4.715 127.106  0.00  0.00    +0.000 OA
ENDBRANCH   1  24
BRANCH   5  25
ATOM     25  O   UNL     1      -7.787   1.167 130.431  0.00  0.00    +0.000 OA
ATOM     26  C   UNL     1      -6.912   1.433 131.470  0.00  0.00    +0.000 C 
ENDBRANCH   5  25
BRANCH   6  27
ATOM     27  O   UNL     1      -8.681   3.590 129.839  0.00  0.00    +0.000 OA
ATOM     28  C   UNL     1      -8.140   4.728 130.441  0.00  0.00    +0.000 C 
ENDBRANCH   6  27
BRANCH  10  29
ATOM     29  O   UNL     1      -6.828  -2.343 132.458  0.00  0.00    +0.000 OA
ATOM     30  C   UNL     1      -5.472  -2.298 132.939  0.00  0.00    +0.000 C 
ENDBRANCH  10  29
TORSDOF 5
ENDMDL
MODEL 8
REMARK VINA RESULT:      -6.7      2.610      7.178
REMARK  Name = Colchicine
REMARK  10 active torsions:
REMARK  status: ('A' for Active; 'I' for Inactive)
REMARK    1  A    between atoms: C_1  and  O_2
REMARK    2  A    between atoms: O_2  and  C_3
REMARK    3  A    between atoms: C_7  and  O_8
REMARK    4  A    between atoms: O_8  and  C_9
REMARK    5  A    between atoms: C_10  and  O_11
REMARK    6  A    between atoms: O_11  and  C_12
REMARK    7  A    between atoms: C_16  and  O_17
REMARK    8  A    between atoms: O_17  and  C_18
REMARK    9  A    between atoms: C_23  and  N_26
REMARK   10  A    between atoms: C_27  and  C_28
REMARK                            x       y       z     vdW  Elec       q    Type
REMARK                         _______ _______ _______ _____ _____    ______ ____
ROOT
ATOM      1  C   UNL     1      -8.348   2.098 128.340  0.00  0.00    +0.000 A 
ATOM      2  C   UNL     1      -8.127   0.921 127.752  0.00  0.00    +0.000 A 
ATOM      3  C   UNL     1      -7.607  -0.118 128.576  0.00  0.00    +0.000 A 
ATOM      4  C   UNL     1      -7.552  -0.334 129.949  0.00  0.00    +0.000 A 
ATOM      5  C   UNL     1      -7.953   0.885 130.484  0.00  0.00    +0.000 A 
ATOM      6  C   UNL     1      -8.302   2.066 129.715  0.00  0.00    +0.000 A 
ATOM      7  C   UNL     1      -7.204  -1.795 130.735  0.00  0.00    +0.000 A 
ATOM      8  C   UNL     1      -7.632  -1.709 132.009  0.00  0.00    +0.000 A 
ATOM      9  C   UNL     1      -7.895  -2.773 132.870  0.00  0.00    +0.000 A 
ATOM     10  C   UNL     1      -7.409  -2.854 134.133  0.00  0.00    +0.000 A 
ATOM     11  C   UNL     1      -6.556  -4.280 133.837  0.00  0.00    +0.000 A 
ATOM     12  O   UNL     1      -6.478  -5.420 134.209  0.00  0.00    +0.000 OA
ATOM     13  C   UNL     1      -5.915  -3.930 132.107  0.00  0.00    +0.000 A 
ATOM     14  C   UNL     1      -6.534  -3.247 130.824  0.00  0.00    +0.000 A 
ATOM     15  C   UNL     1      -6.978  -3.302 128.853  0.00  0.00    +0.000 C 
ATOM     16  C   UNL     1      -6.070  -2.126 128.024  0.00  0.00    +0.000 C 
ATOM     17  C   UNL     1      -7.156  -1.186 127.802  0.00  0.00    +0.000 C 
ENDROOT
BRANCH  15  18
ATOM     18  N   UNL     1      -8.604  -3.149 127.996  0.00  0.00    +0.000 N 
ATOM     19  C   UNL     1      -9.021  -3.287 126.349  0.00  0.00    +0.000 C 
ATOM     20  C   UNL     1      -8.022  -4.028 125.177  0.00  0.00    +0.000 C 
ATOM     21  O   UNL     1      -9.922  -2.604 125.826  0.00  0.00    +0.000 OA
ATOM     22  H   UNL     1      -9.166  -2.266 128.180  0.00  0.00    +0.000 HD
ENDBRANCH  15  18
BRANCH   1  24
ATOM     23  C   UNL     1      -7.866   3.236 126.328  0.00  0.00    +0.000 C 
ATOM     24  O   UNL     1      -8.646   3.128 127.516  0.00  0.00    +0.000 OA
ENDBRANCH   1  24
BRANCH   5  25
ATOM     25  O   UNL     1      -7.908   0.939 131.830  0.00  0.00    +0.000 OA
ATOM     26  C   UNL     1      -6.900   1.515 132.584  0.00  0.00    +0.000 C 
ENDBRANCH   5  25
BRANCH   6  27
ATOM     27  O   UNL     1      -8.643   3.105 130.491  0.00  0.00    +0.000 OA
ATOM     28  C   UNL     1      -9.965   3.498 130.704  0.00  0.00    +0.000 C 
ENDBRANCH   6  27
BRANCH  10  29
ATOM     29  O   UNL     1      -6.981  -1.733 134.888  0.00  0.00    +0.000 OA
ATOM     30  C   UNL     1      -5.570  -1.741 135.174  0.00  0.00    +0.000 C 
ENDBRANCH  10  29
TORSDOF 5
ENDMDL
MODEL 9
REMARK VINA RESULT:      -6.7      2.962      5.863
REMARK  Name = Colchicine
REMARK  10 active torsions:
REMARK  status: ('A' for Active; 'I' for Inactive)
REMARK    1  A    between atoms: C_1  and  O_2
REMARK    2  A    between atoms: O_2  and  C_3
REMARK    3  A    between atoms: C_7  and  O_8
REMARK    4  A    between atoms: O_8  and  C_9
REMARK    5  A    between atoms: C_10  and  O_11
REMARK    6  A    between atoms: O_11  and  C_12
REMARK    7  A    between atoms: C_16  and  O_17
REMARK    8  A    between atoms: O_17  and  C_18
REMARK    9  A    between atoms: C_23  and  N_26
REMARK   10  A    between atoms: C_27  and  C_28
REMARK                            x       y       z     vdW  Elec       q    Type
REMARK                         _______ _______ _______ _____ _____    ______ ____
ROOT
ATOM      1  C   UNL     1      -9.068  -1.866 125.871  0.00  0.00    +0.000 A 
ATOM      2  C   UNL     1      -8.300  -2.328 126.859  0.00  0.00    +0.000 A 
ATOM      3  C   UNL     1      -7.313  -1.438 127.372  0.00  0.00    +0.000 A 
ATOM      4  C   UNL     1      -7.130  -0.060 127.325  0.00  0.00    +0.000 A 
ATOM      5  C   UNL     1      -8.075   0.361 126.397  0.00  0.00    +0.000 A 
ATOM      6  C   UNL     1      -8.983  -0.507 125.670  0.00  0.00    +0.000 A 
ATOM      7  C   UNL     1      -6.081   0.860 128.290  0.00  0.00    +0.000 A 
ATOM      8  C   UNL     1      -6.469   2.149 128.237  0.00  0.00    +0.000 A 
ATOM      9  C   UNL     1      -6.146   3.150 129.151  0.00  0.00    +0.000 A 
ATOM     10  C   UNL     1      -5.659   4.363 128.792  0.00  0.00    +0.000 A 
ATOM     11  C   UNL     1      -4.213   4.162 129.640  0.00  0.00    +0.000 A 
ATOM     12  O   UNL     1      -3.568   4.658 130.524  0.00  0.00    +0.000 OA
ATOM     13  C   UNL     1      -3.869   2.351 129.283  0.00  0.00    +0.000 A 
ATOM     14  C   UNL     1      -4.773   1.059 129.193  0.00  0.00    +0.000 A 
ATOM     15  C   UNL     1      -5.171  -0.843 129.752  0.00  0.00    +0.000 C 
ATOM     16  C   UNL     1      -4.990  -1.886 128.421  0.00  0.00    +0.000 C 
ATOM     17  C   UNL     1      -6.404  -2.117 128.182  0.00  0.00    +0.000 C 
ENDROOT
BRANCH  15  18
ATOM     18  N   UNL     1      -6.673  -1.558 130.549  0.00  0.00    +0.000 N 
ATOM     19  C   UNL     1      -7.985  -0.812 131.341  0.00  0.00    +0.000 C 
ATOM     20  C   UNL     1      -8.371   0.844 131.182  0.00  0.00    +0.000 C 
ATOM     21  O   UNL     1      -8.565  -1.333 132.313  0.00  0.00    +0.000 OA
ATOM     22  H   UNL     1      -6.518  -2.316 131.278  0.00  0.00    +0.000 HD
ENDBRANCH  15  18
BRANCH   1  24
ATOM     23  C   UNL     1      -9.328  -3.388 124.084  0.00  0.00    +0.000 C 
ATOM     24  O   UNL     1      -9.857  -2.776 125.257  0.00  0.00    +0.000 OA
ENDBRANCH   1  24
BRANCH   5  25
ATOM     25  O   UNL     1      -8.035   1.682 126.128  0.00  0.00    +0.000 OA
ATOM     26  C   UNL     1      -7.283   2.282 125.132  0.00  0.00    +0.000 C 
ENDBRANCH   5  25
BRANCH   6  27
ATOM     27  O   UNL     1      -9.782   0.168 124.831  0.00  0.00    +0.000 OA
ATOM     28  C   UNL     1      -9.569   0.225 123.453  0.00  0.00    +0.000 C 
ENDBRANCH   6  27
BRANCH  10  29
ATOM     29  O   UNL     1      -5.833   4.937 127.507  0.00  0.00    +0.000 OA
ATOM     30  C   UNL     1      -4.634   4.929 126.710  0.00  0.00    +0.000 C 
ENDBRANCH  10  29
TORSDOF 5
ENDMDL
