MODEL 1
REMARK VINA RESULT:      -9.1      0.000      0.000
REMARK  Name = Colchiceine
REMARK  9 active torsions:
REMARK  status: ('A' for Active; 'I' for Inactive)
REMARK    1  A    between atoms: C_1  and  O_2
REMARK    2  A    between atoms: O_2  and  C_3
REMARK    3  A    between atoms: C_4  and  O_5
REMARK    4  A    between atoms: O_5  and  C_6
REMARK    5  A    between atoms: C_7  and  O_8
REMARK    6  A    between atoms: O_8  and  C_9
REMARK    7  A    between atoms: C_14  and  N_15
REMARK    8  A    between atoms: C_16  and  C_17
REMARK    9  A    between atoms: C_23  and  O_24
REMARK                            x       y       z     vdW  Elec       q    Type
REMARK                         _______ _______ _______ _____ _____    ______ ____
ROOT
ATOM      1  C   UNL     1      -3.070   4.659 128.615  0.00  0.00    +0.000 A 
ATOM      2  C   UNL     1      -3.648   3.761 129.234  0.00  0.00    +0.000 A 
ATOM      3  C   UNL     1      -4.633   3.327 127.562  0.00  0.00    +0.000 A 
ATOM      4  C   UNL     1      -4.701   4.073 125.395  0.00  0.00    +0.000 A 
ATOM      5  C   UNL     1      -4.791   3.387 126.912  0.00  0.00    +0.000 A 
ATOM      6  C   UNL     1      -5.581   2.855 125.926  0.00  0.00    +0.000 C 
ATOM      7  C   UNL     1      -5.490   3.595 124.249  0.00  0.00    +0.000 C 
ATOM      8  C   UNL     1      -6.381   2.852 123.814  0.00  0.00    +0.000 C 
ATOM      9  C   UNL     1      -6.038   3.520 122.864  0.00  0.00    +0.000 A 
ATOM     10  C   UNL     1      -6.243   3.641 121.776  0.00  0.00    +0.000 A 
ATOM     11  C   UNL     1      -4.706   5.269 121.492  0.00  0.00    +0.000 A 
ATOM     12  O   UNL     1      -4.407   6.103 120.641  0.00  0.00    +0.000 OA
ATOM     13  C   UNL     1      -6.084   4.490 120.037  0.00  0.00    +0.000 A 
ATOM     14  C   UNL     1      -5.697   5.411 118.824  0.00  0.00    +0.000 A 
ATOM     15  C   UNL     1      -5.817   4.716 120.722  0.00  0.00    +0.000 A 
ATOM     16  C   UNL     1      -5.210   4.474 122.929  0.00  0.00    +0.000 A 
ATOM     17  C   UNL     1      -3.510   4.562 127.409  0.00  0.00    +0.000 A 
ENDROOT
BRANCH   8  18
ATOM     18  N   UNL     1      -7.478   3.437 124.189  0.00  0.00    +0.000 N 
ATOM     19  C   UNL     1      -8.472   2.553 124.340  0.00  0.00    +0.000 C 
ATOM     20  C   UNL     1      -8.258   1.059 124.503  0.00  0.00    +0.000 C 
ATOM     21  O   UNL     1      -9.622   2.928 124.345  0.00  0.00    +0.000 OA
ATOM     22  H   UNL     1      -7.570   4.443 124.049  0.00  0.00    +0.000 HD
ENDBRANCH   8  18
BRANCH   1  24
ATOM     23  C   UNL     1      -2.629   6.840 128.150  0.00  0.00    +0.000 C 
ATOM     24  O   UNL     1      -2.242   5.616 128.745  0.00  0.00    +0.000 OA
ENDBRANCH   1  24
BRANCH   2  25
ATOM     25  O   UNL     1      -2.896   3.981 130.841  0.00  0.00    +0.000 OA
ATOM     26  C   UNL     1      -3.810   4.468 132.028  0.00  0.00    +0.000 C 
ENDBRANCH   2  25
BRANCH   3  27
ATOM     27  O   UNL     1      -4.771   2.473 129.442  0.00  0.00    +0.000 OA
ATOM     28  C   UNL     1      -5.240   1.031 130.713  0.00  0.00    +0.000 C 
ENDBRANCH   3  27
BRANCH  13  29
ATOM     29  O   UNL     1      -7.229   3.725 118.903  0.00  0.00    +0.000 OA
ATOM     30  H   UNL     1      -6.590   3.143 118.579  0.00  0.00    +0.000 HD
ENDBRANCH  13  29
TORSDOF 5
ENDMDL
MODEL 2
REMARK VINA RESULT:      -8.5      6.009      8.534
REMARK  Name = Colchiceine
REMARK  9 active torsions:
REMARK  status: ('A' for Active; 'I' for Inactive)
REMARK    1  A    between atoms: C_1  and  O_2
REMARK    2  A    between atoms: O_2  and  C_3
REMARK    3  A    between atoms: C_4  and  O_5
REMARK    4  A    between atoms: O_5  and  C_6
REMARK    5  A    between atoms: C_7  and  O_8
REMARK    6  A    between atoms: O_8  and  C_9
REMARK    7  A    between atoms: C_14  and  N_15
REMARK    8  A    between atoms: C_16  and  C_17
REMARK    9  A    between atoms: C_23  and  O_24
REMARK                            x       y       z     vdW  Elec       q    Type
REMARK                         _______ _______ _______ _____ _____    ______ ____
ROOT
ATOM      1  C   UNL     1      -7.553   5.871 136.027  0.00  0.00    +0.000 A 
ATOM      2  C   UNL     1      -6.482   5.325 135.748  0.00  0.00    +0.000 A 
ATOM      3  C   UNL     1      -7.058   5.303 133.845  0.00  0.00    +0.000 A 
ATOM      4  C   UNL     1      -8.865   5.997 132.616  0.00  0.00    +0.000 A 
ATOM      5  C   UNL     1      -7.467   5.432 133.329  0.00  0.00    +0.000 A 
ATOM      6  C   UNL     1      -7.582   5.306 131.968  0.00  0.00    +0.000 C 
ATOM      7  C   UNL     1      -9.112   5.927 131.167  0.00  0.00    +0.000 C 
ATOM      8  C   UNL     1      -8.754   5.528 130.051  0.00  0.00    +0.000 C 
ATOM      9  C   UNL     1      -9.820   6.072 129.862  0.00  0.00    +0.000 A 
ATOM     10  C   UNL     1     -10.519   6.335 129.037  0.00  0.00    +0.000 A 
ATOM     11  C   UNL     1     -11.990   7.386 130.388  0.00  0.00    +0.000 A 
ATOM     12  O   UNL     1     -13.143   7.807 130.330  0.00  0.00    +0.000 OA
ATOM     13  C   UNL     1     -12.173   7.015 128.278  0.00  0.00    +0.000 A 
ATOM     14  C   UNL     1     -13.592   7.647 128.045  0.00  0.00    +0.000 A 
ATOM     15  C   UNL     1     -11.981   6.894 129.013  0.00  0.00    +0.000 A 
ATOM     16  C   UNL     1     -10.558   6.524 130.784  0.00  0.00    +0.000 A 
ATOM     17  C   UNL     1      -8.141   6.035 134.894  0.00  0.00    +0.000 A 
ENDROOT
BRANCH   8  18
ATOM     18  N   UNL     1      -9.076   4.270 130.058  0.00  0.00    +0.000 N 
ATOM     19  C   UNL     1      -8.435   3.601 129.091  0.00  0.00    +0.000 C 
ATOM     20  C   UNL     1      -7.188   4.110 128.393  0.00  0.00    +0.000 C 
ATOM     21  O   UNL     1      -8.848   2.525 128.722  0.00  0.00    +0.000 OA
ATOM     22  H   UNL     1      -9.930   3.984 130.537  0.00  0.00    +0.000 HD
ENDBRANCH   8  18
BRANCH   1  24
ATOM     23  C   UNL     1      -8.289   7.702 137.156  0.00  0.00    +0.000 C 
ATOM     24  O   UNL     1      -8.258   6.295 136.997  0.00  0.00    +0.000 OA
ENDBRANCH   1  24
BRANCH   2  25
ATOM     25  O   UNL     1      -5.768   5.226 137.384  0.00  0.00    +0.000 OA
ATOM     26  C   UNL     1      -4.521   6.133 137.706  0.00  0.00    +0.000 C 
ENDBRANCH   2  25
BRANCH   3  27
ATOM     27  O   UNL     1      -5.324   4.581 134.714  0.00  0.00    +0.000 OA
ATOM     28  C   UNL     1      -3.614   3.585 134.716  0.00  0.00    +0.000 C 
ENDBRANCH   3  27
BRANCH  13  29
ATOM     29  O   UNL     1     -12.184   6.703 126.521  0.00  0.00    +0.000 OA
ATOM     30  H   UNL     1     -11.414   7.193 126.383  0.00  0.00    +0.000 HD
ENDBRANCH  13  29
TORSDOF 5
ENDMDL
MODEL 3
REMARK VINA RESULT:      -8.2      2.105      8.827
REMARK  Name = Colchiceine
REMARK  9 active torsions:
REMARK  status: ('A' for Active; 'I' for Inactive)
REMARK    1  A    between atoms: C_1  and  O_2
REMARK    2  A    between atoms: O_2  and  C_3
REMARK    3  A    between atoms: C_4  and  O_5
REMARK    4  A    between atoms: O_5  and  C_6
REMARK    5  A    between atoms: C_7  and  O_8
REMARK    6  A    between atoms: O_8  and  C_9
REMARK    7  A    between atoms: C_14  and  N_15
REMARK    8  A    between atoms: C_16  and  C_17
REMARK    9  A    between atoms: C_23  and  O_24
REMARK                            x       y       z     vdW  Elec       q    Type
REMARK                         _______ _______ _______ _____ _____    ______ ____
ROOT
ATOM      1  C   UNL     1      -6.817   2.172 124.314  0.00  0.00    +0.000 A 
ATOM      2  C   UNL     1      -6.374   3.043 123.559  0.00  0.00    +0.000 A 
ATOM      3  C   UNL     1      -5.341   3.765 125.096  0.00  0.00    +0.000 A 
ATOM      4  C   UNL     1      -5.017   3.254 127.308  0.00  0.00    +0.000 A 
ATOM      5  C   UNL     1      -5.116   3.780 125.729  0.00  0.00    +0.000 A 
ATOM      6  C   UNL     1      -4.286   4.468 126.578  0.00  0.00    +0.000 C 
ATOM      7  C   UNL     1      -4.163   3.898 128.318  0.00  0.00    +0.000 C 
ATOM      8  C   UNL     1      -3.411   4.833 128.627  0.00  0.00    +0.000 C 
ATOM      9  C   UNL     1      -3.526   4.176 129.637  0.00  0.00    +0.000 A 
ATOM     10  C   UNL     1      -3.160   4.139 130.688  0.00  0.00    +0.000 A 
ATOM     11  C   UNL     1      -4.289   2.253 131.198  0.00  0.00    +0.000 A 
ATOM     12  O   UNL     1      -4.601   1.619 132.203  0.00  0.00    +0.000 OA
ATOM     13  C   UNL     1      -3.096   3.469 132.510  0.00  0.00    +0.000 A 
ATOM     14  C   UNL     1      -3.309   2.664 133.842  0.00  0.00    +0.000 A 
ATOM     15  C   UNL     1      -3.578   3.293 131.936  0.00  0.00    +0.000 A 
ATOM     16  C   UNL     1      -4.302   3.184 129.754  0.00  0.00    +0.000 A 
ATOM     17  C   UNL     1      -6.231   2.387 125.440  0.00  0.00    +0.000 A 
ENDROOT
BRANCH   8  18
ATOM     18  N   UNL     1      -4.226   5.823 128.839  0.00  0.00    +0.000 N 
ATOM     19  C   UNL     1      -3.589   6.998 128.763  0.00  0.00    +0.000 C 
ATOM     20  C   UNL     1      -2.245   7.191 128.086  0.00  0.00    +0.000 C 
ATOM     21  O   UNL     1      -4.081   7.987 129.257  0.00  0.00    +0.000 OA
ATOM     22  H   UNL     1      -5.113   5.637 129.305  0.00  0.00    +0.000 HD
ENDBRANCH   8  18
BRANCH   1  24
ATOM     23  C   UNL     1      -8.842   1.449 125.052  0.00  0.00    +0.000 C 
ATOM     24  O   UNL     1      -7.625   1.192 124.375  0.00  0.00    +0.000 OA
ENDBRANCH   1  24
BRANCH   2  25
ATOM     25  O   UNL     1      -7.216   2.579 122.052  0.00  0.00    +0.000 OA
ATOM     26  C   UNL     1      -8.421   3.471 121.570  0.00  0.00    +0.000 C 
ENDBRANCH   2  25
BRANCH   3  27
ATOM     27  O   UNL     1      -5.463   4.443 123.145  0.00  0.00    +0.000 OA
ATOM     28  C   UNL     1      -4.710   4.980 121.396  0.00  0.00    +0.000 C 
ENDBRANCH   3  27
BRANCH  13  29
ATOM     29  O   UNL     1      -2.035   4.520 133.485  0.00  0.00    +0.000 OA
ATOM     30  H   UNL     1      -1.292   3.996 133.326  0.00  0.00    +0.000 HD
ENDBRANCH  13  29
TORSDOF 5
ENDMDL
MODEL 4
REMARK VINA RESULT:      -8.1      3.275      6.042
REMARK  Name = Colchiceine
REMARK  9 active torsions:
REMARK  status: ('A' for Active; 'I' for Inactive)
REMARK    1  A    between atoms: C_1  and  O_2
REMARK    2  A    between atoms: O_2  and  C_3
REMARK    3  A    between atoms: C_4  and  O_5
REMARK    4  A    between atoms: O_5  and  C_6
REMARK    5  A    between atoms: C_7  and  O_8
REMARK    6  A    between atoms: O_8  and  C_9
REMARK    7  A    between atoms: C_14  and  N_15
REMARK    8  A    between atoms: C_16  and  C_17
REMARK    9  A    between atoms: C_23  and  O_24
REMARK                            x       y       z     vdW  Elec       q    Type
REMARK                         _______ _______ _______ _____ _____    ______ ____
ROOT
ATOM      1  C   UNL     1      -6.077  -2.542 130.253  0.00  0.00    +0.000 A 
ATOM      2  C   UNL     1      -5.307  -2.102 131.112  0.00  0.00    +0.000 A 
ATOM      3  C   UNL     1      -4.964  -0.547 129.921  0.00  0.00    +0.000 A 
ATOM      4  C   UNL     1      -5.669   0.203 127.872  0.00  0.00    +0.000 A 
ATOM      5  C   UNL     1      -5.044  -0.167 129.373  0.00  0.00    +0.000 A 
ATOM      6  C   UNL     1      -4.642   1.007 128.789  0.00  0.00    +0.000 C 
ATOM      7  C   UNL     1      -5.324   1.432 127.139  0.00  0.00    +0.000 C 
ATOM      8  C   UNL     1      -4.633   2.456 127.058  0.00  0.00    +0.000 C 
ATOM      9  C   UNL     1      -5.296   2.444 126.044  0.00  0.00    +0.000 A 
ATOM     10  C   UNL     1      -5.486   3.052 125.131  0.00  0.00    +0.000 A 
ATOM     11  C   UNL     1      -7.046   1.643 124.309  0.00  0.00    +0.000 A 
ATOM     12  O   UNL     1      -7.635   1.453 123.248  0.00  0.00    +0.000 OA
ATOM     13  C   UNL     1      -6.255   3.416 123.385  0.00  0.00    +0.000 A 
ATOM     14  C   UNL     1      -7.054   3.359 122.034  0.00  0.00    +0.000 A 
ATOM     15  C   UNL     1      -6.268   2.771 123.805  0.00  0.00    +0.000 A 
ATOM     16  C   UNL     1      -6.061   1.494 125.708  0.00  0.00    +0.000 A 
ATOM     17  C   UNL     1      -6.085  -1.645 129.330  0.00  0.00    +0.000 A 
ENDROOT
BRANCH   8  18
ATOM     18  N   UNL     1      -3.482   2.016 126.648  0.00  0.00    +0.000 N 
ATOM     19  C   UNL     1      -2.514   2.915 126.868  0.00  0.00    +0.000 C 
ATOM     20  C   UNL     1      -2.634   4.065 127.850  0.00  0.00    +0.000 C 
ATOM     21  O   UNL     1      -1.469   2.842 126.263  0.00  0.00    +0.000 OA
ATOM     22  H   UNL     1      -3.460   1.245 125.981  0.00  0.00    +0.000 HD
ENDBRANCH   8  18
BRANCH   1  24
ATOM     23  C   UNL     1      -7.983  -3.223 129.218  0.00  0.00    +0.000 C 
ATOM     24  O   UNL     1      -6.819  -3.533 129.962  0.00  0.00    +0.000 OA
ENDBRANCH   1  24
BRANCH   2  25
ATOM     25  O   UNL     1      -5.451  -3.403 132.329  0.00  0.00    +0.000 OA
ATOM     26  C   UNL     1      -4.206  -4.338 132.567  0.00  0.00    +0.000 C 
ENDBRANCH   2  25
BRANCH   3  27
ATOM     27  O   UNL     1      -4.166  -0.997 131.776  0.00  0.00    +0.000 OA
ATOM     28  C   UNL     1      -2.799  -0.883 133.202  0.00  0.00    +0.000 C 
ENDBRANCH   3  27
BRANCH  13  29
ATOM     29  O   UNL     1      -5.569   4.935 122.747  0.00  0.00    +0.000 OA
ATOM     30  H   UNL     1      -6.398   5.260 122.503  0.00  0.00    +0.000 HD
ENDBRANCH  13  29
TORSDOF 5
ENDMDL
MODEL 5
REMARK VINA RESULT:      -8.1      6.212     11.135
REMARK  Name = Colchiceine
REMARK  9 active torsions:
REMARK  status: ('A' for Active; 'I' for Inactive)
REMARK    1  A    between atoms: C_1  and  O_2
REMARK    2  A    between atoms: O_2  and  C_3
REMARK    3  A    between atoms: C_4  and  O_5
REMARK    4  A    between atoms: O_5  and  C_6
REMARK    5  A    between atoms: C_7  and  O_8
REMARK    6  A    between atoms: O_8  and  C_9
REMARK    7  A    between atoms: C_14  and  N_15
REMARK    8  A    between atoms: C_16  and  C_17
REMARK    9  A    between atoms: C_23  and  O_24
REMARK                            x       y       z     vdW  Elec       q    Type
REMARK                         _______ _______ _______ _____ _____    ______ ____
ROOT
ATOM      1  C   UNL     1     -12.059   6.731 130.633  0.00  0.00    +0.000 A 
ATOM      2  C   UNL     1     -11.726   6.685 129.445  0.00  0.00    +0.000 A 
ATOM      3  C   UNL     1      -9.858   6.362 130.045  0.00  0.00    +0.000 A 
ATOM      4  C   UNL     1      -8.735   6.122 132.030  0.00  0.00    +0.000 A 
ATOM      5  C   UNL     1      -9.369   6.260 130.494  0.00  0.00    +0.000 A 
ATOM      6  C   UNL     1      -8.026   6.003 130.607  0.00  0.00    +0.000 C 
ATOM      7  C   UNL     1      -7.314   5.844 132.291  0.00  0.00    +0.000 C 
ATOM      8  C   UNL     1      -6.165   5.706 131.850  0.00  0.00    +0.000 C 
ATOM      9  C   UNL     1      -6.053   5.611 133.052  0.00  0.00    +0.000 A 
ATOM     10  C   UNL     1      -5.284   5.417 133.834  0.00  0.00    +0.000 A 
ATOM     11  C   UNL     1      -6.752   5.513 135.545  0.00  0.00    +0.000 A 
ATOM     12  O   UNL     1      -6.721   5.598 136.770  0.00  0.00    +0.000 OA
ATOM     13  C   UNL     1      -4.619   5.269 135.652  0.00  0.00    +0.000 A 
ATOM     14  C   UNL     1      -4.460   5.227 137.215  0.00  0.00    +0.000 A 
ATOM     15  C   UNL     1      -5.300   5.518 135.395  0.00  0.00    +0.000 A 
ATOM     16  C   UNL     1      -7.000   5.797 133.870  0.00  0.00    +0.000 A 
ATOM     17  C   UNL     1     -10.978   6.485 131.286  0.00  0.00    +0.000 A 
ENDROOT
BRANCH   8  18
ATOM     18  N   UNL     1      -5.775   6.924 131.625  0.00  0.00    +0.000 N 
ATOM     19  C   UNL     1      -4.759   6.954 130.754  0.00  0.00    +0.000 C 
ATOM     20  C   UNL     1      -4.412   5.812 129.818  0.00  0.00    +0.000 C 
ATOM     21  O   UNL     1      -4.050   7.932 130.683  0.00  0.00    +0.000 OA
ATOM     22  H   UNL     1      -6.032   7.652 132.292  0.00  0.00    +0.000 HD
ENDBRANCH   8  18
BRANCH   1  24
ATOM     23  C   UNL     1     -13.113   8.243 131.963  0.00  0.00    +0.000 C 
ATOM     24  O   UNL     1     -13.046   6.943 131.406  0.00  0.00    +0.000 OA
ENDBRANCH   1  24
BRANCH   2  25
ATOM     25  O   UNL     1     -13.316   6.977 128.682  0.00  0.00    +0.000 OA
ATOM     26  C   UNL     1     -13.610   8.412 128.105  0.00  0.00    +0.000 C 
ENDBRANCH   2  25
BRANCH   3  27
ATOM     27  O   UNL     1     -10.622   6.546 128.131  0.00  0.00    +0.000 OA
ATOM     28  C   UNL     1     -10.700   7.318 126.311  0.00  0.00    +0.000 C 
ENDBRANCH   3  27
BRANCH  13  29
ATOM     29  O   UNL     1      -2.854   5.012 135.612  0.00  0.00    +0.000 OA
ATOM     30  H   UNL     1      -2.901   4.285 136.180  0.00  0.00    +0.000 HD
ENDBRANCH  13  29
TORSDOF 5
ENDMDL
MODEL 6
REMARK VINA RESULT:      -7.9      5.337     10.659
REMARK  Name = Colchiceine
REMARK  9 active torsions:
REMARK  status: ('A' for Active; 'I' for Inactive)
REMARK    1  A    between atoms: C_1  and  O_2
REMARK    2  A    between atoms: O_2  and  C_3
REMARK    3  A    between atoms: C_4  and  O_5
REMARK    4  A    between atoms: O_5  and  C_6
REMARK    5  A    between atoms: C_7  and  O_8
REMARK    6  A    between atoms: O_8  and  C_9
REMARK    7  A    between atoms: C_14  and  N_15
REMARK    8  A    between atoms: C_16  and  C_17
REMARK    9  A    between atoms: C_23  and  O_24
REMARK                            x       y       z     vdW  Elec       q    Type
REMARK                         _______ _______ _______ _____ _____    ______ ____
ROOT
ATOM      1  C   UNL     1      -8.175  -1.508 124.489  0.00  0.00    +0.000 A 
ATOM      2  C   UNL     1      -8.445  -0.304 124.526  0.00  0.00    +0.000 A 
ATOM      3  C   UNL     1      -8.018  -0.330 126.467  0.00  0.00    +0.000 A 
ATOM      4  C   UNL     1      -7.296  -1.854 128.021  0.00  0.00    +0.000 A 
ATOM      5  C   UNL     1      -7.814  -0.605 127.045  0.00  0.00    +0.000 A 
ATOM      6  C   UNL     1      -7.566  -0.320 128.364  0.00  0.00    +0.000 C 
ATOM      7  C   UNL     1      -6.991  -1.683 129.450  0.00  0.00    +0.000 C 
ATOM      8  C   UNL     1      -6.997  -0.956 130.454  0.00  0.00    +0.000 C 
ATOM      9  C   UNL     1      -6.596  -2.030 130.846  0.00  0.00    +0.000 A 
ATOM     10  C   UNL     1      -6.223  -2.525 131.771  0.00  0.00    +0.000 A 
ATOM     11  C   UNL     1      -5.841  -4.507 130.761  0.00  0.00    +0.000 A 
ATOM     12  O   UNL     1      -5.606  -5.668 131.088  0.00  0.00    +0.000 OA
ATOM     13  C   UNL     1      -5.623  -4.028 132.846  0.00  0.00    +0.000 A 
ATOM     14  C   UNL     1      -5.182  -5.441 133.371  0.00  0.00    +0.000 A 
ATOM     15  C   UNL     1      -5.917  -4.016 132.134  0.00  0.00    +0.000 A 
ATOM     16  C   UNL     1      -6.544  -3.072 130.131  0.00  0.00    +0.000 A 
ATOM     17  C   UNL     1      -7.791  -1.794 125.684  0.00  0.00    +0.000 A 
ENDROOT
BRANCH   8  18
ATOM     18  N   UNL     1      -8.240  -0.964 130.830  0.00  0.00    +0.000 N 
ATOM     19  C   UNL     1      -8.523   0.102 131.588  0.00  0.00    +0.000 C 
ATOM     20  C   UNL     1      -7.676   1.361 131.630  0.00  0.00    +0.000 C 
ATOM     21  O   UNL     1      -9.501   0.097 132.301  0.00  0.00    +0.000 OA
ATOM     22  H   UNL     1      -8.760  -1.841 130.788  0.00  0.00    +0.000 HD
ENDBRANCH   8  18
BRANCH   1  24
ATOM     23  C   UNL     1      -9.352  -3.286 123.702  0.00  0.00    +0.000 C 
ATOM     24  O   UNL     1      -8.158  -2.525 123.725  0.00  0.00    +0.000 OA
ENDBRANCH   1  24
BRANCH   2  25
ATOM     25  O   UNL     1      -8.890  -0.050 122.813  0.00  0.00    +0.000 OA
ATOM     26  C   UNL     1     -10.340   0.477 122.493  0.00  0.00    +0.000 C 
ENDBRANCH   2  25
BRANCH   3  27
ATOM     27  O   UNL     1      -8.675   1.229 125.275  0.00  0.00    +0.000 OA
ATOM     28  C   UNL     1      -8.679   3.100 124.632  0.00  0.00    +0.000 C 
ENDBRANCH   3  27
BRANCH  13  29
ATOM     29  O   UNL     1      -5.424  -3.497 134.537  0.00  0.00    +0.000 OA
ATOM     30  H   UNL     1      -4.746  -4.103 134.695  0.00  0.00    +0.000 HD
ENDBRANCH  13  29
TORSDOF 5
ENDMDL
MODEL 7
REMARK VINA RESULT:      -7.9      3.040      4.377
REMARK  Name = Colchiceine
REMARK  9 active torsions:
REMARK  status: ('A' for Active; 'I' for Inactive)
REMARK    1  A    between atoms: C_1  and  O_2
REMARK    2  A    between atoms: O_2  and  C_3
REMARK    3  A    between atoms: C_4  and  O_5
REMARK    4  A    between atoms: O_5  and  C_6
REMARK    5  A    between atoms: C_7  and  O_8
REMARK    6  A    between atoms: O_8  and  C_9
REMARK    7  A    between atoms: C_14  and  N_15
REMARK    8  A    between atoms: C_16  and  C_17
REMARK    9  A    between atoms: C_23  and  O_24
REMARK                            x       y       z     vdW  Elec       q    Type
REMARK                         _______ _______ _______ _____ _____    ______ ____
ROOT
ATOM      1  C   UNL     1      -6.714   0.043 129.314  0.00  0.00    +0.000 A 
ATOM      2  C   UNL     1      -7.349  -1.010 129.197  0.00  0.00    +0.000 A 
ATOM      3  C   UNL     1      -7.533  -0.610 127.257  0.00  0.00    +0.000 A 
ATOM      4  C   UNL     1      -6.863   1.024 125.795  0.00  0.00    +0.000 A 
ATOM      5  C   UNL     1      -7.434  -0.260 126.693  0.00  0.00    +0.000 A 
ATOM      6  C   UNL     1      -7.692  -0.262 125.346  0.00  0.00    +0.000 C 
ATOM      7  C   UNL     1      -7.066   1.142 124.343  0.00  0.00    +0.000 C 
ATOM      8  C   UNL     1      -7.599   0.711 123.311  0.00  0.00    +0.000 C 
ATOM      9  C   UNL     1      -7.016   1.715 122.967  0.00  0.00    +0.000 A 
ATOM     10  C   UNL     1      -6.798   2.316 122.055  0.00  0.00    +0.000 A 
ATOM     11  C   UNL     1      -5.527   3.828 123.146  0.00  0.00    +0.000 A 
ATOM     12  O   UNL     1      -5.046   4.939 122.935  0.00  0.00    +0.000 OA
ATOM     13  C   UNL     1      -6.102   3.842 121.075  0.00  0.00    +0.000 A 
ATOM     14  C   UNL     1      -5.414   5.186 120.644  0.00  0.00    +0.000 A 
ATOM     15  C   UNL     1      -6.158   3.727 121.834  0.00  0.00    +0.000 A 
ATOM     16  C   UNL     1      -6.427   2.502 123.763  0.00  0.00    +0.000 A 
ATOM     17  C   UNL     1      -6.633   0.512 128.118  0.00  0.00    +0.000 A 
ENDROOT
BRANCH   8  18
ATOM     18  N   UNL     1      -8.829   1.118 123.408  0.00  0.00    +0.000 N 
ATOM     19  C   UNL     1      -9.678   0.219 122.896  0.00  0.00    +0.000 C 
ATOM     20  C   UNL     1      -9.329  -1.238 122.659  0.00  0.00    +0.000 C 
ATOM     21  O   UNL     1     -10.800   0.553 122.585  0.00  0.00    +0.000 OA
ATOM     22  H   UNL     1      -9.006   2.111 123.561  0.00  0.00    +0.000 HD
ENDBRANCH   8  18
BRANCH   1  24
ATOM     23  C   UNL     1      -4.748   0.651 130.280  0.00  0.00    +0.000 C 
ATOM     24  O   UNL     1      -6.151   0.803 130.164  0.00  0.00    +0.000 OA
ENDBRANCH   1  24
BRANCH   2  25
ATOM     25  O   UNL     1      -7.321  -1.561 130.896  0.00  0.00    +0.000 OA
ATOM     26  C   UNL     1      -6.595  -2.920 131.224  0.00  0.00    +0.000 C 
ENDBRANCH   2  25
BRANCH   3  27
ATOM     27  O   UNL     1      -8.263  -2.203 128.358  0.00  0.00    +0.000 OA
ATOM     28  C   UNL     1      -9.047  -4.007 128.576  0.00  0.00    +0.000 C 
ENDBRANCH   3  27
BRANCH  13  29
ATOM     29  O   UNL     1      -6.593   3.713 119.364  0.00  0.00    +0.000 OA
ATOM     30  H   UNL     1      -5.758   3.421 119.099  0.00  0.00    +0.000 HD
ENDBRANCH  13  29
TORSDOF 5
ENDMDL
MODEL 8
REMARK VINA RESULT:      -7.8      6.685      7.679
REMARK  Name = Colchiceine
REMARK  9 active torsions:
REMARK  status: ('A' for Active; 'I' for Inactive)
REMARK    1  A    between atoms: C_1  and  O_2
REMARK    2  A    between atoms: O_2  and  C_3
REMARK    3  A    between atoms: C_4  and  O_5
REMARK    4  A    between atoms: O_5  and  C_6
REMARK    5  A    between atoms: C_7  and  O_8
REMARK    6  A    between atoms: O_8  and  C_9
REMARK    7  A    between atoms: C_14  and  N_15
REMARK    8  A    between atoms: C_16  and  C_17
REMARK    9  A    between atoms: C_23  and  O_24
REMARK                            x       y       z     vdW  Elec       q    Type
REMARK                         _______ _______ _______ _____ _____    ______ ____
ROOT
ATOM      1  C   UNL     1      -9.177   2.543 132.122  0.00  0.00    +0.000 A 
ATOM      2  C   UNL     1      -8.290   2.328 132.953  0.00  0.00    +0.000 A 
ATOM      3  C   UNL     1      -7.546   0.962 131.714  0.00  0.00    +0.000 A 
ATOM      4  C   UNL     1      -8.025   0.122 129.635  0.00  0.00    +0.000 A 
ATOM      5  C   UNL     1      -7.511   0.606 131.146  0.00  0.00    +0.000 A 
ATOM      6  C   UNL     1      -6.774  -0.353 130.500  0.00  0.00    +0.000 C 
ATOM      7  C   UNL     1      -7.323  -0.893 128.835  0.00  0.00    +0.000 C 
ATOM      8  C   UNL     1      -6.429  -1.746 128.757  0.00  0.00    +0.000 C 
ATOM      9  C   UNL     1      -7.021  -1.817 127.704  0.00  0.00    +0.000 A 
ATOM     10  C   UNL     1      -6.990  -2.359 126.732  0.00  0.00    +0.000 A 
ATOM     11  C   UNL     1      -8.757  -1.257 125.863  0.00  0.00    +0.000 A 
ATOM     12  O   UNL     1      -9.520  -1.364 124.906  0.00  0.00    +0.000 OA
ATOM     13  C   UNL     1      -7.649  -2.872 124.978  0.00  0.00    +0.000 A 
ATOM     14  C   UNL     1      -8.467  -3.021 123.645  0.00  0.00    +0.000 A 
ATOM     15  C   UNL     1      -7.984  -2.448 125.526  0.00  0.00    +0.000 A 
ATOM     16  C   UNL     1      -8.074  -1.169 127.437  0.00  0.00    +0.000 A 
ATOM     17  C   UNL     1      -8.888   1.777 131.128  0.00  0.00    +0.000 A 
ENDROOT
BRANCH   8  18
ATOM     18  N   UNL     1      -6.909  -2.755 129.420  0.00  0.00    +0.000 N 
ATOM     19  C   UNL     1      -5.932  -3.576 129.827  0.00  0.00    +0.000 C 
ATOM     20  C   UNL     1      -4.472  -3.176 129.915  0.00  0.00    +0.000 C 
ATOM     21  O   UNL     1      -6.191  -4.714 130.147  0.00  0.00    +0.000 OA
ATOM     22  H   UNL     1      -7.898  -2.983 129.318  0.00  0.00    +0.000 HD
ENDBRANCH   8  18
BRANCH   1  24
ATOM     23  C   UNL     1     -10.334   3.828 130.646  0.00  0.00    +0.000 C 
ATOM     24  O   UNL     1     -10.240   3.211 131.917  0.00  0.00    +0.000 OA
ENDBRANCH   1  24
BRANCH   2  25
ATOM     25  O   UNL     1      -8.785   3.489 134.219  0.00  0.00    +0.000 OA
ATOM     26  C   UNL     1      -7.852   4.728 134.496  0.00  0.00    +0.000 C 
ENDBRANCH   2  25
BRANCH   3  27
ATOM     27  O   UNL     1      -6.901   1.537 133.595  0.00  0.00    +0.000 OA
ATOM     28  C   UNL     1      -5.539   1.822 135.001  0.00  0.00    +0.000 C 
ENDBRANCH   3  27
BRANCH  13  29
ATOM     29  O   UNL     1      -6.620  -4.174 124.322  0.00  0.00    +0.000 OA
ATOM     30  H   UNL     1      -6.076  -3.579 123.872  0.00  0.00    +0.000 HD
ENDBRANCH  13  29
TORSDOF 5
ENDMDL
MODEL 9
REMARK VINA RESULT:      -7.8      8.729     13.388
REMARK  Name = Colchiceine
REMARK  9 active torsions:
REMARK  status: ('A' for Active; 'I' for Inactive)
REMARK    1  A    between atoms: C_1  and  O_2
REMARK    2  A    between atoms: O_2  and  C_3
REMARK    3  A    between atoms: C_4  and  O_5
REMARK    4  A    between atoms: O_5  and  C_6
REMARK    5  A    between atoms: C_7  and  O_8
REMARK    6  A    between atoms: O_8  and  C_9
REMARK    7  A    between atoms: C_14  and  N_15
REMARK    8  A    between atoms: C_16  and  C_17
REMARK    9  A    between atoms: C_23  and  O_24
REMARK                            x       y       z     vdW  Elec       q    Type
REMARK                         _______ _______ _______ _____ _____    ______ ____
ROOT
ATOM      1  C   UNL     1      -8.546   2.854 132.973  0.00  0.00    +0.000 A 
ATOM      2  C   UNL     1      -7.444   2.298 133.024  0.00  0.00    +0.000 A 
ATOM      3  C   UNL     1      -6.926   3.592 134.441  0.00  0.00    +0.000 A 
ATOM      4  C   UNL     1      -7.887   5.341 135.571  0.00  0.00    +0.000 A 
ATOM      5  C   UNL     1      -7.021   4.101 134.870  0.00  0.00    +0.000 A 
ATOM      6  C   UNL     1      -6.407   4.824 135.861  0.00  0.00    +0.000 C 
ATOM      7  C   UNL     1      -7.349   6.189 136.646  0.00  0.00    +0.000 C 
ATOM      8  C   UNL     1      -6.385   6.522 137.349  0.00  0.00    +0.000 C 
ATOM      9  C   UNL     1      -7.280   7.273 137.668  0.00  0.00    +0.000 A 
ATOM     10  C   UNL     1      -7.498   8.101 138.379  0.00  0.00    +0.000 A 
ATOM     11  C   UNL     1      -9.642   8.338 137.717  0.00  0.00    +0.000 A 
ATOM     12  O   UNL     1     -10.553   9.151 137.847  0.00  0.00    +0.000 OA
ATOM     13  C   UNL     1      -8.568   9.528 139.149  0.00  0.00    +0.000 A 
ATOM     14  C   UNL     1      -9.701  10.556 139.504  0.00  0.00    +0.000 A 
ATOM     15  C   UNL     1      -8.693   9.102 138.520  0.00  0.00    +0.000 A 
ATOM     16  C   UNL     1      -8.408   7.316 137.097  0.00  0.00    +0.000 A 
ATOM     17  C   UNL     1      -8.499   3.759 133.886  0.00  0.00    +0.000 A 
ENDROOT
BRANCH   8  18
ATOM     18  N   UNL     1      -5.668   7.257 136.555  0.00  0.00    +0.000 N 
ATOM     19  C   UNL     1      -4.411   7.370 137.004  0.00  0.00    +0.000 C 
ATOM     20  C   UNL     1      -3.785   6.428 138.015  0.00  0.00    +0.000 C 
ATOM     21  O   UNL     1      -3.703   8.268 136.606  0.00  0.00    +0.000 OA
ATOM     22  H   UNL     1      -6.141   7.878 135.899  0.00  0.00    +0.000 HD
ENDBRANCH   8  18
BRANCH   1  24
ATOM     23  C   UNL     1      -9.786   3.850 131.348  0.00  0.00    +0.000 C 
ATOM     24  O   UNL     1      -9.655   2.859 132.352  0.00  0.00    +0.000 OA
ENDBRANCH   1  24
BRANCH   2  25
ATOM     25  O   UNL     1      -7.686   1.050 131.767  0.00  0.00    +0.000 OA
ATOM     26  C   UNL     1      -7.771  -0.455 132.222  0.00  0.00    +0.000 C 
ENDBRANCH   2  25
BRANCH   3  27
ATOM     27  O   UNL     1      -5.828   2.068 133.572  0.00  0.00    +0.000 OA
ATOM     28  C   UNL     1      -4.175   1.038 133.225  0.00  0.00    +0.000 C 
ENDBRANCH   3  27
BRANCH  13  29
ATOM     29  O   UNL     1      -7.593  10.405 140.359  0.00  0.00    +0.000 OA
ATOM     30  H   UNL     1      -7.628  11.194 139.882  0.00  0.00    +0.000 HD
ENDBRANCH  13  29
TORSDOF 5
ENDMDL
