MODEL 1
REMARK VINA RESULT:     -10.6      0.000      0.000
REMARK  Name = Conivaptan
REMARK  5 active torsions:
REMARK  status: ('A' for Active; 'I' for Inactive)
REMARK    1  A    between atoms: C_1  and  C_2
REMARK    2  A    between atoms: C_9  and  C_11
REMARK    3  A    between atoms: C_14  and  N_15
REMARK    4  A    between atoms: C_16  and  C_18
REMARK    5  A    between atoms: C_23  and  C_24
REMARK                            x       y       z     vdW  Elec       q    Type
REMARK                         _______ _______ _______ _____ _____    ______ ____
ROOT
ATOM      1  C   UNL     1      -8.561  -1.899 125.503  0.00  0.00    +0.000 A 
ATOM      2  C   UNL     1      -9.305  -2.902 126.133  0.00  0.00    +0.000 A 
ATOM      3  C   UNL     1      -9.010  -3.312 127.440  0.00  0.00    +0.000 A 
ATOM      4  C   UNL     1      -7.751  -3.043 127.955  0.00  0.00    +0.000 A 
ATOM      5  C   UNL     1      -6.872  -2.297 127.156  0.00  0.00    +0.000 A 
ATOM      6  C   UNL     1      -7.293  -1.650 125.994  0.00  0.00    +0.000 A 
ENDROOT
BRANCH   1  15
ATOM      7  C   UNL     1      -4.915   4.542 121.823  0.00  0.00    +0.000 C 
ATOM      8  C   UNL     1      -6.019   3.835 122.503  0.00  0.00    +0.000 A 
ATOM      9  N   UNL     1      -6.009   3.433 123.755  0.00  0.00    +0.000 NA
ATOM     10  C   UNL     1      -7.203   2.798 123.940  0.00  0.00    +0.000 A 
ATOM     11  C   UNL     1      -7.976   2.858 122.809  0.00  0.00    +0.000 A 
ATOM     12  C   UNL     1      -9.328   2.295 122.604  0.00  0.00    +0.000 C 
ATOM     13  C   UNL     1      -9.291   0.785 122.849  0.00  0.00    +0.000 C 
ATOM     14  N   UNL     1      -8.944   0.271 124.184  0.00  0.00    +0.000 N 
ATOM     15  C   UNL     1      -8.998  -1.159 124.281  0.00  0.00    +0.000 C 
ATOM     16  O   UNL     1      -9.302  -1.864 123.313  0.00  0.00    +0.000 OA
ATOM     17  C   UNL     1      -8.534   1.145 125.256  0.00  0.00    +0.000 A 
ATOM     18  C   UNL     1      -9.102   0.926 126.505  0.00  0.00    +0.000 A 
ATOM     19  C   UNL     1      -8.633   1.477 127.690  0.00  0.00    +0.000 A 
ATOM     20  C   UNL     1      -7.705   2.490 127.622  0.00  0.00    +0.000 A 
ATOM     21  C   UNL     1      -7.265   2.908 126.368  0.00  0.00    +0.000 A 
ATOM     22  C   UNL     1      -7.663   2.242 125.183  0.00  0.00    +0.000 A 
ATOM     23  N   UNL     1      -7.211   3.520 121.889  0.00  0.00    +0.000 N 
ATOM     24  H   UNL     1      -7.462   3.736 120.933  0.00  0.00    +0.000 HD
ENDBRANCH   1  15
BRANCH   4  25
ATOM     25  N   UNL     1      -7.402  -3.546 129.236  0.00  0.00    +0.000 N 
ATOM     26  C   UNL     1      -6.108  -3.472 129.742  0.00  0.00    +0.000 C 
ATOM     27  O   UNL     1      -5.121  -3.122 129.118  0.00  0.00    +0.000 OA
ATOM     28  H   UNL     1      -8.135  -3.960 129.798  0.00  0.00    +0.000 HD
BRANCH  26  29
ATOM     29  C   UNL     1      -5.875  -3.860 131.154  0.00  0.00    +0.000 A 
ATOM     30  C   UNL     1      -5.380  -5.129 131.476  0.00  0.00    +0.000 A 
ATOM     31  C   UNL     1      -5.076  -5.427 132.805  0.00  0.00    +0.000 A 
ATOM     32  C   UNL     1      -5.143  -4.431 133.781  0.00  0.00    +0.000 A 
ATOM     33  C   UNL     1      -5.539  -3.138 133.441  0.00  0.00    +0.000 A 
ATOM     34  C   UNL     1      -5.989  -2.849 132.146  0.00  0.00    +0.000 A 
BRANCH  34  35
ATOM     35  C   UNL     1      -6.583  -1.531 131.844  0.00  0.00    +0.000 A 
ATOM     36  C   UNL     1      -7.966  -1.332 132.007  0.00  0.00    +0.000 A 
ATOM     37  C   UNL     1      -8.591  -0.198 131.491  0.00  0.00    +0.000 A 
ATOM     38  C   UNL     1      -7.825   0.815 130.924  0.00  0.00    +0.000 A 
ATOM     39  C   UNL     1      -6.437   0.692 130.874  0.00  0.00    +0.000 A 
ATOM     40  C   UNL     1      -5.824  -0.494 131.285  0.00  0.00    +0.000 A 
ENDBRANCH  34  35
ENDBRANCH  26  29
ENDBRANCH   4  25
TORSDOF 4
ENDMDL
MODEL 2
REMARK VINA RESULT:     -10.3      1.398      2.298
REMARK  Name = Conivaptan
REMARK  5 active torsions:
REMARK  status: ('A' for Active; 'I' for Inactive)
REMARK    1  A    between atoms: C_1  and  C_2
REMARK    2  A    between atoms: C_9  and  C_11
REMARK    3  A    between atoms: C_14  and  N_15
REMARK    4  A    between atoms: C_16  and  C_18
REMARK    5  A    between atoms: C_23  and  C_24
REMARK                            x       y       z     vdW  Elec       q    Type
REMARK                         _______ _______ _______ _____ _____    ______ ____
ROOT
ATOM      1  C   UNL     1      -8.305  -1.886 125.881  0.00  0.00    +0.000 A 
ATOM      2  C   UNL     1      -9.042  -2.836 126.596  0.00  0.00    +0.000 A 
ATOM      3  C   UNL     1      -8.724  -3.152 127.923  0.00  0.00    +0.000 A 
ATOM      4  C   UNL     1      -7.454  -2.853 128.395  0.00  0.00    +0.000 A 
ATOM      5  C   UNL     1      -6.587  -2.171 127.527  0.00  0.00    +0.000 A 
ATOM      6  C   UNL     1      -7.028  -1.608 126.329  0.00  0.00    +0.000 A 
ENDROOT
BRANCH   1  15
ATOM      7  C   UNL     1      -4.968   4.562 121.931  0.00  0.00    +0.000 C 
ATOM      8  C   UNL     1      -6.042   3.828 122.629  0.00  0.00    +0.000 A 
ATOM      9  N   UNL     1      -6.032   3.490 123.901  0.00  0.00    +0.000 NA
ATOM     10  C   UNL     1      -7.190   2.797 124.099  0.00  0.00    +0.000 A 
ATOM     11  C   UNL     1      -7.945   2.755 122.956  0.00  0.00    +0.000 A 
ATOM     12  C   UNL     1      -9.259   2.105 122.760  0.00  0.00    +0.000 C 
ATOM     13  C   UNL     1      -9.140   0.615 123.082  0.00  0.00    +0.000 C 
ATOM     14  N   UNL     1      -8.789   0.189 124.447  0.00  0.00    +0.000 N 
ATOM     15  C   UNL     1      -8.763  -1.235 124.616  0.00  0.00    +0.000 C 
ATOM     16  O   UNL     1      -9.008  -2.004 123.681  0.00  0.00    +0.000 OA
ATOM     17  C   UNL     1      -8.448   1.138 125.479  0.00  0.00    +0.000 A 
ATOM     18  C   UNL     1      -9.025   0.949 126.729  0.00  0.00    +0.000 A 
ATOM     19  C   UNL     1      -8.609   1.586 127.891  0.00  0.00    +0.000 A 
ATOM     20  C   UNL     1      -7.739   2.646 127.785  0.00  0.00    +0.000 A 
ATOM     21  C   UNL     1      -7.302   3.026 126.518  0.00  0.00    +0.000 A 
ATOM     22  C   UNL     1      -7.640   2.279 125.363  0.00  0.00    +0.000 A 
ATOM     23  N   UNL     1      -7.203   3.414 122.015  0.00  0.00    +0.000 N 
ATOM     24  H   UNL     1      -7.449   3.566 121.045  0.00  0.00    +0.000 HD
ENDBRANCH   1  15
BRANCH   4  25
ATOM     25  N   UNL     1      -7.083  -3.263 129.703  0.00  0.00    +0.000 N 
ATOM     26  C   UNL     1      -7.354  -2.497 130.832  0.00  0.00    +0.000 C 
ATOM     27  O   UNL     1      -7.787  -1.357 130.829  0.00  0.00    +0.000 OA
ATOM     28  H   UNL     1      -6.617  -4.155 129.804  0.00  0.00    +0.000 HD
BRANCH  26  29
ATOM     29  C   UNL     1      -7.090  -3.084 132.167  0.00  0.00    +0.000 A 
ATOM     30  C   UNL     1      -8.131  -3.274 133.084  0.00  0.00    +0.000 A 
ATOM     31  C   UNL     1      -7.867  -3.922 134.292  0.00  0.00    +0.000 A 
ATOM     32  C   UNL     1      -6.612  -4.485 134.527  0.00  0.00    +0.000 A 
ATOM     33  C   UNL     1      -5.604  -4.385 133.568  0.00  0.00    +0.000 A 
ATOM     34  C   UNL     1      -5.796  -3.617 132.413  0.00  0.00    +0.000 A 
BRANCH  34  35
ATOM     35  C   UNL     1      -4.666  -3.359 131.497  0.00  0.00    +0.000 A 
ATOM     36  C   UNL     1      -3.986  -2.129 131.553  0.00  0.00    +0.000 A 
ATOM     37  C   UNL     1      -3.098  -1.757 130.545  0.00  0.00    +0.000 A 
ATOM     38  C   UNL     1      -2.776  -2.662 129.539  0.00  0.00    +0.000 A 
ATOM     39  C   UNL     1      -3.343  -3.937 129.543  0.00  0.00    +0.000 A 
ATOM     40  C   UNL     1      -4.319  -4.265 130.486  0.00  0.00    +0.000 A 
ENDBRANCH  34  35
ENDBRANCH  26  29
ENDBRANCH   4  25
TORSDOF 4
ENDMDL
MODEL 3
REMARK VINA RESULT:     -10.3      4.228      7.530
REMARK  Name = Conivaptan
REMARK  5 active torsions:
REMARK  status: ('A' for Active; 'I' for Inactive)
REMARK    1  A    between atoms: C_1  and  C_2
REMARK    2  A    between atoms: C_9  and  C_11
REMARK    3  A    between atoms: C_14  and  N_15
REMARK    4  A    between atoms: C_16  and  C_18
REMARK    5  A    between atoms: C_23  and  C_24
REMARK                            x       y       z     vdW  Elec       q    Type
REMARK                         _______ _______ _______ _____ _____    ______ ____
ROOT
ATOM      1  C   UNL     1      -7.265   2.524 130.480  0.00  0.00    +0.000 A 
ATOM      2  C   UNL     1      -7.306   1.127 130.537  0.00  0.00    +0.000 A 
ATOM      3  C   UNL     1      -7.617   0.363 129.404  0.00  0.00    +0.000 A 
ATOM      4  C   UNL     1      -8.285   0.971 128.352  0.00  0.00    +0.000 A 
ATOM      5  C   UNL     1      -8.537   2.348 128.456  0.00  0.00    +0.000 A 
ATOM      6  C   UNL     1      -7.956   3.135 129.451  0.00  0.00    +0.000 A 
ENDROOT
BRANCH   1  15
ATOM      7  C   UNL     1      -3.726   9.920 129.436  0.00  0.00    +0.000 C 
ATOM      8  C   UNL     1      -3.765   8.496 129.823  0.00  0.00    +0.000 A 
ATOM      9  N   UNL     1      -3.923   7.485 128.995  0.00  0.00    +0.000 NA
ATOM     10  C   UNL     1      -3.940   6.372 129.783  0.00  0.00    +0.000 A 
ATOM     11  C   UNL     1      -3.736   6.694 131.100  0.00  0.00    +0.000 A 
ATOM     12  C   UNL     1      -3.685   5.779 132.261  0.00  0.00    +0.000 C 
ATOM     13  C   UNL     1      -5.000   5.003 132.353  0.00  0.00    +0.000 C 
ATOM     14  N   UNL     1      -5.389   4.094 131.262  0.00  0.00    +0.000 N 
ATOM     15  C   UNL     1      -6.617   3.396 131.506  0.00  0.00    +0.000 C 
ATOM     16  O   UNL     1      -7.269   3.572 132.541  0.00  0.00    +0.000 OA
ATOM     17  C   UNL     1      -4.617   3.983 130.048  0.00  0.00    +0.000 A 
ATOM     18  C   UNL     1      -4.362   2.702 129.574  0.00  0.00    +0.000 A 
ATOM     19  C   UNL     1      -3.883   2.415 128.302  0.00  0.00    +0.000 A 
ATOM     20  C   UNL     1      -3.397   3.447 127.534  0.00  0.00    +0.000 A 
ATOM     21  C   UNL     1      -3.420   4.737 128.059  0.00  0.00    +0.000 A 
ATOM     22  C   UNL     1      -4.031   5.019 129.306  0.00  0.00    +0.000 A 
ATOM     23  N   UNL     1      -3.629   8.057 131.121  0.00  0.00    +0.000 N 
ATOM     24  H   UNL     1      -3.485   8.643 131.933  0.00  0.00    +0.000 HD
ENDBRANCH   1  15
BRANCH   4  25
ATOM     25  N   UNL     1      -8.701   0.186 127.245  0.00  0.00    +0.000 N 
ATOM     26  C   UNL     1      -7.917   0.022 126.107  0.00  0.00    +0.000 C 
ATOM     27  O   UNL     1      -6.888   0.628 125.861  0.00  0.00    +0.000 OA
ATOM     28  H   UNL     1      -9.598  -0.278 127.304  0.00  0.00    +0.000 HD
BRANCH  26  29
ATOM     29  C   UNL     1      -8.352  -0.956 125.081  0.00  0.00    +0.000 A 
ATOM     30  C   UNL     1      -8.758  -0.528 123.811  0.00  0.00    +0.000 A 
ATOM     31  C   UNL     1      -9.063  -1.478 122.836  0.00  0.00    +0.000 A 
ATOM     32  C   UNL     1      -8.844  -2.834 123.084  0.00  0.00    +0.000 A 
ATOM     33  C   UNL     1      -8.342  -3.253 124.316  0.00  0.00    +0.000 A 
ATOM     34  C   UNL     1      -8.165  -2.336 125.360  0.00  0.00    +0.000 A 
BRANCH  34  35
ATOM     35  C   UNL     1      -7.816  -2.812 126.714  0.00  0.00    +0.000 A 
ATOM     36  C   UNL     1      -8.799  -3.415 127.520  0.00  0.00    +0.000 A 
ATOM     37  C   UNL     1      -8.574  -3.637 128.877  0.00  0.00    +0.000 A 
ATOM     38  C   UNL     1      -7.318  -3.382 129.420  0.00  0.00    +0.000 A 
ATOM     39  C   UNL     1      -6.291  -2.907 128.604  0.00  0.00    +0.000 A 
ATOM     40  C   UNL     1      -6.552  -2.576 127.272  0.00  0.00    +0.000 A 
ENDBRANCH  34  35
ENDBRANCH  26  29
ENDBRANCH   4  25
TORSDOF 4
ENDMDL
MODEL 4
REMARK VINA RESULT:     -10.1      2.887      9.484
REMARK  Name = Conivaptan
REMARK  5 active torsions:
REMARK  status: ('A' for Active; 'I' for Inactive)
REMARK    1  A    between atoms: C_1  and  C_2
REMARK    2  A    between atoms: C_9  and  C_11
REMARK    3  A    between atoms: C_14  and  N_15
REMARK    4  A    between atoms: C_16  and  C_18
REMARK    5  A    between atoms: C_23  and  C_24
REMARK                            x       y       z     vdW  Elec       q    Type
REMARK                         _______ _______ _______ _____ _____    ______ ____
ROOT
ATOM      1  C   UNL     1      -7.097   0.693 131.452  0.00  0.00    +0.000 A 
ATOM      2  C   UNL     1      -8.159   1.250 130.731  0.00  0.00    +0.000 A 
ATOM      3  C   UNL     1      -7.991   1.680 129.409  0.00  0.00    +0.000 A 
ATOM      4  C   UNL     1      -6.710   1.946 128.950  0.00  0.00    +0.000 A 
ATOM      5  C   UNL     1      -5.644   1.687 129.826  0.00  0.00    +0.000 A 
ATOM      6  C   UNL     1      -5.817   0.982 131.018  0.00  0.00    +0.000 A 
ENDROOT
BRANCH   1  15
ATOM      7  C   UNL     1      -3.020  -6.120 133.749  0.00  0.00    +0.000 C 
ATOM      8  C   UNL     1      -4.218  -5.324 133.415  0.00  0.00    +0.000 A 
ATOM      9  N   UNL     1      -4.507  -4.846 132.223  0.00  0.00    +0.000 NA
ATOM     10  C   UNL     1      -5.667  -4.147 132.386  0.00  0.00    +0.000 A 
ATOM     11  C   UNL     1      -6.125  -4.241 133.675  0.00  0.00    +0.000 A 
ATOM     12  C   UNL     1      -7.342  -3.630 134.251  0.00  0.00    +0.000 C 
ATOM     13  C   UNL     1      -7.279  -2.111 134.076  0.00  0.00    +0.000 C 
ATOM     14  N   UNL     1      -7.258  -1.533 132.723  0.00  0.00    +0.000 N 
ATOM     15  C   UNL     1      -7.249  -0.099 132.710  0.00  0.00    +0.000 C 
ATOM     16  O   UNL     1      -7.250   0.559 133.756  0.00  0.00    +0.000 OA
ATOM     17  C   UNL     1      -7.191  -2.358 131.541  0.00  0.00    +0.000 A 
ATOM     18  C   UNL     1      -8.047  -2.038 130.495  0.00  0.00    +0.000 A 
ATOM     19  C   UNL     1      -7.933  -2.537 129.203  0.00  0.00    +0.000 A 
ATOM     20  C   UNL     1      -7.081  -3.594 128.980  0.00  0.00    +0.000 A 
ATOM     21  C   UNL     1      -6.359  -4.107 130.055  0.00  0.00    +0.000 A 
ATOM     22  C   UNL     1      -6.398  -3.497 131.333  0.00  0.00    +0.000 A 
ATOM     23  N   UNL     1      -5.190  -4.992 134.332  0.00  0.00    +0.000 N 
ATOM     24  H   UNL     1      -5.199  -5.254 135.309  0.00  0.00    +0.000 HD
ENDBRANCH   1  15
BRANCH   4  25
ATOM     25  N   UNL     1      -6.534   2.483 127.648  0.00  0.00    +0.000 N 
ATOM     26  C   UNL     1      -5.966   1.755 126.608  0.00  0.00    +0.000 C 
ATOM     27  O   UNL     1      -5.430   0.665 126.716  0.00  0.00    +0.000 OA
ATOM     28  H   UNL     1      -6.851   3.430 127.480  0.00  0.00    +0.000 HD
BRANCH  26  29
ATOM     29  C   UNL     1      -5.986   2.333 125.243  0.00  0.00    +0.000 A 
ATOM     30  C   UNL     1      -6.846   1.824 124.263  0.00  0.00    +0.000 A 
ATOM     31  C   UNL     1      -6.913   2.455 123.019  0.00  0.00    +0.000 A 
ATOM     32  C   UNL     1      -6.228   3.651 122.801  0.00  0.00    +0.000 A 
ATOM     33  C   UNL     1      -5.451   4.212 123.814  0.00  0.00    +0.000 A 
ATOM     34  C   UNL     1      -5.250   3.527 125.019  0.00  0.00    +0.000 A 
BRANCH  34  35
ATOM     35  C   UNL     1      -4.278   4.035 126.008  0.00  0.00    +0.000 A 
ATOM     36  C   UNL     1      -3.070   3.346 126.220  0.00  0.00    +0.000 A 
ATOM     37  C   UNL     1      -2.259   3.646 127.314  0.00  0.00    +0.000 A 
ATOM     38  C   UNL     1      -2.575   4.724 128.134  0.00  0.00    +0.000 A 
ATOM     39  C   UNL     1      -3.700   5.501 127.858  0.00  0.00    +0.000 A 
ATOM     40  C   UNL     1      -4.573   5.128 126.834  0.00  0.00    +0.000 A 
ENDBRANCH  34  35
ENDBRANCH  26  29
ENDBRANCH   4  25
TORSDOF 4
ENDMDL
MODEL 5
REMARK VINA RESULT:     -10.1      4.597      7.226
REMARK  Name = Conivaptan
REMARK  5 active torsions:
REMARK  status: ('A' for Active; 'I' for Inactive)
REMARK    1  A    between atoms: C_1  and  C_2
REMARK    2  A    between atoms: C_9  and  C_11
REMARK    3  A    between atoms: C_14  and  N_15
REMARK    4  A    between atoms: C_16  and  C_18
REMARK    5  A    between atoms: C_23  and  C_24
REMARK                            x       y       z     vdW  Elec       q    Type
REMARK                         _______ _______ _______ _____ _____    ______ ____
ROOT
ATOM      1  C   UNL     1      -6.307   0.072 130.583  0.00  0.00    +0.000 A 
ATOM      2  C   UNL     1      -6.828   1.117 131.354  0.00  0.00    +0.000 A 
ATOM      3  C   UNL     1      -6.041   2.220 131.707  0.00  0.00    +0.000 A 
ATOM      4  C   UNL     1      -4.660   2.098 131.662  0.00  0.00    +0.000 A 
ATOM      5  C   UNL     1      -4.135   0.888 131.182  0.00  0.00    +0.000 A 
ATOM      6  C   UNL     1      -4.933  -0.073 130.561  0.00  0.00    +0.000 A 
ENDROOT
BRANCH   1  15
ATOM      7  C   UNL     1      -4.735  -3.701 123.399  0.00  0.00    +0.000 C 
ATOM      8  C   UNL     1      -5.519  -2.865 124.330  0.00  0.00    +0.000 A 
ATOM      9  N   UNL     1      -5.153  -1.688 124.790  0.00  0.00    +0.000 NA
ATOM     10  C   UNL     1      -6.148  -1.307 125.641  0.00  0.00    +0.000 A 
ATOM     11  C   UNL     1      -7.161  -2.231 125.664  0.00  0.00    +0.000 A 
ATOM     12  C   UNL     1      -8.411  -2.188 126.454  0.00  0.00    +0.000 C 
ATOM     13  C   UNL     1      -8.067  -2.098 127.942  0.00  0.00    +0.000 C 
ATOM     14  N   UNL     1      -7.341  -0.924 128.453  0.00  0.00    +0.000 N 
ATOM     15  C   UNL     1      -7.132  -0.950 129.872  0.00  0.00    +0.000 C 
ATOM     16  O   UNL     1      -7.530  -1.890 130.569  0.00  0.00    +0.000 OA
ATOM     17  C   UNL     1      -6.845   0.109 127.576  0.00  0.00    +0.000 A 
ATOM     18  C   UNL     1      -7.064   1.426 127.961  0.00  0.00    +0.000 A 
ATOM     19  C   UNL     1      -6.432   2.526 127.396  0.00  0.00    +0.000 A 
ATOM     20  C   UNL     1      -5.726   2.351 126.228  0.00  0.00    +0.000 A 
ATOM     21  C   UNL     1      -5.665   1.076 125.672  0.00  0.00    +0.000 A 
ATOM     22  C   UNL     1      -6.209  -0.050 126.336  0.00  0.00    +0.000 A 
ATOM     23  N   UNL     1      -6.751  -3.231 124.826  0.00  0.00    +0.000 N 
ATOM     24  H   UNL     1      -7.248  -4.085 124.610  0.00  0.00    +0.000 HD
ENDBRANCH   1  15
BRANCH   4  25
ATOM     25  N   UNL     1      -3.851   3.171 132.118  0.00  0.00    +0.000 N 
ATOM     26  C   UNL     1      -3.470   4.224 131.294  0.00  0.00    +0.000 C 
ATOM     27  O   UNL     1      -3.646   4.281 130.088  0.00  0.00    +0.000 OA
ATOM     28  H   UNL     1      -3.558   3.164 133.087  0.00  0.00    +0.000 HD
BRANCH  26  29
ATOM     29  C   UNL     1      -2.777   5.386 131.900  0.00  0.00    +0.000 A 
ATOM     30  C   UNL     1      -1.380   5.420 131.989  0.00  0.00    +0.000 A 
ATOM     31  C   UNL     1      -0.754   6.570 132.472  0.00  0.00    +0.000 A 
ATOM     32  C   UNL     1      -1.504   7.717 132.742  0.00  0.00    +0.000 A 
ATOM     33  C   UNL     1      -2.886   7.715 132.555  0.00  0.00    +0.000 A 
ATOM     34  C   UNL     1      -3.556   6.533 132.212  0.00  0.00    +0.000 A 
BRANCH  34  35
ATOM     35  C   UNL     1      -5.032   6.493 132.202  0.00  0.00    +0.000 A 
ATOM     36  C   UNL     1      -5.724   5.894 133.270  0.00  0.00    +0.000 A 
ATOM     37  C   UNL     1      -7.085   5.611 133.172  0.00  0.00    +0.000 A 
ATOM     38  C   UNL     1      -7.801   6.042 132.060  0.00  0.00    +0.000 A 
ATOM     39  C   UNL     1      -7.155   6.755 131.050  0.00  0.00    +0.000 A 
ATOM     40  C   UNL     1      -5.771   6.935 131.096  0.00  0.00    +0.000 A 
ENDBRANCH  34  35
ENDBRANCH  26  29
ENDBRANCH   4  25
TORSDOF 4
ENDMDL
MODEL 6
REMARK VINA RESULT:     -10.1      8.831     11.369
REMARK  Name = Conivaptan
REMARK  5 active torsions:
REMARK  status: ('A' for Active; 'I' for Inactive)
REMARK    1  A    between atoms: C_1  and  C_2
REMARK    2  A    between atoms: C_9  and  C_11
REMARK    3  A    between atoms: C_14  and  N_15
REMARK    4  A    between atoms: C_16  and  C_18
REMARK    5  A    between atoms: C_23  and  C_24
REMARK                            x       y       z     vdW  Elec       q    Type
REMARK                         _______ _______ _______ _____ _____    ______ ____
ROOT
ATOM      1  C   UNL     1      -4.478   5.545 131.089  0.00  0.00    +0.000 A 
ATOM      2  C   UNL     1      -3.371   4.775 131.461  0.00  0.00    +0.000 A 
ATOM      3  C   UNL     1      -2.579   5.127 132.562  0.00  0.00    +0.000 A 
ATOM      4  C   UNL     1      -2.623   6.433 133.025  0.00  0.00    +0.000 A 
ATOM      5  C   UNL     1      -3.530   7.308 132.407  0.00  0.00    +0.000 A 
ATOM      6  C   UNL     1      -4.511   6.857 131.523  0.00  0.00    +0.000 A 
ENDROOT
BRANCH   1  15
ATOM      7  C   UNL     1     -12.558   7.253 131.451  0.00  0.00    +0.000 C 
ATOM      8  C   UNL     1     -11.373   6.371 131.442  0.00  0.00    +0.000 A 
ATOM      9  N   UNL     1     -10.455   6.318 132.382  0.00  0.00    +0.000 NA
ATOM     10  C   UNL     1      -9.539   5.409 131.942  0.00  0.00    +0.000 A 
ATOM     11  C   UNL     1      -9.922   4.858 130.746  0.00  0.00    +0.000 A 
ATOM     12  C   UNL     1      -9.208   3.840 129.945  0.00  0.00    +0.000 C 
ATOM     13  C   UNL     1      -7.815   4.363 129.588  0.00  0.00    +0.000 C 
ATOM     14  N   UNL     1      -6.845   4.646 130.659  0.00  0.00    +0.000 N 
ATOM     15  C   UNL     1      -5.567   5.080 130.177  0.00  0.00    +0.000 C 
ATOM     16  O   UNL     1      -5.336   5.204 128.970  0.00  0.00    +0.000 OA
ATOM     17  C   UNL     1      -7.198   4.545 132.055  0.00  0.00    +0.000 A 
ATOM     18  C   UNL     1      -6.298   3.895 132.890  0.00  0.00    +0.000 A 
ATOM     19  C   UNL     1      -6.337   3.943 134.278  0.00  0.00    +0.000 A 
ATOM     20  C   UNL     1      -7.459   4.456 134.887  0.00  0.00    +0.000 A 
ATOM     21  C   UNL     1      -8.500   4.919 134.085  0.00  0.00    +0.000 A 
ATOM     22  C   UNL     1      -8.380   4.977 132.675  0.00  0.00    +0.000 A 
ATOM     23  N   UNL     1     -11.097   5.481 130.427  0.00  0.00    +0.000 N 
ATOM     24  H   UNL     1     -11.661   5.330 129.601  0.00  0.00    +0.000 HD
ENDBRANCH   1  15
BRANCH   4  25
ATOM     25  N   UNL     1      -1.748   6.831 134.071  0.00  0.00    +0.000 N 
ATOM     26  C   UNL     1      -0.482   7.352 133.829  0.00  0.00    +0.000 C 
ATOM     27  O   UNL     1       0.075   7.389 132.745  0.00  0.00    +0.000 OA
ATOM     28  H   UNL     1      -2.077   6.739 135.023  0.00  0.00    +0.000 HD
BRANCH  26  29
ATOM     29  C   UNL     1       0.288   7.903 134.969  0.00  0.00    +0.000 A 
ATOM     30  C   UNL     1       1.114   7.078 135.742  0.00  0.00    +0.000 A 
ATOM     31  C   UNL     1       1.904   7.646 136.743  0.00  0.00    +0.000 A 
ATOM     32  C   UNL     1       1.963   9.033 136.887  0.00  0.00    +0.000 A 
ATOM     33  C   UNL     1       1.217   9.861 136.049  0.00  0.00    +0.000 A 
ATOM     34  C   UNL     1       0.308   9.314 135.134  0.00  0.00    +0.000 A 
BRANCH  34  35
ATOM     35  C   UNL     1      -0.612  10.194 134.387  0.00  0.00    +0.000 A 
ATOM     36  C   UNL     1      -0.146  10.909 133.269  0.00  0.00    +0.000 A 
ATOM     37  C   UNL     1      -0.906  11.933 132.706  0.00  0.00    +0.000 A 
ATOM     38  C   UNL     1      -2.197  12.168 133.168  0.00  0.00    +0.000 A 
ATOM     39  C   UNL     1      -2.725  11.379 134.189  0.00  0.00    +0.000 A 
ATOM     40  C   UNL     1      -1.921  10.433 134.829  0.00  0.00    +0.000 A 
ENDBRANCH  34  35
ENDBRANCH  26  29
ENDBRANCH   4  25
TORSDOF 4
ENDMDL
MODEL 7
REMARK VINA RESULT:     -10.1      4.194      7.887
REMARK  Name = Conivaptan
REMARK  5 active torsions:
REMARK  status: ('A' for Active; 'I' for Inactive)
REMARK    1  A    between atoms: C_1  and  C_2
REMARK    2  A    between atoms: C_9  and  C_11
REMARK    3  A    between atoms: C_14  and  N_15
REMARK    4  A    between atoms: C_16  and  C_18
REMARK    5  A    between atoms: C_23  and  C_24
REMARK                            x       y       z     vdW  Elec       q    Type
REMARK                         _______ _______ _______ _____ _____    ______ ____
ROOT
ATOM      1  C   UNL     1      -7.324   2.418 130.350  0.00  0.00    +0.000 A 
ATOM      2  C   UNL     1      -7.498   1.035 130.475  0.00  0.00    +0.000 A 
ATOM      3  C   UNL     1      -7.711   0.226 129.351  0.00  0.00    +0.000 A 
ATOM      4  C   UNL     1      -8.164   0.815 128.181  0.00  0.00    +0.000 A 
ATOM      5  C   UNL     1      -8.303   2.211 128.172  0.00  0.00    +0.000 A 
ATOM      6  C   UNL     1      -7.803   3.013 129.198  0.00  0.00    +0.000 A 
ENDROOT
BRANCH   1  15
ATOM      7  C   UNL     1      -3.760   9.827 129.501  0.00  0.00    +0.000 C 
ATOM      8  C   UNL     1      -3.819   8.405 129.895  0.00  0.00    +0.000 A 
ATOM      9  N   UNL     1      -3.913   7.388 129.066  0.00  0.00    +0.000 NA
ATOM     10  C   UNL     1      -3.979   6.280 129.860  0.00  0.00    +0.000 A 
ATOM     11  C   UNL     1      -3.870   6.613 131.185  0.00  0.00    +0.000 A 
ATOM     12  C   UNL     1      -3.895   5.706 132.353  0.00  0.00    +0.000 C 
ATOM     13  C   UNL     1      -5.210   4.923 132.359  0.00  0.00    +0.000 C 
ATOM     14  N   UNL     1      -5.516   4.004 131.250  0.00  0.00    +0.000 N 
ATOM     15  C   UNL     1      -6.755   3.301 131.412  0.00  0.00    +0.000 C 
ATOM     16  O   UNL     1      -7.479   3.480 132.398  0.00  0.00    +0.000 OA
ATOM     17  C   UNL     1      -4.660   3.889 130.095  0.00  0.00    +0.000 A 
ATOM     18  C   UNL     1      -4.366   2.606 129.649  0.00  0.00    +0.000 A 
ATOM     19  C   UNL     1      -3.797   2.313 128.416  0.00  0.00    +0.000 A 
ATOM     20  C   UNL     1      -3.264   3.343 127.676  0.00  0.00    +0.000 A 
ATOM     21  C   UNL     1      -3.331   4.636 128.189  0.00  0.00    +0.000 A 
ATOM     22  C   UNL     1      -4.030   4.924 129.387  0.00  0.00    +0.000 A 
ATOM     23  N   UNL     1      -3.772   7.977 131.204  0.00  0.00    +0.000 N 
ATOM     24  H   UNL     1      -3.689   8.569 132.019  0.00  0.00    +0.000 HD
ENDBRANCH   1  15
BRANCH   4  25
ATOM     25  N   UNL     1      -8.485  -0.006 127.068  0.00  0.00    +0.000 N 
ATOM     26  C   UNL     1      -7.513  -0.639 126.299  0.00  0.00    +0.000 C 
ATOM     27  O   UNL     1      -6.310  -0.454 126.384  0.00  0.00    +0.000 OA
ATOM     28  H   UNL     1      -9.463  -0.139 126.844  0.00  0.00    +0.000 HD
BRANCH  26  29
ATOM     29  C   UNL     1      -7.946  -1.615 125.271  0.00  0.00    +0.000 A 
ATOM     30  C   UNL     1      -8.048  -2.978 125.576  0.00  0.00    +0.000 A 
ATOM     31  C   UNL     1      -8.555  -3.856 124.616  0.00  0.00    +0.000 A 
ATOM     32  C   UNL     1      -9.071  -3.363 123.417  0.00  0.00    +0.000 A 
ATOM     33  C   UNL     1      -9.063  -1.993 123.156  0.00  0.00    +0.000 A 
ATOM     34  C   UNL     1      -8.429  -1.106 124.036  0.00  0.00    +0.000 A 
BRANCH  34  35
ATOM     35  C   UNL     1      -8.258   0.313 123.663  0.00  0.00    +0.000 A 
ATOM     36  C   UNL     1      -9.381   1.157 123.585  0.00  0.00    +0.000 A 
ATOM     37  C   UNL     1      -9.289   2.415 122.992  0.00  0.00    +0.000 A 
ATOM     38  C   UNL     1      -8.049   2.901 122.590  0.00  0.00    +0.000 A 
ATOM     39  C   UNL     1      -6.904   2.128 122.782  0.00  0.00    +0.000 A 
ATOM     40  C   UNL     1      -7.014   0.823 123.269  0.00  0.00    +0.000 A 
ENDBRANCH  34  35
ENDBRANCH  26  29
ENDBRANCH   4  25
TORSDOF 4
ENDMDL
MODEL 8
REMARK VINA RESULT:     -10.0      5.057      8.193
REMARK  Name = Conivaptan
REMARK  5 active torsions:
REMARK  status: ('A' for Active; 'I' for Inactive)
REMARK    1  A    between atoms: C_1  and  C_2
REMARK    2  A    between atoms: C_9  and  C_11
REMARK    3  A    between atoms: C_14  and  N_15
REMARK    4  A    between atoms: C_16  and  C_18
REMARK    5  A    between atoms: C_23  and  C_24
REMARK                            x       y       z     vdW  Elec       q    Type
REMARK                         _______ _______ _______ _____ _____    ______ ____
ROOT
ATOM      1  C   UNL     1      -4.118   3.554 128.463  0.00  0.00    +0.000 A 
ATOM      2  C   UNL     1      -4.692   3.241 127.226  0.00  0.00    +0.000 A 
ATOM      3  C   UNL     1      -5.645   2.221 127.106  0.00  0.00    +0.000 A 
ATOM      4  C   UNL     1      -5.717   1.254 128.098  0.00  0.00    +0.000 A 
ATOM      5  C   UNL     1      -4.876   1.407 129.211  0.00  0.00    +0.000 A 
ATOM      6  C   UNL     1      -4.160   2.581 129.444  0.00  0.00    +0.000 A 
ENDROOT
BRANCH   1  15
ATOM      7  C   UNL     1      -2.548   6.980 135.820  0.00  0.00    +0.000 C 
ATOM      8  C   UNL     1      -3.104   6.937 134.452  0.00  0.00    +0.000 A 
ATOM      9  N   UNL     1      -4.082   6.153 134.052  0.00  0.00    +0.000 NA
ATOM     10  C   UNL     1      -4.235   6.417 132.722  0.00  0.00    +0.000 A 
ATOM     11  C   UNL     1      -3.383   7.410 132.313  0.00  0.00    +0.000 A 
ATOM     12  C   UNL     1      -3.241   7.981 130.956  0.00  0.00    +0.000 C 
ATOM     13  C   UNL     1      -2.880   6.867 129.972  0.00  0.00    +0.000 C 
ATOM     14  N   UNL     1      -3.825   5.762 129.742  0.00  0.00    +0.000 N 
ATOM     15  C   UNL     1      -3.379   4.818 128.759  0.00  0.00    +0.000 C 
ATOM     16  O   UNL     1      -2.293   4.945 128.184  0.00  0.00    +0.000 OA
ATOM     17  C   UNL     1      -5.050   5.636 130.495  0.00  0.00    +0.000 A 
ATOM     18  C   UNL     1      -6.204   5.340 129.781  0.00  0.00    +0.000 A 
ATOM     19  C   UNL     1      -7.397   4.918 130.354  0.00  0.00    +0.000 A 
ATOM     20  C   UNL     1      -7.544   5.022 131.718  0.00  0.00    +0.000 A 
ATOM     21  C   UNL     1      -6.486   5.533 132.466  0.00  0.00    +0.000 A 
ATOM     22  C   UNL     1      -5.236   5.834 131.871  0.00  0.00    +0.000 A 
ATOM     23  N   UNL     1      -2.656   7.737 133.425  0.00  0.00    +0.000 N 
ATOM     24  H   UNL     1      -1.922   8.430 133.488  0.00  0.00    +0.000 HD
ENDBRANCH   1  15
BRANCH   4  25
ATOM     25  N   UNL     1      -6.603   0.157 127.937  0.00  0.00    +0.000 N 
ATOM     26  C   UNL     1      -6.155  -1.148 127.764  0.00  0.00    +0.000 C 
ATOM     27  O   UNL     1      -4.997  -1.483 127.582  0.00  0.00    +0.000 OA
ATOM     28  H   UNL     1      -7.597   0.344 127.965  0.00  0.00    +0.000 HD
BRANCH  26  29
ATOM     29  C   UNL     1      -7.149  -2.249 127.783  0.00  0.00    +0.000 A 
ATOM     30  C   UNL     1      -7.674  -2.718 128.993  0.00  0.00    +0.000 A 
ATOM     31  C   UNL     1      -8.682  -3.684 128.971  0.00  0.00    +0.000 A 
ATOM     32  C   UNL     1      -9.246  -4.082 127.758  0.00  0.00    +0.000 A 
ATOM     33  C   UNL     1      -8.792  -3.537 126.557  0.00  0.00    +0.000 A 
ATOM     34  C   UNL     1      -7.686  -2.677 126.540  0.00  0.00    +0.000 A 
BRANCH  34  35
ATOM     35  C   UNL     1      -7.094  -2.256 125.254  0.00  0.00    +0.000 A 
ATOM     36  C   UNL     1      -7.624  -1.148 124.568  0.00  0.00    +0.000 A 
ATOM     37  C   UNL     1      -7.265  -0.886 123.248  0.00  0.00    +0.000 A 
ATOM     38  C   UNL     1      -6.272  -1.646 122.638  0.00  0.00    +0.000 A 
ATOM     39  C   UNL     1      -5.641  -2.666 123.349  0.00  0.00    +0.000 A 
ATOM     40  C   UNL     1      -6.084  -3.002 124.631  0.00  0.00    +0.000 A 
ENDBRANCH  34  35
ENDBRANCH  26  29
ENDBRANCH   4  25
TORSDOF 4
ENDMDL
MODEL 9
REMARK VINA RESULT:     -10.0      6.112     10.601
REMARK  Name = Conivaptan
REMARK  5 active torsions:
REMARK  status: ('A' for Active; 'I' for Inactive)
REMARK    1  A    between atoms: C_1  and  C_2
REMARK    2  A    between atoms: C_9  and  C_11
REMARK    3  A    between atoms: C_14  and  N_15
REMARK    4  A    between atoms: C_16  and  C_18
REMARK    5  A    between atoms: C_23  and  C_24
REMARK                            x       y       z     vdW  Elec       q    Type
REMARK                         _______ _______ _______ _____ _____    ______ ____
ROOT
ATOM      1  C   UNL     1      -2.402   5.763 130.164  0.00  0.00    +0.000 A 
ATOM      2  C   UNL     1      -2.207   6.309 128.891  0.00  0.00    +0.000 A 
ATOM      3  C   UNL     1      -2.900   5.818 127.777  0.00  0.00    +0.000 A 
ATOM      4  C   UNL     1      -3.451   4.548 127.840  0.00  0.00    +0.000 A 
ATOM      5  C   UNL     1      -3.348   3.859 129.058  0.00  0.00    +0.000 A 
ATOM      6  C   UNL     1      -2.922   4.484 130.230  0.00  0.00    +0.000 A 
ENDROOT
BRANCH   1  15
ATOM      7  C   UNL     1      -5.083   4.206 137.827  0.00  0.00    +0.000 C 
ATOM      8  C   UNL     1      -4.842   5.045 136.636  0.00  0.00    +0.000 A 
ATOM      9  N   UNL     1      -5.424   4.893 135.466  0.00  0.00    +0.000 NA
ATOM     10  C   UNL     1      -4.875   5.849 134.662  0.00  0.00    +0.000 A 
ATOM     11  C   UNL     1      -3.988   6.631 135.356  0.00  0.00    +0.000 A 
ATOM     12  C   UNL     1      -3.190   7.767 134.849  0.00  0.00    +0.000 C 
ATOM     13  C   UNL     1      -2.310   7.292 133.691  0.00  0.00    +0.000 C 
ATOM     14  N   UNL     1      -2.937   6.783 132.459  0.00  0.00    +0.000 N 
ATOM     15  C   UNL     1      -1.994   6.422 131.442  0.00  0.00    +0.000 C 
ATOM     16  O   UNL     1      -0.776   6.530 131.618  0.00  0.00    +0.000 OA
ATOM     17  C   UNL     1      -4.366   6.619 132.341  0.00  0.00    +0.000 A 
ATOM     18  C   UNL     1      -4.961   7.073 131.171  0.00  0.00    +0.000 A 
ATOM     19  C   UNL     1      -6.253   6.756 130.772  0.00  0.00    +0.000 A 
ATOM     20  C   UNL     1      -7.095   6.161 131.682  0.00  0.00    +0.000 A 
ATOM     21  C   UNL     1      -6.611   5.888 132.959  0.00  0.00    +0.000 A 
ATOM     22  C   UNL     1      -5.252   6.103 133.298  0.00  0.00    +0.000 A 
ATOM     23  N   UNL     1      -3.967   6.109 136.620  0.00  0.00    +0.000 N 
ATOM     24  H   UNL     1      -3.411   6.432 137.401  0.00  0.00    +0.000 HD
ENDBRANCH   1  15
BRANCH   4  25
ATOM     25  N   UNL     1      -4.063   3.997 126.683  0.00  0.00    +0.000 N 
ATOM     26  C   UNL     1      -5.349   4.340 126.282  0.00  0.00    +0.000 C 
ATOM     27  O   UNL     1      -6.139   5.010 126.926  0.00  0.00    +0.000 OA
ATOM     28  H   UNL     1      -3.526   3.340 126.131  0.00  0.00    +0.000 HD
BRANCH  26  29
ATOM     29  C   UNL     1      -5.837   3.853 124.969  0.00  0.00    +0.000 A 
ATOM     30  C   UNL     1      -5.537   4.547 123.791  0.00  0.00    +0.000 A 
ATOM     31  C   UNL     1      -5.925   4.008 122.563  0.00  0.00    +0.000 A 
ATOM     32  C   UNL     1      -6.490   2.733 122.504  0.00  0.00    +0.000 A 
ATOM     33  C   UNL     1      -6.695   1.998 123.671  0.00  0.00    +0.000 A 
ATOM     34  C   UNL     1      -6.451   2.572 124.925  0.00  0.00    +0.000 A 
BRANCH  34  35
ATOM     35  C   UNL     1      -6.848   1.860 126.157  0.00  0.00    +0.000 A 
ATOM     36  C   UNL     1      -6.006   0.870 126.696  0.00  0.00    +0.000 A 
ATOM     37  C   UNL     1      -6.462   0.010 127.693  0.00  0.00    +0.000 A 
ATOM     38  C   UNL     1      -7.717   0.212 128.259  0.00  0.00    +0.000 A 
ATOM     39  C   UNL     1      -8.513   1.272 127.826  0.00  0.00    +0.000 A 
ATOM     40  C   UNL     1      -8.103   2.060 126.748  0.00  0.00    +0.000 A 
ENDBRANCH  34  35
ENDBRANCH  26  29
ENDBRANCH   4  25
TORSDOF 4
ENDMDL
