MODEL 1
REMARK VINA RESULT:      -8.4      0.000      0.000
REMARK  Name = Copanlisib
REMARK  8 active torsions:
REMARK  status: ('A' for Active; 'I' for Inactive)
REMARK    1  A    between atoms: C_1  and  O_2
REMARK    2  A    between atoms: O_2  and  C_3
REMARK    3  A    between atoms: C_4  and  O_5
REMARK    4  A    between atoms: O_5  and  C_6
REMARK    5  A    between atoms: C_6  and  C_7
REMARK    6  A    between atoms: C_7  and  C_8
REMARK    7  A    between atoms: C_8  and  N_9
REMARK    8  A    between atoms: C_22  and  C_24
REMARK                            x       y       z     vdW  Elec       q    Type
REMARK                         _______ _______ _______ _____ _____    ______ ____
ROOT
ATOM      1  C   UNL     1      -5.311   4.915 128.713  0.00  0.00    +0.000 A 
ATOM      2  C   UNL     1      -5.627   4.557 130.057  0.00  0.00    +0.000 A 
ATOM      3  C   UNL     1      -6.291   3.357 130.324  0.00  0.00    +0.000 A 
ATOM      4  C   UNL     1      -6.703   2.531 129.285  0.00  0.00    +0.000 A 
ATOM      5  C   UNL     1      -6.461   2.914 127.965  0.00  0.00    +0.000 A 
ATOM      6  C   UNL     1      -5.771   4.111 127.617  0.00  0.00    +0.000 A 
ATOM      7  N   UNL     1      -5.540   4.477 126.214  0.00  0.00    +0.000 NA
ATOM      8  C   UNL     1      -5.978   3.662 125.277  0.00  0.00    +0.000 C 
ATOM      9  N   UNL     1      -5.755   4.017 123.917  0.00  0.00    +0.000 N 
ATOM     10  C   UNL     1      -6.112   3.370 122.717  0.00  0.00    +0.000 C 
ATOM     11  O   UNL     1      -6.592   2.243 122.541  0.00  0.00    +0.000 OA
ATOM     12  N   UNL     1      -6.631   2.506 125.610  0.00  0.00    +0.000 N 
ATOM     13  C   UNL     1      -7.130   1.535 124.697  0.00  0.00    +0.000 C 
ATOM     14  C   UNL     1      -7.716   0.454 125.552  0.00  0.00    +0.000 C 
ATOM     15  N   UNL     1      -7.536   0.900 126.965  0.00  0.00    +0.000 NA
ATOM     16  C   UNL     1      -6.909   2.054 126.861  0.00  0.00    +0.000 C 
ATOM     17  H   UNL     1      -5.312   4.926 123.845  0.00  0.00    +0.000 HD
ENDROOT
BRANCH  10  18
ATOM     18  C   UNL     1      -5.915   3.931 121.409  0.00  0.00    +0.000 A 
ATOM     19  C   UNL     1      -4.989   4.957 121.280  0.00  0.00    +0.000 A 
ATOM     20  N   UNL     1      -4.896   5.743 120.198  0.00  0.00    +0.000 NA
ATOM     21  C   UNL     1      -5.796   5.515 119.242  0.00  0.00    +0.000 A 
ATOM     22  N   UNL     1      -5.676   6.259 118.113  0.00  0.00    +0.000 N 
ATOM     23  N   UNL     1      -6.788   4.609 119.310  0.00  0.00    +0.000 NA
ATOM     24  C   UNL     1      -6.849   3.845 120.420  0.00  0.00    +0.000 A 
ATOM     25  H   UNL     1      -4.902   6.898 118.065  0.00  0.00    +0.000 HD
ATOM     26  H   UNL     1      -6.301   6.071 117.352  0.00  0.00    +0.000 HD
ENDBRANCH  10  18
BRANCH   1  28
ATOM     27  C   UNL     1      -3.191   5.944 128.336  0.00  0.00    +0.000 C 
ATOM     28  O   UNL     1      -4.618   6.083 128.430  0.00  0.00    +0.000 OA
ENDBRANCH   1  28
BRANCH   2  29
ATOM     29  O   UNL     1      -5.314   5.448 131.055  0.00  0.00    +0.000 OA
BRANCH  29  30
ATOM     30  C   UNL     1      -6.356   5.920 131.905  0.00  0.00    +0.000 C 
BRANCH  30  31
ATOM     31  C   UNL     1      -7.227   6.868 131.097  0.00  0.00    +0.000 C 
BRANCH  31  32
ATOM     32  C   UNL     1      -8.701   6.516 131.277  0.00  0.00    +0.000 C 
BRANCH  32  33
ATOM     33  N   UNL     1      -9.113   5.319 130.521  0.00  0.00    +0.000 NA
ATOM     34  C   UNL     1      -9.168   5.568 129.060  0.00  0.00    +0.000 C 
ATOM     35  C   UNL     1     -10.224   6.623 128.697  0.00  0.00    +0.000 C 
ATOM     36  O   UNL     1     -11.530   6.204 129.124  0.00  0.00    +0.000 OA
ATOM     37  C   UNL     1     -11.555   5.933 130.534  0.00  0.00    +0.000 C 
ATOM     38  C   UNL     1     -10.479   4.904 130.934  0.00  0.00    +0.000 C 
ENDBRANCH  32  33
ENDBRANCH  31  32
ENDBRANCH  30  31
ENDBRANCH  29  30
ENDBRANCH   2  29
TORSDOF 7
ENDMDL
MODEL 2
REMARK VINA RESULT:      -8.3      5.102      9.080
REMARK  Name = Copanlisib
REMARK  8 active torsions:
REMARK  status: ('A' for Active; 'I' for Inactive)
REMARK    1  A    between atoms: C_1  and  O_2
REMARK    2  A    between atoms: O_2  and  C_3
REMARK    3  A    between atoms: C_4  and  O_5
REMARK    4  A    between atoms: O_5  and  C_6
REMARK    5  A    between atoms: C_6  and  C_7
REMARK    6  A    between atoms: C_7  and  C_8
REMARK    7  A    between atoms: C_8  and  N_9
REMARK    8  A    between atoms: C_22  and  C_24
REMARK                            x       y       z     vdW  Elec       q    Type
REMARK                         _______ _______ _______ _____ _____    ______ ____
ROOT
ATOM      1  C   UNL     1      -8.114   0.707 128.531  0.00  0.00    +0.000 A 
ATOM      2  C   UNL     1      -7.366  -0.462 128.864  0.00  0.00    +0.000 A 
ATOM      3  C   UNL     1      -7.055  -0.737 130.198  0.00  0.00    +0.000 A 
ATOM      4  C   UNL     1      -7.416   0.150 131.205  0.00  0.00    +0.000 A 
ATOM      5  C   UNL     1      -8.082   1.331 130.875  0.00  0.00    +0.000 A 
ATOM      6  C   UNL     1      -8.453   1.667 129.541  0.00  0.00    +0.000 A 
ATOM      7  N   UNL     1      -9.152   2.923 129.238  0.00  0.00    +0.000 NA
ATOM      8  C   UNL     1      -9.443   3.731 130.236  0.00  0.00    +0.000 C 
ATOM      9  N   UNL     1     -10.120   4.948 129.942  0.00  0.00    +0.000 N 
ATOM     10  C   UNL     1     -10.543   6.000 130.778  0.00  0.00    +0.000 C 
ATOM     11  O   UNL     1     -10.560   6.069 132.013  0.00  0.00    +0.000 OA
ATOM     12  N   UNL     1      -9.098   3.403 131.520  0.00  0.00    +0.000 N 
ATOM     13  C   UNL     1      -9.375   4.176 132.683  0.00  0.00    +0.000 C 
ATOM     14  C   UNL     1      -8.835   3.373 133.826  0.00  0.00    +0.000 C 
ATOM     15  N   UNL     1      -8.230   2.149 133.225  0.00  0.00    +0.000 NA
ATOM     16  C   UNL     1      -8.452   2.282 131.933  0.00  0.00    +0.000 C 
ATOM     17  H   UNL     1     -10.248   5.062 128.944  0.00  0.00    +0.000 HD
ENDROOT
BRANCH  10  18
ATOM     18  C   UNL     1     -11.113   7.230 130.300  0.00  0.00    +0.000 A 
ATOM     19  C   UNL     1     -12.311   7.647 130.861  0.00  0.00    +0.000 A 
ATOM     20  N   UNL     1     -13.082   8.611 130.339  0.00  0.00    +0.000 NA
ATOM     21  C   UNL     1     -12.651   9.134 129.191  0.00  0.00    +0.000 A 
ATOM     22  N   UNL     1     -13.386  10.155 128.681  0.00  0.00    +0.000 N 
ATOM     23  N   UNL     1     -11.554   8.736 128.521  0.00  0.00    +0.000 NA
ATOM     24  C   UNL     1     -10.812   7.758 129.079  0.00  0.00    +0.000 A 
ATOM     25  H   UNL     1     -14.175  10.465 129.220  0.00  0.00    +0.000 HD
ATOM     26  H   UNL     1     -13.055  10.608 127.850  0.00  0.00    +0.000 HD
ENDBRANCH  10  18
BRANCH   1  28
ATOM     27  C   UNL     1      -7.461   1.639 126.434  0.00  0.00    +0.000 C 
ATOM     28  O   UNL     1      -8.467   0.977 127.217  0.00  0.00    +0.000 OA
ENDBRANCH   1  28
BRANCH   2  29
ATOM     29  O   UNL     1      -6.920  -1.259 127.838  0.00  0.00    +0.000 OA
BRANCH  29  30
ATOM     30  C   UNL     1      -7.153  -2.663 127.908  0.00  0.00    +0.000 C 
BRANCH  30  31
ATOM     31  C   UNL     1      -8.528  -2.940 127.321  0.00  0.00    +0.000 C 
BRANCH  31  32
ATOM     32  C   UNL     1      -8.613  -2.405 125.895  0.00  0.00    +0.000 C 
BRANCH  32  33
ATOM     33  N   UNL     1      -8.435  -3.448 124.867  0.00  0.00    +0.000 NA
ATOM     34  C   UNL     1      -7.055  -3.472 124.324  0.00  0.00    +0.000 C 
ATOM     35  C   UNL     1      -6.702  -2.165 123.598  0.00  0.00    +0.000 C 
ATOM     36  O   UNL     1      -7.604  -1.930 122.505  0.00  0.00    +0.000 OA
ATOM     37  C   UNL     1      -8.968  -1.903 122.952  0.00  0.00    +0.000 C 
ATOM     38  C   UNL     1      -9.340  -3.188 123.718  0.00  0.00    +0.000 C 
ENDBRANCH  32  33
ENDBRANCH  31  32
ENDBRANCH  30  31
ENDBRANCH  29  30
ENDBRANCH   2  29
TORSDOF 7
ENDMDL
MODEL 3
REMARK VINA RESULT:      -7.6      6.419      9.459
REMARK  Name = Copanlisib
REMARK  8 active torsions:
REMARK  status: ('A' for Active; 'I' for Inactive)
REMARK    1  A    between atoms: C_1  and  O_2
REMARK    2  A    between atoms: O_2  and  C_3
REMARK    3  A    between atoms: C_4  and  O_5
REMARK    4  A    between atoms: O_5  and  C_6
REMARK    5  A    between atoms: C_6  and  C_7
REMARK    6  A    between atoms: C_7  and  C_8
REMARK    7  A    between atoms: C_8  and  N_9
REMARK    8  A    between atoms: C_22  and  C_24
REMARK                            x       y       z     vdW  Elec       q    Type
REMARK                         _______ _______ _______ _____ _____    ______ ____
ROOT
ATOM      1  C   UNL     1      -3.494   6.912 131.492  0.00  0.00    +0.000 A 
ATOM      2  C   UNL     1      -2.371   6.585 132.309  0.00  0.00    +0.000 A 
ATOM      3  C   UNL     1      -2.545   5.810 133.459  0.00  0.00    +0.000 A 
ATOM      4  C   UNL     1      -3.814   5.403 133.851  0.00  0.00    +0.000 A 
ATOM      5  C   UNL     1      -4.924   5.784 133.095  0.00  0.00    +0.000 A 
ATOM      6  C   UNL     1      -4.821   6.553 131.899  0.00  0.00    +0.000 A 
ATOM      7  N   UNL     1      -6.016   6.934 131.134  0.00  0.00    +0.000 NA
ATOM      8  C   UNL     1      -7.191   6.536 131.575  0.00  0.00    +0.000 C 
ATOM      9  N   UNL     1      -8.349   6.906 130.834  0.00  0.00    +0.000 N 
ATOM     10  C   UNL     1      -9.716   6.648 131.057  0.00  0.00    +0.000 C 
ATOM     11  O   UNL     1     -10.254   5.906 131.888  0.00  0.00    +0.000 OA
ATOM     12  N   UNL     1      -7.289   5.787 132.717  0.00  0.00    +0.000 N 
ATOM     13  C   UNL     1      -8.493   5.278 133.282  0.00  0.00    +0.000 C 
ATOM     14  C   UNL     1      -8.063   4.501 134.488  0.00  0.00    +0.000 C 
ATOM     15  N   UNL     1      -6.580   4.639 134.564  0.00  0.00    +0.000 NA
ATOM     16  C   UNL     1      -6.271   5.371 133.513  0.00  0.00    +0.000 C 
ATOM     17  H   UNL     1      -8.106   7.504 130.053  0.00  0.00    +0.000 HD
ENDROOT
BRANCH  10  18
ATOM     18  C   UNL     1     -10.780   7.205 130.268  0.00  0.00    +0.000 A 
ATOM     19  C   UNL     1     -10.434   7.917 129.128  0.00  0.00    +0.000 A 
ATOM     20  N   UNL     1     -11.285   8.705 128.456  0.00  0.00    +0.000 NA
ATOM     21  C   UNL     1     -12.505   8.813 128.980  0.00  0.00    +0.000 A 
ATOM     22  N   UNL     1     -13.399   9.556 128.278  0.00  0.00    +0.000 N 
ATOM     23  N   UNL     1     -12.911   8.239 130.127  0.00  0.00    +0.000 NA
ATOM     24  C   UNL     1     -12.020   7.460 130.775  0.00  0.00    +0.000 A 
ATOM     25  H   UNL     1     -13.088   9.938 127.401  0.00  0.00    +0.000 HD
ATOM     26  H   UNL     1     -14.342   9.608 128.615  0.00  0.00    +0.000 HD
ENDBRANCH  10  18
BRANCH   1  28
ATOM     27  C   UNL     1      -3.133   6.871 129.133  0.00  0.00    +0.000 C 
ATOM     28  O   UNL     1      -3.336   7.646 130.325  0.00  0.00    +0.000 OA
ENDBRANCH   1  28
BRANCH   2  29
ATOM     29  O   UNL     1      -1.146   7.100 131.963  0.00  0.00    +0.000 OA
BRANCH  29  30
ATOM     30  C   UNL     1      -0.387   7.790 132.952  0.00  0.00    +0.000 C 
BRANCH  30  31
ATOM     31  C   UNL     1      -1.081   9.113 133.237  0.00  0.00    +0.000 C 
BRANCH  31  32
ATOM     32  C   UNL     1      -0.054  10.234 133.360  0.00  0.00    +0.000 C 
BRANCH  32  33
ATOM     33  N   UNL     1      -0.660  11.576 133.455  0.00  0.00    +0.000 NA
ATOM     34  C   UNL     1      -0.583  12.319 132.173  0.00  0.00    +0.000 C 
ATOM     35  C   UNL     1       0.870  12.593 131.757  0.00  0.00    +0.000 C 
ATOM     36  O   UNL     1       1.551  13.365 132.758  0.00  0.00    +0.000 OA
ATOM     37  C   UNL     1       1.510  12.711 134.037  0.00  0.00    +0.000 C 
ATOM     38  C   UNL     1       0.064  12.390 134.464  0.00  0.00    +0.000 C 
ENDBRANCH  32  33
ENDBRANCH  31  32
ENDBRANCH  30  31
ENDBRANCH  29  30
ENDBRANCH   2  29
TORSDOF 7
ENDMDL
MODEL 4
REMARK VINA RESULT:      -7.6      1.642      2.313
REMARK  Name = Copanlisib
REMARK  8 active torsions:
REMARK  status: ('A' for Active; 'I' for Inactive)
REMARK    1  A    between atoms: C_1  and  O_2
REMARK    2  A    between atoms: O_2  and  C_3
REMARK    3  A    between atoms: C_4  and  O_5
REMARK    4  A    between atoms: O_5  and  C_6
REMARK    5  A    between atoms: C_6  and  C_7
REMARK    6  A    between atoms: C_7  and  C_8
REMARK    7  A    between atoms: C_8  and  N_9
REMARK    8  A    between atoms: C_22  and  C_24
REMARK                            x       y       z     vdW  Elec       q    Type
REMARK                         _______ _______ _______ _____ _____    ______ ____
ROOT
ATOM      1  C   UNL     1      -7.118   3.690 129.760  0.00  0.00    +0.000 A 
ATOM      2  C   UNL     1      -7.352   3.125 131.049  0.00  0.00    +0.000 A 
ATOM      3  C   UNL     1      -7.685   1.773 131.170  0.00  0.00    +0.000 A 
ATOM      4  C   UNL     1      -7.850   0.982 130.040  0.00  0.00    +0.000 A 
ATOM      5  C   UNL     1      -7.695   1.549 128.774  0.00  0.00    +0.000 A 
ATOM      6  C   UNL     1      -7.334   2.913 128.574  0.00  0.00    +0.000 A 
ATOM      7  N   UNL     1      -7.183   3.471 127.223  0.00  0.00    +0.000 NA
ATOM      8  C   UNL     1      -7.378   2.673 126.194  0.00  0.00    +0.000 C 
ATOM      9  N   UNL     1      -7.233   3.213 124.885  0.00  0.00    +0.000 N 
ATOM     10  C   UNL     1      -7.388   2.624 123.615  0.00  0.00    +0.000 C 
ATOM     11  O   UNL     1      -7.555   1.437 123.310  0.00  0.00    +0.000 OA
ATOM     12  N   UNL     1      -7.713   1.359 126.386  0.00  0.00    +0.000 N 
ATOM     13  C   UNL     1      -7.927   0.393 125.362  0.00  0.00    +0.000 C 
ATOM     14  C   UNL     1      -8.224  -0.885 126.084  0.00  0.00    +0.000 C 
ATOM     15  N   UNL     1      -8.191  -0.558 127.539  0.00  0.00    +0.000 NA
ATOM     16  C   UNL     1      -7.884   0.723 127.574  0.00  0.00    +0.000 C 
ATOM     17  H   UNL     1      -7.040   4.208 124.921  0.00  0.00    +0.000 HD
ENDROOT
BRANCH  10  18
ATOM     18  C   UNL     1      -7.322   3.350 122.377  0.00  0.00    +0.000 A 
ATOM     19  C   UNL     1      -8.485   3.455 121.627  0.00  0.00    +0.000 A 
ATOM     20  N   UNL     1      -8.514   3.861 120.350  0.00  0.00    +0.000 NA
ATOM     21  C   UNL     1      -7.327   4.122 119.802  0.00  0.00    +0.000 A 
ATOM     22  N   UNL     1      -7.342   4.595 118.530  0.00  0.00    +0.000 N 
ATOM     23  N   UNL     1      -6.139   3.964 120.413  0.00  0.00    +0.000 NA
ATOM     24  C   UNL     1      -6.157   3.546 121.696  0.00  0.00    +0.000 A 
ATOM     25  H   UNL     1      -8.242   4.748 118.109  0.00  0.00    +0.000 HD
ATOM     26  H   UNL     1      -6.470   4.857 118.111  0.00  0.00    +0.000 HD
ENDBRANCH  10  18
BRANCH   1  28
ATOM     27  C   UNL     1      -5.343   5.284 129.754  0.00  0.00    +0.000 C 
ATOM     28  O   UNL     1      -6.748   5.020 129.622  0.00  0.00    +0.000 OA
ENDBRANCH   1  28
BRANCH   2  29
ATOM     29  O   UNL     1      -7.299   3.957 132.140  0.00  0.00    +0.000 OA
BRANCH  29  30
ATOM     30  C   UNL     1      -8.455   4.082 132.965  0.00  0.00    +0.000 C 
BRANCH  30  31
ATOM     31  C   UNL     1      -8.985   5.499 132.817  0.00  0.00    +0.000 C 
BRANCH  31  32
ATOM     32  C   UNL     1     -10.156   5.527 131.840  0.00  0.00    +0.000 C 
BRANCH  32  33
ATOM     33  N   UNL     1     -10.464   6.878 131.333  0.00  0.00    +0.000 NA
ATOM     34  C   UNL     1     -11.874   7.004 130.888  0.00  0.00    +0.000 C 
ATOM     35  C   UNL     1     -12.185   6.078 129.702  0.00  0.00    +0.000 C 
ATOM     36  O   UNL     1     -11.339   6.382 128.583  0.00  0.00    +0.000 OA
ATOM     37  C   UNL     1      -9.950   6.290 128.939  0.00  0.00    +0.000 C 
ATOM     38  C   UNL     1      -9.616   7.182 130.152  0.00  0.00    +0.000 C 
ENDBRANCH  32  33
ENDBRANCH  31  32
ENDBRANCH  30  31
ENDBRANCH  29  30
ENDBRANCH   2  29
TORSDOF 7
ENDMDL
MODEL 5
REMARK VINA RESULT:      -7.4      2.250      3.859
REMARK  Name = Copanlisib
REMARK  8 active torsions:
REMARK  status: ('A' for Active; 'I' for Inactive)
REMARK    1  A    between atoms: C_1  and  O_2
REMARK    2  A    between atoms: O_2  and  C_3
REMARK    3  A    between atoms: C_4  and  O_5
REMARK    4  A    between atoms: O_5  and  C_6
REMARK    5  A    between atoms: C_6  and  C_7
REMARK    6  A    between atoms: C_7  and  C_8
REMARK    7  A    between atoms: C_8  and  N_9
REMARK    8  A    between atoms: C_22  and  C_24
REMARK                            x       y       z     vdW  Elec       q    Type
REMARK                         _______ _______ _______ _____ _____    ______ ____
ROOT
ATOM      1  C   UNL     1      -6.153   4.218 128.217  0.00  0.00    +0.000 A 
ATOM      2  C   UNL     1      -6.614   3.915 129.533  0.00  0.00    +0.000 A 
ATOM      3  C   UNL     1      -7.632   2.975 129.718  0.00  0.00    +0.000 A 
ATOM      4  C   UNL     1      -8.245   2.373 128.626  0.00  0.00    +0.000 A 
ATOM      5  C   UNL     1      -7.847   2.721 127.335  0.00  0.00    +0.000 A 
ATOM      6  C   UNL     1      -6.802   3.653 127.069  0.00  0.00    +0.000 A 
ATOM      7  N   UNL     1      -6.417   3.994 125.693  0.00  0.00    +0.000 NA
ATOM      8  C   UNL     1      -7.054   3.405 124.703  0.00  0.00    +0.000 C 
ATOM      9  N   UNL     1      -6.682   3.735 123.370  0.00  0.00    +0.000 N 
ATOM     10  C   UNL     1      -7.180   3.292 122.129  0.00  0.00    +0.000 C 
ATOM     11  O   UNL     1      -7.984   2.385 121.880  0.00  0.00    +0.000 OA
ATOM     12  N   UNL     1      -8.051   2.500 124.958  0.00  0.00    +0.000 N 
ATOM     13  C   UNL     1      -8.797   1.782 123.981  0.00  0.00    +0.000 C 
ATOM     14  C   UNL     1      -9.723   0.903 124.763  0.00  0.00    +0.000 C 
ATOM     15  N   UNL     1      -9.464   1.201 126.201  0.00  0.00    +0.000 NA
ATOM     16  C   UNL     1      -8.502   2.101 126.175  0.00  0.00    +0.000 C 
ATOM     17  H   UNL     1      -5.972   4.459 123.359  0.00  0.00    +0.000 HD
ENDROOT
BRANCH  10  18
ATOM     18  C   UNL     1      -6.769   3.823 120.859  0.00  0.00    +0.000 A 
ATOM     19  C   UNL     1      -5.582   4.540 120.813  0.00  0.00    +0.000 A 
ATOM     20  N   UNL     1      -5.215   5.308 119.778  0.00  0.00    +0.000 NA
ATOM     21  C   UNL     1      -6.097   5.390 118.782  0.00  0.00    +0.000 A 
ATOM     22  N   UNL     1      -5.715   6.111 117.697  0.00  0.00    +0.000 N 
ATOM     23  N   UNL     1      -7.311   4.809 118.770  0.00  0.00    +0.000 NA
ATOM     24  C   UNL     1      -7.641   4.052 119.836  0.00  0.00    +0.000 A 
ATOM     25  H   UNL     1      -4.788   6.499 117.708  0.00  0.00    +0.000 HD
ATOM     26  H   UNL     1      -6.332   6.143 116.907  0.00  0.00    +0.000 HD
ENDBRANCH  10  18
BRANCH   1  28
ATOM     27  C   UNL     1      -3.806   4.538 127.929  0.00  0.00    +0.000 C 
ATOM     28  O   UNL     1      -5.117   5.118 128.015  0.00  0.00    +0.000 OA
ENDBRANCH   1  28
BRANCH   2  29
ATOM     29  O   UNL     1      -6.073   4.612 130.585  0.00  0.00    +0.000 OA
BRANCH  29  30
ATOM     30  C   UNL     1      -6.776   5.743 131.093  0.00  0.00    +0.000 C 
BRANCH  30  31
ATOM     31  C   UNL     1      -5.785   6.888 131.231  0.00  0.00    +0.000 C 
BRANCH  31  32
ATOM     32  C   UNL     1      -4.362   6.347 131.327  0.00  0.00    +0.000 C 
BRANCH  32  33
ATOM     33  N   UNL     1      -3.757   6.525 132.661  0.00  0.00    +0.000 NA
ATOM     34  C   UNL     1      -2.540   7.372 132.618  0.00  0.00    +0.000 C 
ATOM     35  C   UNL     1      -1.423   6.728 131.783  0.00  0.00    +0.000 C 
ATOM     36  O   UNL     1      -1.054   5.450 132.324  0.00  0.00    +0.000 OA
ATOM     37  C   UNL     1      -2.188   4.572 132.406  0.00  0.00    +0.000 C 
ATOM     38  C   UNL     1      -3.341   5.209 133.209  0.00  0.00    +0.000 C 
ENDBRANCH  32  33
ENDBRANCH  31  32
ENDBRANCH  30  31
ENDBRANCH  29  30
ENDBRANCH   2  29
TORSDOF 7
ENDMDL
MODEL 6
REMARK VINA RESULT:      -7.3      1.875      2.326
REMARK  Name = Copanlisib
REMARK  8 active torsions:
REMARK  status: ('A' for Active; 'I' for Inactive)
REMARK    1  A    between atoms: C_1  and  O_2
REMARK    2  A    between atoms: O_2  and  C_3
REMARK    3  A    between atoms: C_4  and  O_5
REMARK    4  A    between atoms: O_5  and  C_6
REMARK    5  A    between atoms: C_6  and  C_7
REMARK    6  A    between atoms: C_7  and  C_8
REMARK    7  A    between atoms: C_8  and  N_9
REMARK    8  A    between atoms: C_22  and  C_24
REMARK                            x       y       z     vdW  Elec       q    Type
REMARK                         _______ _______ _______ _____ _____    ______ ____
ROOT
ATOM      1  C   UNL     1      -3.246   4.655 129.233  0.00  0.00    +0.000 A 
ATOM      2  C   UNL     1      -3.244   4.173 130.576  0.00  0.00    +0.000 A 
ATOM      3  C   UNL     1      -3.886   2.971 130.889  0.00  0.00    +0.000 A 
ATOM      4  C   UNL     1      -4.581   2.267 129.913  0.00  0.00    +0.000 A 
ATOM      5  C   UNL     1      -4.649   2.774 128.614  0.00  0.00    +0.000 A 
ATOM      6  C   UNL     1      -4.001   3.979 128.217  0.00  0.00    +0.000 A 
ATOM      7  N   UNL     1      -4.099   4.479 126.839  0.00  0.00    +0.000 NA
ATOM      8  C   UNL     1      -4.794   3.775 125.969  0.00  0.00    +0.000 C 
ATOM      9  N   UNL     1      -4.891   4.259 124.635  0.00  0.00    +0.000 N 
ATOM     10  C   UNL     1      -5.562   3.746 123.507  0.00  0.00    +0.000 C 
ATOM     11  O   UNL     1      -6.130   2.657 123.354  0.00  0.00    +0.000 OA
ATOM     12  N   UNL     1      -5.408   2.610 126.348  0.00  0.00    +0.000 N 
ATOM     13  C   UNL     1      -6.165   1.751 125.502  0.00  0.00    +0.000 C 
ATOM     14  C   UNL     1      -6.580   0.607 126.375  0.00  0.00    +0.000 C 
ATOM     15  N   UNL     1      -6.039   0.903 127.733  0.00  0.00    +0.000 NA
ATOM     16  C   UNL     1      -5.396   2.043 127.582  0.00  0.00    +0.000 C 
ATOM     17  H   UNL     1      -4.431   5.157 124.538  0.00  0.00    +0.000 HD
ENDROOT
BRANCH  10  18
ATOM     18  C   UNL     1      -5.660   4.430 122.247  0.00  0.00    +0.000 A 
ATOM     19  C   UNL     1      -6.513   3.900 121.289  0.00  0.00    +0.000 A 
ATOM     20  N   UNL     1      -6.504   4.266 120.000  0.00  0.00    +0.000 NA
ATOM     21  C   UNL     1      -5.574   5.159 119.662  0.00  0.00    +0.000 A 
ATOM     22  N   UNL     1      -5.592   5.590 118.375  0.00  0.00    +0.000 N 
ATOM     23  N   UNL     1      -4.644   5.664 120.493  0.00  0.00    +0.000 NA
ATOM     24  C   UNL     1      -4.685   5.262 121.780  0.00  0.00    +0.000 A 
ATOM     25  H   UNL     1      -6.323   5.234 117.783  0.00  0.00    +0.000 HD
ATOM     26  H   UNL     1      -4.943   6.305 118.104  0.00  0.00    +0.000 HD
ENDBRANCH  10  18
BRANCH   1  28
ATOM     27  C   UNL     1      -3.373   7.022 128.957  0.00  0.00    +0.000 C 
ATOM     28  O   UNL     1      -2.582   5.825 128.895  0.00  0.00    +0.000 OA
ENDBRANCH   1  28
BRANCH   2  29
ATOM     29  O   UNL     1      -2.651   4.949 131.541  0.00  0.00    +0.000 OA
BRANCH  29  30
ATOM     30  C   UNL     1      -3.356   5.190 132.756  0.00  0.00    +0.000 C 
BRANCH  30  31
ATOM     31  C   UNL     1      -4.292   6.366 132.530  0.00  0.00    +0.000 C 
BRANCH  31  32
ATOM     32  C   UNL     1      -5.698   6.024 133.011  0.00  0.00    +0.000 C 
BRANCH  32  33
ATOM     33  N   UNL     1      -6.416   5.099 132.113  0.00  0.00    +0.000 NA
ATOM     34  C   UNL     1      -6.787   5.740 130.827  0.00  0.00    +0.000 C 
ATOM     35  C   UNL     1      -7.770   6.904 131.030  0.00  0.00    +0.000 C 
ATOM     36  O   UNL     1      -8.976   6.449 131.663  0.00  0.00    +0.000 OA
ATOM     37  C   UNL     1      -8.696   5.805 132.916  0.00  0.00    +0.000 C 
ATOM     38  C   UNL     1      -7.682   4.654 132.749  0.00  0.00    +0.000 C 
ENDBRANCH  32  33
ENDBRANCH  31  32
ENDBRANCH  30  31
ENDBRANCH  29  30
ENDBRANCH   2  29
TORSDOF 7
ENDMDL
MODEL 7
REMARK VINA RESULT:      -7.2      2.396      2.831
REMARK  Name = Copanlisib
REMARK  8 active torsions:
REMARK  status: ('A' for Active; 'I' for Inactive)
REMARK    1  A    between atoms: C_1  and  O_2
REMARK    2  A    between atoms: O_2  and  C_3
REMARK    3  A    between atoms: C_4  and  O_5
REMARK    4  A    between atoms: O_5  and  C_6
REMARK    5  A    between atoms: C_6  and  C_7
REMARK    6  A    between atoms: C_7  and  C_8
REMARK    7  A    between atoms: C_8  and  N_9
REMARK    8  A    between atoms: C_22  and  C_24
REMARK                            x       y       z     vdW  Elec       q    Type
REMARK                         _______ _______ _______ _____ _____    ______ ____
ROOT
ATOM      1  C   UNL     1      -4.837   4.467 128.463  0.00  0.00    +0.000 A 
ATOM      2  C   UNL     1      -5.112   4.055 129.801  0.00  0.00    +0.000 A 
ATOM      3  C   UNL     1      -5.865   2.901 130.036  0.00  0.00    +0.000 A 
ATOM      4  C   UNL     1      -6.402   2.180 128.977  0.00  0.00    +0.000 A 
ATOM      5  C   UNL     1      -6.197   2.621 127.669  0.00  0.00    +0.000 A 
ATOM      6  C   UNL     1      -5.422   3.775 127.351  0.00  0.00    +0.000 A 
ATOM      7  N   UNL     1      -5.234   4.206 125.960  0.00  0.00    +0.000 NA
ATOM      8  C   UNL     1      -5.790   3.491 125.005  0.00  0.00    +0.000 C 
ATOM      9  N   UNL     1      -5.609   3.910 123.657  0.00  0.00    +0.000 N 
ATOM     10  C   UNL     1      -6.083   3.370 122.445  0.00  0.00    +0.000 C 
ATOM     11  O   UNL     1      -6.670   2.302 122.232  0.00  0.00    +0.000 OA
ATOM     12  N   UNL     1      -6.526   2.376 125.309  0.00  0.00    +0.000 N 
ATOM     13  C   UNL     1      -7.156   1.510 124.371  0.00  0.00    +0.000 C 
ATOM     14  C   UNL     1      -7.789   0.432 125.196  0.00  0.00    +0.000 C 
ATOM     15  N   UNL     1      -7.496   0.772 126.619  0.00  0.00    +0.000 NA
ATOM     16  C   UNL     1      -6.776   1.873 126.545  0.00  0.00    +0.000 C 
ATOM     17  H   UNL     1      -5.091   4.780 123.612  0.00  0.00    +0.000 HD
ENDROOT
BRANCH  10  18
ATOM     18  C   UNL     1      -5.906   3.993 121.162  0.00  0.00    +0.000 A 
ATOM     19  C   UNL     1      -4.986   5.027 121.068  0.00  0.00    +0.000 A 
ATOM     20  N   UNL     1      -4.910   5.864 120.023  0.00  0.00    +0.000 NA
ATOM     21  C   UNL     1      -5.822   5.677 119.070  0.00  0.00    +0.000 A 
ATOM     22  N   UNL     1      -5.721   6.474 117.975  0.00  0.00    +0.000 N 
ATOM     23  N   UNL     1      -6.811   4.765 119.109  0.00  0.00    +0.000 NA
ATOM     24  C   UNL     1      -6.854   3.950 120.182  0.00  0.00    +0.000 A 
ATOM     25  H   UNL     1      -4.949   7.117 117.947  0.00  0.00    +0.000 HD
ATOM     26  H   UNL     1      -6.356   6.319 117.215  0.00  0.00    +0.000 HD
ENDBRANCH  10  18
BRANCH   1  28
ATOM     27  C   UNL     1      -2.654   5.335 128.043  0.00  0.00    +0.000 C 
ATOM     28  O   UNL     1      -4.058   5.587 128.208  0.00  0.00    +0.000 OA
ENDBRANCH   1  28
BRANCH   2  29
ATOM     29  O   UNL     1      -4.670   4.852 130.828  0.00  0.00    +0.000 OA
BRANCH  29  30
ATOM     30  C   UNL     1      -3.548   4.424 131.596  0.00  0.00    +0.000 C 
BRANCH  30  31
ATOM     31  C   UNL     1      -3.921   4.525 133.066  0.00  0.00    +0.000 C 
BRANCH  31  32
ATOM     32  C   UNL     1      -5.437   4.541 133.229  0.00  0.00    +0.000 C 
BRANCH  32  33
ATOM     33  N   UNL     1      -5.897   3.944 134.497  0.00  0.00    +0.000 NA
ATOM     34  C   UNL     1      -6.000   2.466 134.417  0.00  0.00    +0.000 C 
ATOM     35  C   UNL     1      -7.051   2.019 133.389  0.00  0.00    +0.000 C 
ATOM     36  O   UNL     1      -8.347   2.536 133.728  0.00  0.00    +0.000 OA
ATOM     37  C   UNL     1      -8.326   3.968 133.834  0.00  0.00    +0.000 C 
ATOM     38  C   UNL     1      -7.254   4.448 134.833  0.00  0.00    +0.000 C 
ENDBRANCH  32  33
ENDBRANCH  31  32
ENDBRANCH  30  31
ENDBRANCH  29  30
ENDBRANCH   2  29
TORSDOF 7
ENDMDL
MODEL 8
REMARK VINA RESULT:      -7.2      2.930      4.496
REMARK  Name = Copanlisib
REMARK  8 active torsions:
REMARK  status: ('A' for Active; 'I' for Inactive)
REMARK    1  A    between atoms: C_1  and  O_2
REMARK    2  A    between atoms: O_2  and  C_3
REMARK    3  A    between atoms: C_4  and  O_5
REMARK    4  A    between atoms: O_5  and  C_6
REMARK    5  A    between atoms: C_6  and  C_7
REMARK    6  A    between atoms: C_7  and  C_8
REMARK    7  A    between atoms: C_8  and  N_9
REMARK    8  A    between atoms: C_22  and  C_24
REMARK                            x       y       z     vdW  Elec       q    Type
REMARK                         _______ _______ _______ _____ _____    ______ ____
ROOT
ATOM      1  C   UNL     1      -3.878   4.769 128.682  0.00  0.00    +0.000 A 
ATOM      2  C   UNL     1      -4.096   4.545 130.074  0.00  0.00    +0.000 A 
ATOM      3  C   UNL     1      -5.080   3.644 130.492  0.00  0.00    +0.000 A 
ATOM      4  C   UNL     1      -5.892   3.004 129.564  0.00  0.00    +0.000 A 
ATOM      5  C   UNL     1      -5.731   3.276 128.204  0.00  0.00    +0.000 A 
ATOM      6  C   UNL     1      -4.735   4.165 127.703  0.00  0.00    +0.000 A 
ATOM      7  N   UNL     1      -4.601   4.425 126.264  0.00  0.00    +0.000 NA
ATOM      8  C   UNL     1      -5.419   3.804 125.439  0.00  0.00    +0.000 C 
ATOM      9  N   UNL     1      -5.290   4.056 124.045  0.00  0.00    +0.000 N 
ATOM     10  C   UNL     1      -6.014   3.564 122.941  0.00  0.00    +0.000 C 
ATOM     11  O   UNL     1      -6.866   2.668 122.891  0.00  0.00    +0.000 OA
ATOM     12  N   UNL     1      -6.368   2.941 125.920  0.00  0.00    +0.000 N 
ATOM     13  C   UNL     1      -7.292   2.194 125.135  0.00  0.00    +0.000 C 
ATOM     14  C   UNL     1      -8.076   1.381 126.118  0.00  0.00    +0.000 C 
ATOM     15  N   UNL     1      -7.553   1.745 127.467  0.00  0.00    +0.000 NA
ATOM     16  C   UNL     1      -6.597   2.615 127.218  0.00  0.00    +0.000 C 
ATOM     17  H   UNL     1      -4.583   4.759 123.865  0.00  0.00    +0.000 HD
ENDROOT
BRANCH  10  18
ATOM     18  C   UNL     1      -5.832   4.019 121.590  0.00  0.00    +0.000 A 
ATOM     19  C   UNL     1      -4.921   5.043 121.371  0.00  0.00    +0.000 A 
ATOM     20  N   UNL     1      -4.845   5.740 120.229  0.00  0.00    +0.000 NA
ATOM     21  C   UNL     1      -5.747   5.424 119.300  0.00  0.00    +0.000 A 
ATOM     22  N   UNL     1      -5.644   6.074 118.113  0.00  0.00    +0.000 N 
ATOM     23  N   UNL     1      -6.727   4.513 119.448  0.00  0.00    +0.000 NA
ATOM     24  C   UNL     1      -6.771   3.841 120.617  0.00  0.00    +0.000 A 
ATOM     25  H   UNL     1      -4.878   6.717 118.009  0.00  0.00    +0.000 HD
ATOM     26  H   UNL     1      -6.271   5.817 117.375  0.00  0.00    +0.000 HD
ENDBRANCH  10  18
BRANCH   1  28
ATOM     27  C   UNL     1      -3.258   7.012 128.156  0.00  0.00    +0.000 C 
ATOM     28  O   UNL     1      -2.881   5.629 128.246  0.00  0.00    +0.000 OA
ENDBRANCH   1  28
BRANCH   2  29
ATOM     29  O   UNL     1      -3.361   5.280 130.971  0.00  0.00    +0.000 OA
BRANCH  29  30
ATOM     30  C   UNL     1      -2.270   4.654 131.641  0.00  0.00    +0.000 C 
BRANCH  30  31
ATOM     31  C   UNL     1      -2.564   4.672 133.133  0.00  0.00    +0.000 C 
BRANCH  31  32
ATOM     32  C   UNL     1      -2.783   6.104 133.612  0.00  0.00    +0.000 C 
BRANCH  32  33
ATOM     33  N   UNL     1      -1.530   6.814 133.928  0.00  0.00    +0.000 NA
ATOM     34  C   UNL     1      -1.584   7.491 135.247  0.00  0.00    +0.000 C 
ATOM     35  C   UNL     1      -2.657   8.590 135.283  0.00  0.00    +0.000 C 
ATOM     36  O   UNL     1      -2.398   9.588 134.284  0.00  0.00    +0.000 OA
ATOM     37  C   UNL     1      -2.321   9.006 132.973  0.00  0.00    +0.000 C 
ATOM     38  C   UNL     1      -1.277   7.872 132.916  0.00  0.00    +0.000 C 
ENDBRANCH  32  33
ENDBRANCH  31  32
ENDBRANCH  30  31
ENDBRANCH  29  30
ENDBRANCH   2  29
TORSDOF 7
ENDMDL
MODEL 9
REMARK VINA RESULT:      -7.0      4.890      8.370
REMARK  Name = Copanlisib
REMARK  8 active torsions:
REMARK  status: ('A' for Active; 'I' for Inactive)
REMARK    1  A    between atoms: C_1  and  O_2
REMARK    2  A    between atoms: O_2  and  C_3
REMARK    3  A    between atoms: C_4  and  O_5
REMARK    4  A    between atoms: O_5  and  C_6
REMARK    5  A    between atoms: C_6  and  C_7
REMARK    6  A    between atoms: C_7  and  C_8
REMARK    7  A    between atoms: C_8  and  N_9
REMARK    8  A    between atoms: C_22  and  C_24
REMARK                            x       y       z     vdW  Elec       q    Type
REMARK                         _______ _______ _______ _____ _____    ______ ____
ROOT
ATOM      1  C   UNL     1      -6.551   0.868 131.057  0.00  0.00    +0.000 A 
ATOM      2  C   UNL     1      -5.339   0.169 131.334  0.00  0.00    +0.000 A 
ATOM      3  C   UNL     1      -4.182   0.879 131.666  0.00  0.00    +0.000 A 
ATOM      4  C   UNL     1      -4.183   2.269 131.671  0.00  0.00    +0.000 A 
ATOM      5  C   UNL     1      -5.348   2.958 131.328  0.00  0.00    +0.000 A 
ATOM      6  C   UNL     1      -6.570   2.302 131.001  0.00  0.00    +0.000 A 
ATOM      7  N   UNL     1      -7.773   3.065 130.643  0.00  0.00    +0.000 NA
ATOM      8  C   UNL     1      -7.699   4.380 130.644  0.00  0.00    +0.000 C 
ATOM      9  N   UNL     1      -8.864   5.120 130.297  0.00  0.00    +0.000 N 
ATOM     10  C   UNL     1      -9.087   6.508 130.195  0.00  0.00    +0.000 C 
ATOM     11  O   UNL     1      -8.356   7.451 130.524  0.00  0.00    +0.000 OA
ATOM     12  N   UNL     1      -6.528   5.011 130.969  0.00  0.00    +0.000 N 
ATOM     13  C   UNL     1      -6.327   6.419 131.030  0.00  0.00    +0.000 C 
ATOM     14  C   UNL     1      -4.905   6.595 131.467  0.00  0.00    +0.000 C 
ATOM     15  N   UNL     1      -4.343   5.221 131.611  0.00  0.00    +0.000 NA
ATOM     16  C   UNL     1      -5.352   4.427 131.315  0.00  0.00    +0.000 C 
ATOM     17  H   UNL     1      -9.622   4.503 130.029  0.00  0.00    +0.000 HD
ENDROOT
BRANCH  10  18
ATOM     18  C   UNL     1     -10.305   7.095 129.709  0.00  0.00    +0.000 A 
ATOM     19  C   UNL     1     -10.226   7.907 128.586  0.00  0.00    +0.000 A 
ATOM     20  N   UNL     1     -11.212   8.722 128.185  0.00  0.00    +0.000 NA
ATOM     21  C   UNL     1     -12.288   8.751 128.970  0.00  0.00    +0.000 A 
ATOM     22  N   UNL     1     -13.322   9.522 128.547  0.00  0.00    +0.000 N 
ATOM     23  N   UNL     1     -12.426   8.074 130.125  0.00  0.00    +0.000 NA
ATOM     24  C   UNL     1     -11.405   7.272 130.494  0.00  0.00    +0.000 A 
ATOM     25  H   UNL     1     -13.216   9.983 127.660  0.00  0.00    +0.000 HD
ATOM     26  H   UNL     1     -14.168   9.518 129.085  0.00  0.00    +0.000 HD
ENDBRANCH  10  18
BRANCH   1  28
ATOM     27  C   UNL     1      -8.560  -0.113 131.891  0.00  0.00    +0.000 C 
ATOM     28  O   UNL     1      -7.720   0.180 130.764  0.00  0.00    +0.000 OA
ENDBRANCH   1  28
BRANCH   2  29
ATOM     29  O   UNL     1      -5.336  -1.198 131.205  0.00  0.00    +0.000 OA
BRANCH  29  30
ATOM     30  C   UNL     1      -4.394  -1.802 130.322  0.00  0.00    +0.000 C 
BRANCH  30  31
ATOM     31  C   UNL     1      -5.149  -2.765 129.420  0.00  0.00    +0.000 C 
BRANCH  31  32
ATOM     32  C   UNL     1      -5.244  -2.202 128.005  0.00  0.00    +0.000 C 
BRANCH  32  33
ATOM     33  N   UNL     1      -6.433  -1.356 127.790  0.00  0.00    +0.000 NA
ATOM     34  C   UNL     1      -7.292  -1.861 126.692  0.00  0.00    +0.000 C 
ATOM     35  C   UNL     1      -6.565  -1.838 125.338  0.00  0.00    +0.000 C 
ATOM     36  O   UNL     1      -6.157  -0.503 125.002  0.00  0.00    +0.000 OA
ATOM     37  C   UNL     1      -5.325   0.062 126.028  0.00  0.00    +0.000 C 
ATOM     38  C   UNL     1      -6.015   0.018 127.407  0.00  0.00    +0.000 C 
ENDBRANCH  32  33
ENDBRANCH  31  32
ENDBRANCH  30  31
ENDBRANCH  29  30
ENDBRANCH   2  29
TORSDOF 7
ENDMDL
