MODEL 1
REMARK VINA RESULT:      -1.0      0.000      0.000
REMARK  Name = Copper Cu-64
REMARK  0 active torsions:
REMARK  status: ('A' for Active; 'I' for Inactive)
REMARK                            x       y       z     vdW  Elec       q    Type
REMARK                         _______ _______ _______ _____ _____    ______ ____
ROOT
ATOM      1 CU   UNL     1       0.114  -6.488 122.656  0.00  0.00    +0.000 Cu
ENDROOT
TORSDOF 0
ENDMDL
MODEL 2
REMARK VINA RESULT:      -1.0     10.616     10.616
REMARK  Name = Copper Cu-64
REMARK  0 active torsions:
REMARK  status: ('A' for Active; 'I' for Inactive)
REMARK                            x       y       z     vdW  Elec       q    Type
REMARK                         _______ _______ _______ _____ _____    ______ ____
ROOT
ATOM      1 CU   UNL     1       1.410   3.630 119.712  0.00  0.00    +0.000 Cu
ENDROOT
TORSDOF 0
ENDMDL
MODEL 3
REMARK VINA RESULT:      -1.0     25.757     25.757
REMARK  Name = Copper Cu-64
REMARK  0 active torsions:
REMARK  status: ('A' for Active; 'I' for Inactive)
REMARK                            x       y       z     vdW  Elec       q    Type
REMARK                         _______ _______ _______ _____ _____    ______ ____
ROOT
ATOM      1 CU   UNL     1     -13.081  13.774 131.533  0.00  0.00    +0.000 Cu
ENDROOT
TORSDOF 0
ENDMDL
MODEL 4
REMARK VINA RESULT:      -1.0     24.475     24.475
REMARK  Name = Copper Cu-64
REMARK  0 active torsions:
REMARK  status: ('A' for Active; 'I' for Inactive)
REMARK                            x       y       z     vdW  Elec       q    Type
REMARK                         _______ _______ _______ _____ _____    ______ ____
ROOT
ATOM      1 CU   UNL     1     -12.436  12.095 132.466  0.00  0.00    +0.000 Cu
ENDROOT
TORSDOF 0
ENDMDL
MODEL 5
REMARK VINA RESULT:      -1.0     22.215     22.215
REMARK  Name = Copper Cu-64
REMARK  0 active torsions:
REMARK  status: ('A' for Active; 'I' for Inactive)
REMARK                            x       y       z     vdW  Elec       q    Type
REMARK                         _______ _______ _______ _____ _____    ______ ____
ROOT
ATOM      1 CU   UNL     1      -4.096  14.876 127.058  0.00  0.00    +0.000 Cu
ENDROOT
TORSDOF 0
ENDMDL
MODEL 6
REMARK VINA RESULT:      -1.0     19.106     19.106
REMARK  Name = Copper Cu-64
REMARK  0 active torsions:
REMARK  status: ('A' for Active; 'I' for Inactive)
REMARK                            x       y       z     vdW  Elec       q    Type
REMARK                         _______ _______ _______ _____ _____    ______ ____
ROOT
ATOM      1 CU   UNL     1      -3.095  11.261 128.958  0.00  0.00    +0.000 Cu
ENDROOT
TORSDOF 0
ENDMDL
MODEL 7
REMARK VINA RESULT:      -1.0     25.001     25.001
REMARK  Name = Copper Cu-64
REMARK  0 active torsions:
REMARK  status: ('A' for Active; 'I' for Inactive)
REMARK                            x       y       z     vdW  Elec       q    Type
REMARK                         _______ _______ _______ _____ _____    ______ ____
ROOT
ATOM      1 CU   UNL     1     -12.839   9.558 136.793  0.00  0.00    +0.000 Cu
ENDROOT
TORSDOF 0
ENDMDL
MODEL 8
REMARK VINA RESULT:      -1.0      4.139      4.139
REMARK  Name = Copper Cu-64
REMARK  0 active torsions:
REMARK  status: ('A' for Active; 'I' for Inactive)
REMARK                            x       y       z     vdW  Elec       q    Type
REMARK                         _______ _______ _______ _____ _____    ______ ____
ROOT
ATOM      1 CU   UNL     1      -4.004  -6.172 122.936  0.00  0.00    +0.000 Cu
ENDROOT
TORSDOF 0
ENDMDL
MODEL 9
REMARK VINA RESULT:      -0.9     17.239     17.239
REMARK  Name = Copper Cu-64
REMARK  0 active torsions:
REMARK  status: ('A' for Active; 'I' for Inactive)
REMARK                            x       y       z     vdW  Elec       q    Type
REMARK                         _______ _______ _______ _____ _____    ______ ____
ROOT
ATOM      1 CU   UNL     1     -12.505   4.075 117.519  0.00  0.00    +0.000 Cu
ENDROOT
TORSDOF 0
ENDMDL
