MODEL 1
REMARK VINA RESULT:      -8.6      0.000      0.000
REMARK  Name = Cortisone acetate
REMARK  8 active torsions:
REMARK  status: ('A' for Active; 'I' for Inactive)
REMARK    1  A    between atoms: C_5  and  O_6
REMARK    2  A    between atoms: C_5  and  C_7
REMARK    3  A    between atoms: C_7  and  C_9
REMARK    4  A    between atoms: C_9  and  O_10
REMARK    5  A    between atoms: O_10  and  C_11
REMARK    6  A    between atoms: C_11  and  C_12
REMARK    7  A    between atoms: C_14  and  C_15
REMARK    8  A    between atoms: C_31  and  C_32
REMARK                            x       y       z     vdW  Elec       q    Type
REMARK                         _______ _______ _______ _____ _____    ______ ____
ROOT
ATOM      1  C   UNL     1      -7.132  -3.256 130.447  0.00  0.00    +0.000 C 
ATOM      2  C   UNL     1      -6.205  -4.318 130.314  0.00  0.00    +0.000 C 
ATOM      3  C   UNL     1      -5.730  -2.972 129.859  0.00  0.00    +0.000 C 
ATOM      4  C   UNL     1      -6.794  -1.276 130.517  0.00  0.00    +0.000 C 
ATOM      5  C   UNL     1      -5.796  -2.050 131.099  0.00  0.00    +0.000 C 
ATOM      6  C   UNL     1      -5.465  -2.315 132.515  0.00  0.00    +0.000 C 
ATOM      7  C   UNL     1      -4.755  -1.100 129.846  0.00  0.00    +0.000 C 
ATOM      8  C   UNL     1      -5.640  -0.822 128.411  0.00  0.00    +0.000 C 
ATOM      9  O   UNL     1      -5.628   0.322 127.954  0.00  0.00    +0.000 OA
ATOM     10  C   UNL     1      -6.584  -2.023 127.716  0.00  0.00    +0.000 C 
ATOM     11  C   UNL     1      -7.736  -2.725 128.814  0.00  0.00    +0.000 C 
ATOM     12  C   UNL     1      -8.390  -3.945 128.202  0.00  0.00    +0.000 C 
ATOM     13  C   UNL     1      -8.956  -3.650 126.840  0.00  0.00    +0.000 C 
ATOM     14  C   UNL     1      -8.026  -2.977 125.873  0.00  0.00    +0.000 C 
ATOM     15  C   UNL     1      -8.010  -3.372 124.592  0.00  0.00    +0.000 C 
ATOM     16  C   UNL     1      -7.365  -2.423 123.686  0.00  0.00    +0.000 C 
ATOM     17  O   UNL     1      -7.842  -1.353 123.317  0.00  0.00    +0.000 OA
ATOM     18  C   UNL     1      -5.933  -2.594 123.669  0.00  0.00    +0.000 C 
ATOM     19  C   UNL     1      -5.869  -1.671 125.110  0.00  0.00    +0.000 C 
ATOM     20  C   UNL     1      -7.182  -1.772 126.299  0.00  0.00    +0.000 C 
ATOM     21  C   UNL     1      -8.172  -0.605 126.556  0.00  0.00    +0.000 C 
ENDROOT
BRANCH   4  22
ATOM     22  O   UNL     1      -7.985  -1.500 131.403  0.00  0.00    +0.000 OA
ATOM     23  H   UNL     1      -8.798  -1.696 130.918  0.00  0.00    +0.000 HD
ENDBRANCH   4  22
BRANCH   4  24
ATOM     24  C   UNL     1      -6.379   0.264 131.424  0.00  0.00    +0.000 C 
ATOM     25  O   UNL     1      -5.910   0.250 132.576  0.00  0.00    +0.000 OA
BRANCH  24  26
ATOM     26  C   UNL     1      -6.716   1.789 130.917  0.00  0.00    +0.000 C 
BRANCH  26  27
ATOM     27  O   UNL     1      -8.209   2.019 130.976  0.00  0.00    +0.000 OA
BRANCH  27  28
ATOM     28  C   UNL     1      -9.114   1.785 131.967  0.00  0.00    +0.000 C 
ATOM     29  C   UNL     1      -9.204   2.740 133.119  0.00  0.00    +0.000 C 
ATOM     30  O   UNL     1      -9.861   0.803 131.944  0.00  0.00    +0.000 OA
ENDBRANCH  27  28
ENDBRANCH  26  27
ENDBRANCH  24  26
ENDBRANCH   4  24
TORSDOF 5
ENDMDL
MODEL 2
REMARK VINA RESULT:      -8.0      1.531      1.842
REMARK  Name = Cortisone acetate
REMARK  8 active torsions:
REMARK  status: ('A' for Active; 'I' for Inactive)
REMARK    1  A    between atoms: C_5  and  O_6
REMARK    2  A    between atoms: C_5  and  C_7
REMARK    3  A    between atoms: C_7  and  C_9
REMARK    4  A    between atoms: C_9  and  O_10
REMARK    5  A    between atoms: O_10  and  C_11
REMARK    6  A    between atoms: C_11  and  C_12
REMARK    7  A    between atoms: C_14  and  C_15
REMARK    8  A    between atoms: C_31  and  C_32
REMARK                            x       y       z     vdW  Elec       q    Type
REMARK                         _______ _______ _______ _____ _____    ______ ____
ROOT
ATOM      1  C   UNL     1      -6.808  -2.165 129.525  0.00  0.00    +0.000 C 
ATOM      2  C   UNL     1      -5.697  -2.977 129.191  0.00  0.00    +0.000 C 
ATOM      3  C   UNL     1      -5.720  -1.612 128.574  0.00  0.00    +0.000 C 
ATOM      4  C   UNL     1      -6.996  -0.166 129.424  0.00  0.00    +0.000 C 
ATOM      5  C   UNL     1      -5.718  -0.608 129.750  0.00  0.00    +0.000 C 
ATOM      6  C   UNL     1      -4.990  -0.631 131.037  0.00  0.00    +0.000 C 
ATOM      7  C   UNL     1      -5.306   0.428 128.229  0.00  0.00    +0.000 C 
ATOM      8  C   UNL     1      -6.558   0.329 127.071  0.00  0.00    +0.000 C 
ATOM      9  O   UNL     1      -6.961   1.386 126.583  0.00  0.00    +0.000 OA
ATOM     10  C   UNL     1      -7.295  -1.133 126.700  0.00  0.00    +0.000 C 
ATOM     11  C   UNL     1      -7.914  -1.973 128.092  0.00  0.00    +0.000 C 
ATOM     12  C   UNL     1      -8.355  -3.373 127.723  0.00  0.00    +0.000 C 
ATOM     13  C   UNL     1      -9.296  -3.371 126.550  0.00  0.00    +0.000 C 
ATOM     14  C   UNL     1      -8.845  -2.599 125.345  0.00  0.00    +0.000 C 
ATOM     15  C   UNL     1      -9.042  -3.112 124.123  0.00  0.00    +0.000 C 
ATOM     16  C   UNL     1      -8.913  -2.137 123.041  0.00  0.00    +0.000 C 
ATOM     17  O   UNL     1      -9.731  -1.261 122.771  0.00  0.00    +0.000 OA
ATOM     18  C   UNL     1      -7.537  -1.955 122.651  0.00  0.00    +0.000 C 
ATOM     19  C   UNL     1      -7.364  -0.897 123.986  0.00  0.00    +0.000 C 
ATOM     20  C   UNL     1      -8.268  -1.187 125.484  0.00  0.00    +0.000 C 
ATOM     21  C   UNL     1      -9.435  -0.275 125.949  0.00  0.00    +0.000 C 
ENDROOT
BRANCH   4  22
ATOM     22  O   UNL     1      -7.829  -0.577 130.603  0.00  0.00    +0.000 OA
ATOM     23  H   UNL     1      -8.475  -1.268 130.400  0.00  0.00    +0.000 HD
ENDBRANCH   4  22
BRANCH   4  24
ATOM     24  C   UNL     1      -6.789   1.516 130.127  0.00  0.00    +0.000 C 
ATOM     25  O   UNL     1      -6.218   1.716 131.215  0.00  0.00    +0.000 OA
BRANCH  24  26
ATOM     26  C   UNL     1      -7.450   2.891 129.520  0.00  0.00    +0.000 C 
BRANCH  26  27
ATOM     27  O   UNL     1      -8.951   2.735 129.441  0.00  0.00    +0.000 OA
BRANCH  27  28
ATOM     28  C   UNL     1      -9.934   3.048 130.331  0.00  0.00    +0.000 C 
ATOM     29  C   UNL     1      -9.982   2.336 131.650  0.00  0.00    +0.000 C 
ATOM     30  O   UNL     1     -10.790   3.899 130.080  0.00  0.00    +0.000 OA
ENDBRANCH  27  28
ENDBRANCH  26  27
ENDBRANCH  24  26
ENDBRANCH   4  24
TORSDOF 5
ENDMDL
MODEL 3
REMARK VINA RESULT:      -7.9      5.330      8.971
REMARK  Name = Cortisone acetate
REMARK  8 active torsions:
REMARK  status: ('A' for Active; 'I' for Inactive)
REMARK    1  A    between atoms: C_5  and  O_6
REMARK    2  A    between atoms: C_5  and  C_7
REMARK    3  A    between atoms: C_7  and  C_9
REMARK    4  A    between atoms: C_9  and  O_10
REMARK    5  A    between atoms: O_10  and  C_11
REMARK    6  A    between atoms: C_11  and  C_12
REMARK    7  A    between atoms: C_14  and  C_15
REMARK    8  A    between atoms: C_31  and  C_32
REMARK                            x       y       z     vdW  Elec       q    Type
REMARK                         _______ _______ _______ _____ _____    ______ ____
ROOT
ATOM      1  C   UNL     1      -6.120   3.490 128.602  0.00  0.00    +0.000 C 
ATOM      2  C   UNL     1      -5.569   2.262 129.039  0.00  0.00    +0.000 C 
ATOM      3  C   UNL     1      -6.171   3.126 130.104  0.00  0.00    +0.000 C 
ATOM      4  C   UNL     1      -7.480   4.664 129.504  0.00  0.00    +0.000 C 
ATOM      5  C   UNL     1      -7.659   3.303 129.725  0.00  0.00    +0.000 C 
ATOM      6  C   UNL     1      -8.632   2.341 129.163  0.00  0.00    +0.000 C 
ATOM      7  C   UNL     1      -7.543   3.891 131.513  0.00  0.00    +0.000 C 
ATOM      8  C   UNL     1      -6.441   5.189 131.654  0.00  0.00    +0.000 C 
ATOM      9  O   UNL     1      -6.812   6.178 132.288  0.00  0.00    +0.000 OA
ATOM     10  C   UNL     1      -4.961   5.171 130.863  0.00  0.00    +0.000 C 
ATOM     11  C   UNL     1      -5.090   4.887 129.152  0.00  0.00    +0.000 C 
ATOM     12  C   UNL     1      -3.725   4.656 128.540  0.00  0.00    +0.000 C 
ATOM     13  C   UNL     1      -2.760   5.751 128.899  0.00  0.00    +0.000 C 
ATOM     14  C   UNL     1      -2.661   6.089 130.358  0.00  0.00    +0.000 C 
ATOM     15  C   UNL     1      -1.458   6.329 130.899  0.00  0.00    +0.000 C 
ATOM     16  C   UNL     1      -1.514   7.001 132.196  0.00  0.00    +0.000 C 
ATOM     17  O   UNL     1      -1.795   8.184 132.375  0.00  0.00    +0.000 OA
ATOM     18  C   UNL     1      -1.717   6.063 133.272  0.00  0.00    +0.000 C 
ATOM     19  C   UNL     1      -3.385   6.083 132.891  0.00  0.00    +0.000 C 
ATOM     20  C   UNL     1      -3.920   6.277 131.211  0.00  0.00    +0.000 C 
ATOM     21  C   UNL     1      -4.616   7.566 130.696  0.00  0.00    +0.000 C 
ENDROOT
BRANCH   4  22
ATOM     22  O   UNL     1      -7.738   4.827 128.034  0.00  0.00    +0.000 OA
ATOM     23  H   UNL     1      -7.110   5.415 127.593  0.00  0.00    +0.000 HD
ENDBRANCH   4  22
BRANCH   4  24
ATOM     24  C   UNL     1      -9.211   5.138 129.885  0.00  0.00    +0.000 C 
ATOM     25  O   UNL     1     -10.167   4.362 129.703  0.00  0.00    +0.000 OA
BRANCH  24  26
ATOM     26  C   UNL     1      -9.713   6.635 130.334  0.00  0.00    +0.000 C 
BRANCH  26  27
ATOM     27  O   UNL     1      -9.713   7.548 129.129  0.00  0.00    +0.000 OA
BRANCH  27  28
ATOM     28  C   UNL     1     -10.394   7.478 127.951  0.00  0.00    +0.000 C 
ATOM     29  C   UNL     1     -11.635   8.301 127.772  0.00  0.00    +0.000 C 
ATOM     30  O   UNL     1     -10.020   6.752 127.027  0.00  0.00    +0.000 OA
ENDBRANCH  27  28
ENDBRANCH  26  27
ENDBRANCH  24  26
ENDBRANCH   4  24
TORSDOF 5
ENDMDL
MODEL 4
REMARK VINA RESULT:      -7.9      5.997      8.953
REMARK  Name = Cortisone acetate
REMARK  8 active torsions:
REMARK  status: ('A' for Active; 'I' for Inactive)
REMARK    1  A    between atoms: C_5  and  O_6
REMARK    2  A    between atoms: C_5  and  C_7
REMARK    3  A    between atoms: C_7  and  C_9
REMARK    4  A    between atoms: C_9  and  O_10
REMARK    5  A    between atoms: O_10  and  C_11
REMARK    6  A    between atoms: C_11  and  C_12
REMARK    7  A    between atoms: C_14  and  C_15
REMARK    8  A    between atoms: C_31  and  C_32
REMARK                            x       y       z     vdW  Elec       q    Type
REMARK                         _______ _______ _______ _____ _____    ______ ____
ROOT
ATOM      1  C   UNL     1      -8.294   3.290 130.543  0.00  0.00    +0.000 C 
ATOM      2  C   UNL     1      -8.542   2.890 131.879  0.00  0.00    +0.000 C 
ATOM      3  C   UNL     1      -8.386   4.363 131.653  0.00  0.00    +0.000 C 
ATOM      4  C   UNL     1      -8.573   5.085 129.683  0.00  0.00    +0.000 C 
ATOM      5  C   UNL     1      -9.504   4.768 130.666  0.00  0.00    +0.000 C 
ATOM      6  C   UNL     1     -10.913   4.330 130.573  0.00  0.00    +0.000 C 
ATOM      7  C   UNL     1      -8.863   6.398 131.365  0.00  0.00    +0.000 C 
ATOM      8  C   UNL     1      -7.197   6.585 131.037  0.00  0.00    +0.000 C 
ATOM      9  O   UNL     1      -6.830   7.665 130.572  0.00  0.00    +0.000 OA
ATOM     10  C   UNL     1      -6.119   5.311 131.223  0.00  0.00    +0.000 C 
ATOM     11  C   UNL     1      -6.581   3.875 130.356  0.00  0.00    +0.000 C 
ATOM     12  C   UNL     1      -5.703   2.706 130.745  0.00  0.00    +0.000 C 
ATOM     13  C   UNL     1      -4.242   3.041 130.625  0.00  0.00    +0.000 C 
ATOM     14  C   UNL     1      -3.800   4.310 131.294  0.00  0.00    +0.000 C 
ATOM     15  C   UNL     1      -2.641   4.330 131.967  0.00  0.00    +0.000 C 
ATOM     16  C   UNL     1      -2.140   5.675 132.246  0.00  0.00    +0.000 C 
ATOM     17  O   UNL     1      -1.637   6.433 131.421  0.00  0.00    +0.000 OA
ATOM     18  C   UNL     1      -2.743   6.231 133.433  0.00  0.00    +0.000 C 
ATOM     19  C   UNL     1      -4.099   6.646 132.474  0.00  0.00    +0.000 C 
ATOM     20  C   UNL     1      -4.593   5.609 131.122  0.00  0.00    +0.000 C 
ATOM     21  C   UNL     1      -4.433   6.033 129.637  0.00  0.00    +0.000 C 
ENDROOT
BRANCH   4  22
ATOM     22  O   UNL     1      -8.844   4.086 128.596  0.00  0.00    +0.000 OA
ATOM     23  H   UNL     1      -8.667   4.422 127.706  0.00  0.00    +0.000 HD
ENDBRANCH   4  22
BRANCH   4  24
ATOM     24  C   UNL     1      -9.623   6.327 128.834  0.00  0.00    +0.000 C 
ATOM     25  O   UNL     1      -9.854   6.278 127.612  0.00  0.00    +0.000 OA
BRANCH  24  26
ATOM     26  C   UNL     1     -10.225   7.693 129.517  0.00  0.00    +0.000 C 
BRANCH  26  27
ATOM     27  O   UNL     1     -11.732   7.599 129.585  0.00  0.00    +0.000 OA
BRANCH  27  28
ATOM     28  C   UNL     1     -12.698   8.061 128.743  0.00  0.00    +0.000 C 
ATOM     29  C   UNL     1     -13.445   7.088 127.880  0.00  0.00    +0.000 C 
ATOM     30  O   UNL     1     -12.974   9.261 128.668  0.00  0.00    +0.000 OA
ENDBRANCH  27  28
ENDBRANCH  26  27
ENDBRANCH  24  26
ENDBRANCH   4  24
TORSDOF 5
ENDMDL
MODEL 5
REMARK VINA RESULT:      -7.8      6.589      8.861
REMARK  Name = Cortisone acetate
REMARK  8 active torsions:
REMARK  status: ('A' for Active; 'I' for Inactive)
REMARK    1  A    between atoms: C_5  and  O_6
REMARK    2  A    between atoms: C_5  and  C_7
REMARK    3  A    between atoms: C_7  and  C_9
REMARK    4  A    between atoms: C_9  and  O_10
REMARK    5  A    between atoms: O_10  and  C_11
REMARK    6  A    between atoms: C_11  and  C_12
REMARK    7  A    between atoms: C_14  and  C_15
REMARK    8  A    between atoms: C_31  and  C_32
REMARK                            x       y       z     vdW  Elec       q    Type
REMARK                         _______ _______ _______ _____ _____    ______ ____
ROOT
ATOM      1  C   UNL     1      -6.528   3.218 133.776  0.00  0.00    +0.000 C 
ATOM      2  C   UNL     1      -6.500   3.868 135.034  0.00  0.00    +0.000 C 
ATOM      3  C   UNL     1      -6.717   4.752 133.844  0.00  0.00    +0.000 C 
ATOM      4  C   UNL     1      -7.322   3.847 132.040  0.00  0.00    +0.000 C 
ATOM      5  C   UNL     1      -8.019   4.256 133.171  0.00  0.00    +0.000 C 
ATOM      6  C   UNL     1      -9.289   3.783 133.762  0.00  0.00    +0.000 C 
ATOM      7  C   UNL     1      -7.684   5.940 132.392  0.00  0.00    +0.000 C 
ATOM      8  C   UNL     1      -6.163   5.956 131.614  0.00  0.00    +0.000 C 
ATOM      9  O   UNL     1      -6.119   6.410 130.470  0.00  0.00    +0.000 OA
ATOM     10  C   UNL     1      -4.807   5.272 132.328  0.00  0.00    +0.000 C 
ATOM     11  C   UNL     1      -5.035   3.618 132.814  0.00  0.00    +0.000 C 
ATOM     12  C   UNL     1      -3.868   3.136 133.649  0.00  0.00    +0.000 C 
ATOM     13  C   UNL     1      -2.552   3.389 132.967  0.00  0.00    +0.000 C 
ATOM     14  C   UNL     1      -2.330   4.784 132.461  0.00  0.00    +0.000 C 
ATOM     15  C   UNL     1      -1.129   5.359 132.618  0.00  0.00    +0.000 C 
ATOM     16  C   UNL     1      -0.919   6.535 131.776  0.00  0.00    +0.000 C 
ATOM     17  O   UNL     1      -0.717   6.517 130.564  0.00  0.00    +0.000 OA
ATOM     18  C   UNL     1      -1.473   7.724 132.376  0.00  0.00    +0.000 C 
ATOM     19  C   UNL     1      -3.001   7.239 131.777  0.00  0.00    +0.000 C 
ATOM     20  C   UNL     1      -3.417   5.517 131.668  0.00  0.00    +0.000 C 
ATOM     21  C   UNL     1      -3.554   4.773 130.312  0.00  0.00    +0.000 C 
ENDROOT
BRANCH   4  22
ATOM     22  O   UNL     1      -7.496   2.355 132.030  0.00  0.00    +0.000 OA
ATOM     23  H   UNL     1      -7.082   1.912 132.783  0.00  0.00    +0.000 HD
ENDBRANCH   4  22
BRANCH   4  24
ATOM     24  C   UNL     1      -8.732   4.041 130.881  0.00  0.00    +0.000 C 
ATOM     25  O   UNL     1      -9.851   3.546 131.108  0.00  0.00    +0.000 OA
BRANCH  24  26
ATOM     26  C   UNL     1      -8.652   4.718 129.387  0.00  0.00    +0.000 C 
BRANCH  26  27
ATOM     27  O   UNL     1      -9.821   5.657 129.198  0.00  0.00    +0.000 OA
BRANCH  27  28
ATOM     28  C   UNL     1     -10.016   6.941 129.609  0.00  0.00    +0.000 C 
ATOM     29  C   UNL     1     -11.399   7.393 129.971  0.00  0.00    +0.000 C 
ATOM     30  O   UNL     1      -9.084   7.745 129.688  0.00  0.00    +0.000 OA
ENDBRANCH  27  28
ENDBRANCH  26  27
ENDBRANCH  24  26
ENDBRANCH   4  24
TORSDOF 5
ENDMDL
MODEL 6
REMARK VINA RESULT:      -7.8      2.520      6.252
REMARK  Name = Cortisone acetate
REMARK  8 active torsions:
REMARK  status: ('A' for Active; 'I' for Inactive)
REMARK    1  A    between atoms: C_5  and  O_6
REMARK    2  A    between atoms: C_5  and  C_7
REMARK    3  A    between atoms: C_7  and  C_9
REMARK    4  A    between atoms: C_9  and  O_10
REMARK    5  A    between atoms: O_10  and  C_11
REMARK    6  A    between atoms: C_11  and  C_12
REMARK    7  A    between atoms: C_14  and  C_15
REMARK    8  A    between atoms: C_31  and  C_32
REMARK                            x       y       z     vdW  Elec       q    Type
REMARK                         _______ _______ _______ _____ _____    ______ ____
ROOT
ATOM      1  C   UNL     1      -7.768   1.776 128.233  0.00  0.00    +0.000 C 
ATOM      2  C   UNL     1      -6.740   2.513 128.869  0.00  0.00    +0.000 C 
ATOM      3  C   UNL     1      -6.293   1.512 127.848  0.00  0.00    +0.000 C 
ATOM      4  C   UNL     1      -7.726   0.789 126.482  0.00  0.00    +0.000 C 
ATOM      5  C   UNL     1      -6.945   1.940 126.512  0.00  0.00    +0.000 C 
ATOM      6  C   UNL     1      -7.159   3.282 125.930  0.00  0.00    +0.000 C 
ATOM      7  C   UNL     1      -5.624   0.686 126.025  0.00  0.00    +0.000 C 
ATOM      8  C   UNL     1      -5.910  -0.820 126.779  0.00  0.00    +0.000 C 
ATOM      9  O   UNL     1      -5.861  -1.825 126.069  0.00  0.00    +0.000 OA
ATOM     10  C   UNL     1      -6.359  -0.920 128.394  0.00  0.00    +0.000 C 
ATOM     11  C   UNL     1      -7.752   0.042 128.790  0.00  0.00    +0.000 C 
ATOM     12  C   UNL     1      -7.965   0.091 130.288  0.00  0.00    +0.000 C 
ATOM     13  C   UNL     1      -7.990  -1.285 130.893  0.00  0.00    +0.000 C 
ATOM     14  C   UNL     1      -6.847  -2.187 130.526  0.00  0.00    +0.000 C 
ATOM     15  C   UNL     1      -6.289  -2.958 131.469  0.00  0.00    +0.000 C 
ATOM     16  C   UNL     1      -5.463  -4.042 130.937  0.00  0.00    +0.000 C 
ATOM     17  O   UNL     1      -5.886  -5.061 130.398  0.00  0.00    +0.000 OA
ATOM     18  C   UNL     1      -4.127  -3.591 130.633  0.00  0.00    +0.000 C 
ATOM     19  C   UNL     1      -4.738  -2.974 129.158  0.00  0.00    +0.000 C 
ATOM     20  C   UNL     1      -6.386  -2.323 129.071  0.00  0.00    +0.000 C 
ATOM     21  C   UNL     1      -7.532  -3.041 128.308  0.00  0.00    +0.000 C 
ENDROOT
BRANCH   4  22
ATOM     22  O   UNL     1      -9.130   1.304 126.605  0.00  0.00    +0.000 OA
ATOM     23  H   UNL     1      -9.806   0.627 126.463  0.00  0.00    +0.000 HD
ENDBRANCH   4  22
BRANCH   4  24
ATOM     24  C   UNL     1      -7.884   0.727 124.655  0.00  0.00    +0.000 C 
ATOM     25  O   UNL     1      -8.355   1.672 123.997  0.00  0.00    +0.000 OA
BRANCH  24  26
ATOM     26  C   UNL     1      -7.593  -0.589 123.717  0.00  0.00    +0.000 C 
BRANCH  26  27
ATOM     27  O   UNL     1      -8.749  -1.555 123.835  0.00  0.00    +0.000 OA
BRANCH  27  28
ATOM     28  C   UNL     1      -9.030  -2.508 124.768  0.00  0.00    +0.000 C 
ATOM     29  C   UNL     1      -8.344  -3.839 124.687  0.00  0.00    +0.000 C 
ATOM     30  O   UNL     1      -9.838  -2.306 125.677  0.00  0.00    +0.000 OA
ENDBRANCH  27  28
ENDBRANCH  26  27
ENDBRANCH  24  26
ENDBRANCH   4  24
TORSDOF 5
ENDMDL
MODEL 7
REMARK VINA RESULT:      -7.7      1.427      2.228
REMARK  Name = Cortisone acetate
REMARK  8 active torsions:
REMARK  status: ('A' for Active; 'I' for Inactive)
REMARK    1  A    between atoms: C_5  and  O_6
REMARK    2  A    between atoms: C_5  and  C_7
REMARK    3  A    between atoms: C_7  and  C_9
REMARK    4  A    between atoms: C_9  and  O_10
REMARK    5  A    between atoms: O_10  and  C_11
REMARK    6  A    between atoms: C_11  and  C_12
REMARK    7  A    between atoms: C_14  and  C_15
REMARK    8  A    between atoms: C_31  and  C_32
REMARK                            x       y       z     vdW  Elec       q    Type
REMARK                         _______ _______ _______ _____ _____    ______ ____
ROOT
ATOM      1  C   UNL     1      -7.368  -2.775 130.511  0.00  0.00    +0.000 C 
ATOM      2  C   UNL     1      -6.495  -3.887 130.581  0.00  0.00    +0.000 C 
ATOM      3  C   UNL     1      -5.920  -2.638 129.987  0.00  0.00    +0.000 C 
ATOM      4  C   UNL     1      -6.926  -0.821 130.345  0.00  0.00    +0.000 C 
ATOM      5  C   UNL     1      -6.010  -1.556 131.089  0.00  0.00    +0.000 C 
ATOM      6  C   UNL     1      -5.781  -1.644 132.547  0.00  0.00    +0.000 C 
ATOM      7  C   UNL     1      -4.843  -0.832 129.796  0.00  0.00    +0.000 C 
ATOM      8  C   UNL     1      -5.622  -0.707 128.280  0.00  0.00    +0.000 C 
ATOM      9  O   UNL     1      -5.519   0.364 127.680  0.00  0.00    +0.000 OA
ATOM     10  C   UNL     1      -6.587  -1.945 127.686  0.00  0.00    +0.000 C 
ATOM     11  C   UNL     1      -7.841  -2.438 128.786  0.00  0.00    +0.000 C 
ATOM     12  C   UNL     1      -8.523  -3.697 128.295  0.00  0.00    +0.000 C 
ATOM     13  C   UNL     1      -8.988  -3.561 126.871  0.00  0.00    +0.000 C 
ATOM     14  C   UNL     1      -7.965  -3.068 125.889  0.00  0.00    +0.000 C 
ATOM     15  C   UNL     1      -7.892  -3.630 124.675  0.00  0.00    +0.000 C 
ATOM     16  C   UNL     1      -7.142  -2.842 123.699  0.00  0.00    +0.000 C 
ATOM     17  O   UNL     1      -7.536  -1.810 123.162  0.00  0.00    +0.000 OA
ATOM     18  C   UNL     1      -5.723  -3.081 123.802  0.00  0.00    +0.000 C 
ATOM     19  C   UNL     1      -5.696  -1.978 125.111  0.00  0.00    +0.000 C 
ATOM     20  C   UNL     1      -7.082  -1.858 126.211  0.00  0.00    +0.000 C 
ATOM     21  C   UNL     1      -8.020  -0.621 126.246  0.00  0.00    +0.000 C 
ENDROOT
BRANCH   4  22
ATOM     22  O   UNL     1      -8.179  -0.868 131.170  0.00  0.00    +0.000 OA
ATOM     23  H   UNL     1      -8.697  -1.675 131.044  0.00  0.00    +0.000 HD
ENDBRANCH   4  22
BRANCH   4  24
ATOM     24  C   UNL     1      -6.482   0.805 131.069  0.00  0.00    +0.000 C 
ATOM     25  O   UNL     1      -7.276   1.458 131.771  0.00  0.00    +0.000 OA
BRANCH  24  26
ATOM     26  C   UNL     1      -5.105   1.644 130.759  0.00  0.00    +0.000 C 
BRANCH  26  27
ATOM     27  O   UNL     1      -4.641   2.333 132.021  0.00  0.00    +0.000 OA
BRANCH  27  28
ATOM     28  C   UNL     1      -3.597   2.068 132.856  0.00  0.00    +0.000 C 
ATOM     29  C   UNL     1      -2.499   3.079 133.001  0.00  0.00    +0.000 C 
ATOM     30  O   UNL     1      -3.528   1.015 133.494  0.00  0.00    +0.000 OA
ENDBRANCH  27  28
ENDBRANCH  26  27
ENDBRANCH  24  26
ENDBRANCH   4  24
TORSDOF 5
ENDMDL
MODEL 8
REMARK VINA RESULT:      -7.5      2.577      6.337
REMARK  Name = Cortisone acetate
REMARK  8 active torsions:
REMARK  status: ('A' for Active; 'I' for Inactive)
REMARK    1  A    between atoms: C_5  and  O_6
REMARK    2  A    between atoms: C_5  and  C_7
REMARK    3  A    between atoms: C_7  and  C_9
REMARK    4  A    between atoms: C_9  and  O_10
REMARK    5  A    between atoms: O_10  and  C_11
REMARK    6  A    between atoms: C_11  and  C_12
REMARK    7  A    between atoms: C_14  and  C_15
REMARK    8  A    between atoms: C_31  and  C_32
REMARK                            x       y       z     vdW  Elec       q    Type
REMARK                         _______ _______ _______ _____ _____    ______ ____
ROOT
ATOM      1  C   UNL     1      -6.505  -2.771 129.394  0.00  0.00    +0.000 C 
ATOM      2  C   UNL     1      -7.651  -3.512 129.016  0.00  0.00    +0.000 C 
ATOM      3  C   UNL     1      -7.872  -2.436 130.034  0.00  0.00    +0.000 C 
ATOM      4  C   UNL     1      -6.390  -0.952 130.239  0.00  0.00    +0.000 C 
ATOM      5  C   UNL     1      -7.454  -1.110 129.357  0.00  0.00    +0.000 C 
ATOM      6  C   UNL     1      -7.659  -0.627 127.975  0.00  0.00    +0.000 C 
ATOM      7  C   UNL     1      -8.408  -0.586 130.898  0.00  0.00    +0.000 C 
ATOM      8  C   UNL     1      -7.667  -1.204 132.308  0.00  0.00    +0.000 C 
ATOM      9  O   UNL     1      -7.484  -0.419 133.240  0.00  0.00    +0.000 OA
ATOM     10  C   UNL     1      -7.101  -2.782 132.381  0.00  0.00    +0.000 C 
ATOM     11  C   UNL     1      -6.004  -3.189 131.094  0.00  0.00    +0.000 C 
ATOM     12  C   UNL     1      -5.713  -4.674 131.082  0.00  0.00    +0.000 C 
ATOM     13  C   UNL     1      -5.268  -5.165 132.432  0.00  0.00    +0.000 C 
ATOM     14  C   UNL     1      -6.140  -4.782 133.593  0.00  0.00    +0.000 C 
ATOM     15  C   UNL     1      -6.400  -5.685 134.548  0.00  0.00    +0.000 C 
ATOM     16  C   UNL     1      -6.928  -5.108 135.783  0.00  0.00    +0.000 C 
ATOM     17  O   UNL     1      -6.277  -4.470 136.607  0.00  0.00    +0.000 OA
ATOM     18  C   UNL     1      -8.353  -4.903 135.707  0.00  0.00    +0.000 C 
ATOM     19  C   UNL     1      -8.036  -3.455 134.851  0.00  0.00    +0.000 C 
ATOM     20  C   UNL     1      -6.642  -3.344 133.760  0.00  0.00    +0.000 C 
ATOM     21  C   UNL     1      -5.396  -2.474 134.078  0.00  0.00    +0.000 C 
ENDROOT
BRANCH   4  22
ATOM     22  O   UNL     1      -5.177  -1.050 129.360  0.00  0.00    +0.000 OA
ATOM     23  H   UNL     1      -5.150  -1.855 128.825  0.00  0.00    +0.000 HD
ENDBRANCH   4  22
BRANCH   4  24
ATOM     24  C   UNL     1      -6.344   0.880 130.138  0.00  0.00    +0.000 C 
ATOM     25  O   UNL     1      -6.341   1.485 129.050  0.00  0.00    +0.000 OA
BRANCH  24  26
ATOM     26  C   UNL     1      -6.140   1.900 131.408  0.00  0.00    +0.000 C 
BRANCH  26  27
ATOM     27  O   UNL     1      -7.441   2.614 131.693  0.00  0.00    +0.000 OA
BRANCH  27  28
ATOM     28  C   UNL     1      -7.826   3.394 132.742  0.00  0.00    +0.000 C 
ATOM     29  C   UNL     1      -9.151   3.142 133.396  0.00  0.00    +0.000 C 
ATOM     30  O   UNL     1      -7.113   4.306 133.168  0.00  0.00    +0.000 OA
ENDBRANCH  27  28
ENDBRANCH  26  27
ENDBRANCH  24  26
ENDBRANCH   4  24
TORSDOF 5
ENDMDL
MODEL 9
REMARK VINA RESULT:      -7.5      3.209      7.574
REMARK  Name = Cortisone acetate
REMARK  8 active torsions:
REMARK  status: ('A' for Active; 'I' for Inactive)
REMARK    1  A    between atoms: C_5  and  O_6
REMARK    2  A    between atoms: C_5  and  C_7
REMARK    3  A    between atoms: C_7  and  C_9
REMARK    4  A    between atoms: C_9  and  O_10
REMARK    5  A    between atoms: O_10  and  C_11
REMARK    6  A    between atoms: C_11  and  C_12
REMARK    7  A    between atoms: C_14  and  C_15
REMARK    8  A    between atoms: C_31  and  C_32
REMARK                            x       y       z     vdW  Elec       q    Type
REMARK                         _______ _______ _______ _____ _____    ______ ____
ROOT
ATOM      1  C   UNL     1      -6.298   3.729 133.370  0.00  0.00    +0.000 C 
ATOM      2  C   UNL     1      -7.066   4.020 134.523  0.00  0.00    +0.000 C 
ATOM      3  C   UNL     1      -7.705   3.107 133.522  0.00  0.00    +0.000 C 
ATOM      4  C   UNL     1      -6.463   2.189 132.089  0.00  0.00    +0.000 C 
ATOM      5  C   UNL     1      -6.776   1.876 133.407  0.00  0.00    +0.000 C 
ATOM      6  C   UNL     1      -6.021   1.138 134.442  0.00  0.00    +0.000 C 
ATOM      7  C   UNL     1      -8.384   1.346 132.577  0.00  0.00    +0.000 C 
ATOM      8  C   UNL     1      -8.757   2.376 131.266  0.00  0.00    +0.000 C 
ATOM      9  O   UNL     1      -9.071   1.844 130.201  0.00  0.00    +0.000 OA
ATOM     10  C   UNL     1      -8.588   4.042 131.386  0.00  0.00    +0.000 C 
ATOM     11  C   UNL     1      -7.006   4.546 131.905  0.00  0.00    +0.000 C 
ATOM     12  C   UNL     1      -6.987   6.028 132.212  0.00  0.00    +0.000 C 
ATOM     13  C   UNL     1      -7.536   6.841 131.072  0.00  0.00    +0.000 C 
ATOM     14  C   UNL     1      -8.868   6.406 130.534  0.00  0.00    +0.000 C 
ATOM     15  C   UNL     1      -9.784   7.331 130.215  0.00  0.00    +0.000 C 
ATOM     16  C   UNL     1     -10.866   6.829 129.371  0.00  0.00    +0.000 C 
ATOM     17  O   UNL     1     -10.771   6.557 128.176  0.00  0.00    +0.000 OA
ATOM     18  C   UNL     1     -11.900   6.196 130.152  0.00  0.00    +0.000 C 
ATOM     19  C   UNL     1     -10.922   4.791 130.194  0.00  0.00    +0.000 C 
ATOM     20  C   UNL     1      -9.154   4.930 130.237  0.00  0.00    +0.000 C 
ATOM     21  C   UNL     1      -8.253   4.537 129.036  0.00  0.00    +0.000 C 
ENDROOT
BRANCH   4  22
ATOM     22  O   UNL     1      -4.996   2.504 132.132  0.00  0.00    +0.000 OA
ATOM     23  H   UNL     1      -4.624   2.739 131.271  0.00  0.00    +0.000 HD
ENDBRANCH   4  22
BRANCH   4  24
ATOM     24  C   UNL     1      -6.101   0.465 131.576  0.00  0.00    +0.000 C 
ATOM     25  O   UNL     1      -5.392  -0.296 132.259  0.00  0.00    +0.000 OA
BRANCH  24  26
ATOM     26  C   UNL     1      -6.511  -0.207 130.135  0.00  0.00    +0.000 C 
BRANCH  26  27
ATOM     27  O   UNL     1      -7.630  -1.201 130.343  0.00  0.00    +0.000 OA
BRANCH  27  28
ATOM     28  C   UNL     1      -7.639  -2.563 130.307  0.00  0.00    +0.000 C 
ATOM     29  C   UNL     1      -8.195  -3.261 129.102  0.00  0.00    +0.000 C 
ATOM     30  O   UNL     1      -7.204  -3.239 131.242  0.00  0.00    +0.000 OA
ENDBRANCH  27  28
ENDBRANCH  26  27
ENDBRANCH  24  26
ENDBRANCH   4  24
TORSDOF 5
ENDMDL
