MODEL 1
REMARK VINA RESULT:      -4.7      0.000      0.000
REMARK  Name = Creatine
REMARK  4 active torsions:
REMARK  status: ('A' for Active; 'I' for Inactive)
REMARK    1  A    between atoms: C_1  and  N_2
REMARK    2  A    between atoms: N_2  and  C_3
REMARK    3  A    between atoms: C_3  and  C_4
REMARK    4  A    between atoms: C_4  and  O_5
REMARK                            x       y       z     vdW  Elec       q    Type
REMARK                         _______ _______ _______ _____ _____    ______ ____
ROOT
ATOM      1  C   UNL     1     -10.940   7.157 129.960  0.00  0.00    +0.000 C 
ATOM      2  N   UNL     1     -11.413   8.155 129.044  0.00  0.00    +0.000 N 
ATOM      3  C   UNL     1     -12.464   8.963 129.440  0.00  0.00    +0.000 C 
ATOM      4  N   UNL     1     -12.963   8.738 130.674  0.00  0.00    +0.000 N 
ATOM      5  N   UNL     1     -13.034   9.910 128.780  0.00  0.00    +0.000 NA
ATOM      6  H   UNL     1     -12.630   8.039 131.313  0.00  0.00    +0.000 HD
ATOM      7  H   UNL     1     -13.731   9.318 130.984  0.00  0.00    +0.000 HD
ATOM      8  H   UNL     1     -12.614  10.028 127.863  0.00  0.00    +0.000 HD
ENDROOT
BRANCH   2   9
ATOM      9  C   UNL     1     -10.779   8.308 127.705  0.00  0.00    +0.000 C 
BRANCH   9  10
ATOM     10  C   UNL     1     -11.182   7.598 126.390  0.00  0.00    +0.000 C 
ATOM     11  O   UNL     1     -10.781   8.076 125.332  0.00  0.00    +0.000 OA
BRANCH  10  12
ATOM     12  O   UNL     1     -11.934   6.496 126.265  0.00  0.00    +0.000 OA
ATOM     13  H   UNL     1     -12.066   5.868 125.547  0.00  0.00    +0.000 HD
ENDBRANCH  10  12
ENDBRANCH   9  10
ENDBRANCH   2   9
TORSDOF 3
ENDMDL
MODEL 2
REMARK VINA RESULT:      -4.6      1.487      2.370
REMARK  Name = Creatine
REMARK  4 active torsions:
REMARK  status: ('A' for Active; 'I' for Inactive)
REMARK    1  A    between atoms: C_1  and  N_2
REMARK    2  A    between atoms: N_2  and  C_3
REMARK    3  A    between atoms: C_3  and  C_4
REMARK    4  A    between atoms: C_4  and  O_5
REMARK                            x       y       z     vdW  Elec       q    Type
REMARK                         _______ _______ _______ _____ _____    ______ ____
ROOT
ATOM      1  C   UNL     1     -12.745   9.082 129.371  0.00  0.00    +0.000 C 
ATOM      2  N   UNL     1     -12.399   7.806 128.812  0.00  0.00    +0.000 N 
ATOM      3  C   UNL     1     -12.187   6.747 129.676  0.00  0.00    +0.000 C 
ATOM      4  N   UNL     1     -12.325   7.010 130.994  0.00  0.00    +0.000 N 
ATOM      5  N   UNL     1     -11.871   5.532 129.387  0.00  0.00    +0.000 NA
ATOM      6  H   UNL     1     -12.567   7.903 131.382  0.00  0.00    +0.000 HD
ATOM      7  H   UNL     1     -12.174   6.250 131.643  0.00  0.00    +0.000 HD
ATOM      8  H   UNL     1     -11.783   5.401 128.385  0.00  0.00    +0.000 HD
ENDROOT
BRANCH   2   9
ATOM      9  C   UNL     1     -12.277   7.639 127.336  0.00  0.00    +0.000 C 
BRANCH   9  10
ATOM     10  C   UNL     1     -10.973   7.493 126.515  0.00  0.00    +0.000 C 
ATOM     11  O   UNL     1     -10.089   6.768 126.963  0.00  0.00    +0.000 OA
BRANCH  10  12
ATOM     12  O   UNL     1     -10.687   8.076 125.344  0.00  0.00    +0.000 OA
ATOM     13  H   UNL     1     -10.355   7.740 124.504  0.00  0.00    +0.000 HD
ENDBRANCH  10  12
ENDBRANCH   9  10
ENDBRANCH   2   9
TORSDOF 3
ENDMDL
MODEL 3
REMARK VINA RESULT:      -4.5      1.853      2.293
REMARK  Name = Creatine
REMARK  4 active torsions:
REMARK  status: ('A' for Active; 'I' for Inactive)
REMARK    1  A    between atoms: C_1  and  N_2
REMARK    2  A    between atoms: N_2  and  C_3
REMARK    3  A    between atoms: C_3  and  C_4
REMARK    4  A    between atoms: C_4  and  O_5
REMARK                            x       y       z     vdW  Elec       q    Type
REMARK                         _______ _______ _______ _____ _____    ______ ____
ROOT
ATOM      1  C   UNL     1     -10.224   5.967 129.700  0.00  0.00    +0.000 C 
ATOM      2  N   UNL     1     -11.471   6.656 129.871  0.00  0.00    +0.000 N 
ATOM      3  C   UNL     1     -12.042   6.677 131.131  0.00  0.00    +0.000 C 
ATOM      4  N   UNL     1     -11.366   6.035 132.108  0.00  0.00    +0.000 N 
ATOM      5  N   UNL     1     -13.144   7.232 131.498  0.00  0.00    +0.000 NA
ATOM      6  H   UNL     1     -10.494   5.553 131.986  0.00  0.00    +0.000 HD
ATOM      7  H   UNL     1     -11.766   6.038 133.036  0.00  0.00    +0.000 HD
ATOM      8  H   UNL     1     -13.602   7.696 130.720  0.00  0.00    +0.000 HD
ENDROOT
BRANCH   2   9
ATOM      9  C   UNL     1     -12.123   7.329 128.713  0.00  0.00    +0.000 C 
BRANCH   9  10
ATOM     10  C   UNL     1     -11.581   7.442 127.268  0.00  0.00    +0.000 C 
ATOM     11  O   UNL     1     -10.836   8.382 127.004  0.00  0.00    +0.000 OA
BRANCH  10  12
ATOM     12  O   UNL     1     -11.832   6.615 126.244  0.00  0.00    +0.000 OA
ATOM     13  H   UNL     1     -12.538   5.983 126.067  0.00  0.00    +0.000 HD
ENDBRANCH  10  12
ENDBRANCH   9  10
ENDBRANCH   2   9
TORSDOF 3
ENDMDL
MODEL 4
REMARK VINA RESULT:      -4.3      3.398      4.450
REMARK  Name = Creatine
REMARK  4 active torsions:
REMARK  status: ('A' for Active; 'I' for Inactive)
REMARK    1  A    between atoms: C_1  and  N_2
REMARK    2  A    between atoms: N_2  and  C_3
REMARK    3  A    between atoms: C_3  and  C_4
REMARK    4  A    between atoms: C_4  and  O_5
REMARK                            x       y       z     vdW  Elec       q    Type
REMARK                         _______ _______ _______ _____ _____    ______ ____
ROOT
ATOM      1  C   UNL     1     -13.147   7.990 128.209  0.00  0.00    +0.000 C 
ATOM      2  N   UNL     1     -12.065   7.116 128.562  0.00  0.00    +0.000 N 
ATOM      3  C   UNL     1     -10.904   7.173 127.812  0.00  0.00    +0.000 C 
ATOM      4  N   UNL     1     -10.890   8.059 126.794  0.00  0.00    +0.000 N 
ATOM      5  N   UNL     1      -9.826   6.484 127.958  0.00  0.00    +0.000 NA
ATOM      6  H   UNL     1     -11.648   8.669 126.548  0.00  0.00    +0.000 HD
ATOM      7  H   UNL     1     -10.051   8.116 126.232  0.00  0.00    +0.000 HD
ATOM      8  H   UNL     1      -9.902   5.839 128.738  0.00  0.00    +0.000 HD
ENDROOT
BRANCH   2   9
ATOM      9  C   UNL     1     -12.200   6.178 129.712  0.00  0.00    +0.000 C 
BRANCH   9  10
ATOM     10  C   UNL     1     -12.233   6.539 131.217  0.00  0.00    +0.000 C 
ATOM     11  O   UNL     1     -13.137   7.268 131.614  0.00  0.00    +0.000 OA
BRANCH  10  12
ATOM     12  O   UNL     1     -11.370   6.140 132.161  0.00  0.00    +0.000 OA
ATOM     13  H   UNL     1     -10.688   5.460 132.185  0.00  0.00    +0.000 HD
ENDBRANCH  10  12
ENDBRANCH   9  10
ENDBRANCH   2   9
TORSDOF 3
ENDMDL
MODEL 5
REMARK VINA RESULT:      -4.3      2.985      3.756
REMARK  Name = Creatine
REMARK  4 active torsions:
REMARK  status: ('A' for Active; 'I' for Inactive)
REMARK    1  A    between atoms: C_1  and  N_2
REMARK    2  A    between atoms: N_2  and  C_3
REMARK    3  A    between atoms: C_3  and  C_4
REMARK    4  A    between atoms: C_4  and  O_5
REMARK                            x       y       z     vdW  Elec       q    Type
REMARK                         _______ _______ _______ _____ _____    ______ ____
ROOT
ATOM      1  C   UNL     1      -8.369   6.648 131.149  0.00  0.00    +0.000 C 
ATOM      2  N   UNL     1      -9.779   6.560 130.894  0.00  0.00    +0.000 N 
ATOM      3  C   UNL     1     -10.614   6.207 131.939  0.00  0.00    +0.000 C 
ATOM      4  N   UNL     1     -10.020   5.970 133.129  0.00  0.00    +0.000 N 
ATOM      5  N   UNL     1     -11.894   6.072 131.926  0.00  0.00    +0.000 NA
ATOM      6  H   UNL     1      -9.034   6.032 133.304  0.00  0.00    +0.000 HD
ATOM      7  H   UNL     1     -10.612   5.710 133.906  0.00  0.00    +0.000 HD
ATOM      8  H   UNL     1     -12.277   6.263 131.006  0.00  0.00    +0.000 HD
ENDROOT
BRANCH   2   9
ATOM      9  C   UNL     1     -10.317   6.846 129.534  0.00  0.00    +0.000 C 
BRANCH   9  10
ATOM     10  C   UNL     1     -11.082   8.112 129.076  0.00  0.00    +0.000 C 
ATOM     11  O   UNL     1     -12.066   8.455 129.726  0.00  0.00    +0.000 OA
BRANCH  10  12
ATOM     12  O   UNL     1     -10.791   8.897 128.031  0.00  0.00    +0.000 OA
ATOM     13  H   UNL     1     -10.039   9.462 127.821  0.00  0.00    +0.000 HD
ENDBRANCH  10  12
ENDBRANCH   9  10
ENDBRANCH   2   9
TORSDOF 3
ENDMDL
MODEL 6
REMARK VINA RESULT:      -4.3      2.455      3.476
REMARK  Name = Creatine
REMARK  4 active torsions:
REMARK  status: ('A' for Active; 'I' for Inactive)
REMARK    1  A    between atoms: C_1  and  N_2
REMARK    2  A    between atoms: N_2  and  C_3
REMARK    3  A    between atoms: C_3  and  C_4
REMARK    4  A    between atoms: C_4  and  O_5
REMARK                            x       y       z     vdW  Elec       q    Type
REMARK                         _______ _______ _______ _____ _____    ______ ____
ROOT
ATOM      1  C   UNL     1     -10.894   8.344 127.723  0.00  0.00    +0.000 C 
ATOM      2  N   UNL     1     -11.361   8.078 129.054  0.00  0.00    +0.000 N 
ATOM      3  C   UNL     1     -12.419   8.825 129.539  0.00  0.00    +0.000 C 
ATOM      4  N   UNL     1     -12.929   9.757 128.706  0.00  0.00    +0.000 N 
ATOM      5  N   UNL     1     -12.986   8.748 130.693  0.00  0.00    +0.000 NA
ATOM      6  H   UNL     1     -12.600   9.942 127.776  0.00  0.00    +0.000 HD
ATOM      7  H   UNL     1     -13.703  10.314 129.042  0.00  0.00    +0.000 HD
ATOM      8  H   UNL     1     -12.557   8.031 131.269  0.00  0.00    +0.000 HD
ENDROOT
BRANCH   2   9
ATOM      9  C   UNL     1     -10.715   7.019 129.880  0.00  0.00    +0.000 C 
BRANCH   9  10
ATOM     10  C   UNL     1     -11.411   5.849 130.615  0.00  0.00    +0.000 C 
ATOM     11  O   UNL     1     -11.421   4.750 130.067  0.00  0.00    +0.000 OA
BRANCH  10  12
ATOM     12  O   UNL     1     -12.018   5.892 131.808  0.00  0.00    +0.000 OA
ATOM     13  H   UNL     1     -12.932   6.040 132.077  0.00  0.00    +0.000 HD
ENDBRANCH  10  12
ENDBRANCH   9  10
ENDBRANCH   2   9
TORSDOF 3
ENDMDL
MODEL 7
REMARK VINA RESULT:      -4.2      8.826      9.731
REMARK  Name = Creatine
REMARK  4 active torsions:
REMARK  status: ('A' for Active; 'I' for Inactive)
REMARK    1  A    between atoms: C_1  and  N_2
REMARK    2  A    between atoms: N_2  and  C_3
REMARK    3  A    between atoms: C_3  and  C_4
REMARK    4  A    between atoms: C_4  and  O_5
REMARK                            x       y       z     vdW  Elec       q    Type
REMARK                         _______ _______ _______ _____ _____    ______ ____
ROOT
ATOM      1  C   UNL     1      -8.030   3.514 121.112  0.00  0.00    +0.000 C 
ATOM      2  N   UNL     1      -6.730   3.770 121.664  0.00  0.00    +0.000 N 
ATOM      3  C   UNL     1      -6.593   3.779 123.041  0.00  0.00    +0.000 C 
ATOM      4  N   UNL     1      -7.712   3.544 123.758  0.00  0.00    +0.000 N 
ATOM      5  N   UNL     1      -5.527   3.985 123.735  0.00  0.00    +0.000 NA
ATOM      6  H   UNL     1      -8.620   3.366 123.369  0.00  0.00    +0.000 HD
ATOM      7  H   UNL     1      -7.634   3.547 124.766  0.00  0.00    +0.000 HD
ATOM      8  H   UNL     1      -4.724   4.154 123.138  0.00  0.00    +0.000 HD
ENDROOT
BRANCH   2   9
ATOM      9  C   UNL     1      -5.566   4.015 120.767  0.00  0.00    +0.000 C 
BRANCH   9  10
ATOM     10  C   UNL     1      -5.070   5.378 120.227  0.00  0.00    +0.000 C 
ATOM     11  O   UNL     1      -5.455   5.730 119.115  0.00  0.00    +0.000 OA
BRANCH  10  12
ATOM     12  O   UNL     1      -4.251   6.241 120.842  0.00  0.00    +0.000 OA
ATOM     13  H   UNL     1      -4.256   6.643 121.718  0.00  0.00    +0.000 HD
ENDBRANCH  10  12
ENDBRANCH   9  10
ENDBRANCH   2   9
TORSDOF 3
ENDMDL
MODEL 8
REMARK VINA RESULT:      -4.0      3.482      4.253
REMARK  Name = Creatine
REMARK  4 active torsions:
REMARK  status: ('A' for Active; 'I' for Inactive)
REMARK    1  A    between atoms: C_1  and  N_2
REMARK    2  A    between atoms: N_2  and  C_3
REMARK    3  A    between atoms: C_3  and  C_4
REMARK    4  A    between atoms: C_4  and  O_5
REMARK                            x       y       z     vdW  Elec       q    Type
REMARK                         _______ _______ _______ _____ _____    ______ ____
ROOT
ATOM      1  C   UNL     1     -10.376   8.600 128.470  0.00  0.00    +0.000 C 
ATOM      2  N   UNL     1     -10.942   7.429 129.076  0.00  0.00    +0.000 N 
ATOM      3  C   UNL     1     -12.133   6.939 128.571  0.00  0.00    +0.000 C 
ATOM      4  N   UNL     1     -12.670   7.617 127.535  0.00  0.00    +0.000 N 
ATOM      5  N   UNL     1     -12.803   5.912 128.964  0.00  0.00    +0.000 NA
ATOM      6  H   UNL     1     -12.273   8.436 127.112  0.00  0.00    +0.000 HD
ATOM      7  H   UNL     1     -13.541   7.275 127.150  0.00  0.00    +0.000 HD
ATOM      8  H   UNL     1     -12.346   5.448 129.744  0.00  0.00    +0.000 HD
ENDROOT
BRANCH   2   9
ATOM      9  C   UNL     1     -10.252   6.767 130.219  0.00  0.00    +0.000 C 
BRANCH   9  10
ATOM     10  C   UNL     1     -10.843   6.452 131.614  0.00  0.00    +0.000 C 
ATOM     11  O   UNL     1     -10.088   6.496 132.582  0.00  0.00    +0.000 OA
BRANCH  10  12
ATOM     12  O   UNL     1     -12.111   6.129 131.901  0.00  0.00    +0.000 OA
ATOM     13  H   UNL     1     -12.713   5.458 131.559  0.00  0.00    +0.000 HD
ENDBRANCH  10  12
ENDBRANCH   9  10
ENDBRANCH   2   9
TORSDOF 3
ENDMDL
MODEL 9
REMARK VINA RESULT:      -4.0      9.634     10.626
REMARK  Name = Creatine
REMARK  4 active torsions:
REMARK  status: ('A' for Active; 'I' for Inactive)
REMARK    1  A    between atoms: C_1  and  N_2
REMARK    2  A    between atoms: N_2  and  C_3
REMARK    3  A    between atoms: C_3  and  C_4
REMARK    4  A    between atoms: C_4  and  O_5
REMARK                            x       y       z     vdW  Elec       q    Type
REMARK                         _______ _______ _______ _____ _____    ______ ____
ROOT
ATOM      1  C   UNL     1      -7.839   0.729 124.802  0.00  0.00    +0.000 C 
ATOM      2  N   UNL     1      -8.620   0.043 123.812  0.00  0.00    +0.000 N 
ATOM      3  C   UNL     1      -9.785   0.642 123.366  0.00  0.00    +0.000 C 
ATOM      4  N   UNL     1     -10.091   1.839 123.909  0.00  0.00    +0.000 N 
ATOM      5  N   UNL     1     -10.623   0.203 122.492  0.00  0.00    +0.000 NA
ATOM      6  H   UNL     1      -9.543   2.317 124.601  0.00  0.00    +0.000 HD
ATOM      7  H   UNL     1     -10.938   2.294 123.597  0.00  0.00    +0.000 HD
ATOM      8  H   UNL     1     -10.335  -0.698 122.123  0.00  0.00    +0.000 HD
ENDROOT
BRANCH   2   9
ATOM      9  C   UNL     1      -8.177  -1.278 123.286  0.00  0.00    +0.000 C 
BRANCH   9  10
ATOM     10  C   UNL     1      -8.824  -2.659 123.553  0.00  0.00    +0.000 C 
ATOM     11  O   UNL     1      -8.109  -3.554 123.996  0.00  0.00    +0.000 OA
BRANCH  10  12
ATOM     12  O   UNL     1     -10.104  -3.002 123.354  0.00  0.00    +0.000 OA
ATOM     13  H   UNL     1     -10.932  -2.714 123.752  0.00  0.00    +0.000 HD
ENDBRANCH  10  12
ENDBRANCH   9  10
ENDBRANCH   2   9
TORSDOF 3
ENDMDL
