MODEL 1
REMARK VINA RESULT:      -8.9      0.000      0.000
REMARK  Name = Crizotinib
REMARK  6 active torsions:
REMARK  status: ('A' for Active; 'I' for Inactive)
REMARK    1  A    between atoms: C_1  and  C_2
REMARK    2  A    between atoms: C_2  and  O_3
REMARK    3  A    between atoms: C_2  and  C_22
REMARK    4  A    between atoms: O_3  and  C_4
REMARK    5  A    between atoms: C_6  and  C_11
REMARK    6  A    between atoms: N_13  and  C_16
REMARK                            x       y       z     vdW  Elec       q    Type
REMARK                         _______ _______ _______ _____ _____    ______ ____
ROOT
ATOM      1  C   UNL     1      -6.624   5.188 132.189  0.00  0.00    +0.000 A 
ATOM      2  C   UNL     1      -7.625   5.903 131.531  0.00  0.00    +0.000 A 
ATOM      3  C   UNL     1      -8.962   5.662 131.873  0.00  0.00    +0.000 A 
ATOM      4  C   UNL     1      -9.232   4.639 132.769  0.00  0.00    +0.000 A 
ATOM      5  N   UNL     1      -8.287   3.982 133.456  0.00  0.00    +0.000 NA
ATOM      6  C   UNL     1      -7.017   4.364 133.250  0.00  0.00    +0.000 A 
ATOM      7  N   UNL     1      -6.193   4.045 134.301  0.00  0.00    +0.000 N 
ATOM      8  H   UNL     1      -6.482   3.212 134.792  0.00  0.00    +0.000 HD
ATOM      9  H   UNL     1      -5.232   4.329 134.292  0.00  0.00    +0.000 HD
ENDROOT
BRANCH   3  10
ATOM     10  C   UNL     1     -10.061   6.405 131.328  0.00  0.00    +0.000 A 
ATOM     11  C   UNL     1      -9.947   7.179 130.204  0.00  0.00    +0.000 A 
ATOM     12  N   UNL     1     -11.196   7.635 129.901  0.00  0.00    +0.000 N 
ATOM     13  N   UNL     1     -12.129   7.204 130.779  0.00  0.00    +0.000 NA
ATOM     14  C   UNL     1     -11.432   6.453 131.639  0.00  0.00    +0.000 A 
BRANCH  12  15
ATOM     15  C   UNL     1     -11.598   8.485 128.779  0.00  0.00    +0.000 C 
ATOM     16  C   UNL     1     -13.035   8.213 128.313  0.00  0.00    +0.000 C 
ATOM     17  C   UNL     1     -13.144   6.892 127.559  0.00  0.00    +0.000 C 
ATOM     18  N   UNL     1     -12.179   6.802 126.460  0.00  0.00    +0.000 NA
ATOM     19  C   UNL     1     -10.790   7.052 126.856  0.00  0.00    +0.000 C 
ATOM     20  C   UNL     1     -10.629   8.376 127.596  0.00  0.00    +0.000 C 
ATOM     21  H   UNL     1     -12.437   7.487 125.749  0.00  0.00    +0.000 HD
ENDBRANCH  12  15
ENDBRANCH   3  10
BRANCH   1  22
ATOM     22  O   UNL     1      -5.317   5.453 131.872  0.00  0.00    +0.000 OA
BRANCH  22  24
ATOM     23  C   UNL     1      -3.231   4.227 132.403  0.00  0.00    +0.000 C 
ATOM     24  C   UNL     1      -4.458   4.349 131.488  0.00  0.00    +0.000 C 
BRANCH  24  25
ATOM     25  C   UNL     1      -3.877   4.532 130.071  0.00  0.00    +0.000 A 
ATOM     26  C   UNL     1      -3.843   3.406 129.195  0.00  0.00    +0.000 A 
ATOM     27 CL   UNL     1      -4.650   1.905 129.543  0.00  0.00    +0.000 Cl
ATOM     28  C   UNL     1      -3.133   3.428 127.989  0.00  0.00    +0.000 A 
ATOM     29  C   UNL     1      -2.497   4.590 127.579  0.00  0.00    +0.000 A 
ATOM     30  C   UNL     1      -2.570   5.719 128.378  0.00  0.00    +0.000 A 
ATOM     31  F   UNL     1      -1.957   6.833 127.945  0.00  0.00    +0.000 F 
ATOM     32  C   UNL     1      -3.232   5.707 129.616  0.00  0.00    +0.000 A 
ATOM     33 CL   UNL     1      -3.150   7.197 130.497  0.00  0.00    +0.000 Cl
ENDBRANCH  24  25
ENDBRANCH  22  24
ENDBRANCH   1  22
TORSDOF 5
ENDMDL
MODEL 2
REMARK VINA RESULT:      -8.8      6.060      8.517
REMARK  Name = Crizotinib
REMARK  6 active torsions:
REMARK  status: ('A' for Active; 'I' for Inactive)
REMARK    1  A    between atoms: C_1  and  C_2
REMARK    2  A    between atoms: C_2  and  O_3
REMARK    3  A    between atoms: C_2  and  C_22
REMARK    4  A    between atoms: O_3  and  C_4
REMARK    5  A    between atoms: C_6  and  C_11
REMARK    6  A    between atoms: N_13  and  C_16
REMARK                            x       y       z     vdW  Elec       q    Type
REMARK                         _______ _______ _______ _____ _____    ______ ____
ROOT
ATOM      1  C   UNL     1      -9.475   3.132 130.075  0.00  0.00    +0.000 A 
ATOM      2  C   UNL     1      -8.985   2.579 128.892  0.00  0.00    +0.000 A 
ATOM      3  C   UNL     1      -8.187   1.430 128.963  0.00  0.00    +0.000 A 
ATOM      4  C   UNL     1      -7.826   0.963 130.217  0.00  0.00    +0.000 A 
ATOM      5  N   UNL     1      -8.332   1.440 131.363  0.00  0.00    +0.000 NA
ATOM      6  C   UNL     1      -9.243   2.421 131.259  0.00  0.00    +0.000 A 
ATOM      7  N   UNL     1     -10.063   2.498 132.356  0.00  0.00    +0.000 N 
ATOM      8  H   UNL     1      -9.611   2.208 133.211  0.00  0.00    +0.000 HD
ATOM      9  H   UNL     1     -10.822   3.152 132.374  0.00  0.00    +0.000 HD
ENDROOT
BRANCH   3  10
ATOM     10  C   UNL     1      -7.711   0.728 127.807  0.00  0.00    +0.000 A 
ATOM     11  C   UNL     1      -7.750  -0.637 127.702  0.00  0.00    +0.000 A 
ATOM     12  N   UNL     1      -7.339  -0.955 126.440  0.00  0.00    +0.000 N 
ATOM     13  N   UNL     1      -7.024   0.137 125.711  0.00  0.00    +0.000 NA
ATOM     14  C   UNL     1      -7.257   1.155 126.546  0.00  0.00    +0.000 A 
BRANCH  12  15
ATOM     15  C   UNL     1      -7.226  -2.285 125.837  0.00  0.00    +0.000 C 
ATOM     16  C   UNL     1      -7.353  -2.255 124.308  0.00  0.00    +0.000 C 
ATOM     17  C   UNL     1      -8.791  -2.002 123.865  0.00  0.00    +0.000 C 
ATOM     18  N   UNL     1      -9.733  -2.940 124.482  0.00  0.00    +0.000 NA
ATOM     19  C   UNL     1      -9.651  -3.001 125.944  0.00  0.00    +0.000 C 
ATOM     20  C   UNL     1      -8.232  -3.277 126.433  0.00  0.00    +0.000 C 
ATOM     21  H   UNL     1      -9.547  -3.872 124.111  0.00  0.00    +0.000 HD
ENDBRANCH  12  15
ENDBRANCH   3  10
BRANCH   1  22
ATOM     22  O   UNL     1     -10.282   4.236 129.995  0.00  0.00    +0.000 OA
BRANCH  22  24
ATOM     23  C   UNL     1      -8.678   6.064 130.470  0.00  0.00    +0.000 C 
ATOM     24  C   UNL     1      -9.714   5.477 129.501  0.00  0.00    +0.000 C 
BRANCH  24  25
ATOM     25  C   UNL     1     -10.779   6.582 129.345  0.00  0.00    +0.000 A 
ATOM     26  C   UNL     1     -10.889   7.253 128.091  0.00  0.00    +0.000 A 
ATOM     27 CL   UNL     1     -10.065   6.725 126.653  0.00  0.00    +0.000 Cl
ATOM     28  C   UNL     1     -11.664   8.409 127.936  0.00  0.00    +0.000 A 
ATOM     29  C   UNL     1     -12.411   8.890 129.000  0.00  0.00    +0.000 A 
ATOM     30  C   UNL     1     -12.376   8.219 130.211  0.00  0.00    +0.000 A 
ATOM     31  F   UNL     1     -13.123   8.702 131.216  0.00  0.00    +0.000 F 
ATOM     32  C   UNL     1     -11.567   7.088 130.406  0.00  0.00    +0.000 A 
ATOM     33 CL   UNL     1     -11.608   6.435 132.010  0.00  0.00    +0.000 Cl
ENDBRANCH  24  25
ENDBRANCH  22  24
ENDBRANCH   1  22
TORSDOF 5
ENDMDL
MODEL 3
REMARK VINA RESULT:      -8.7      6.678      9.562
REMARK  Name = Crizotinib
REMARK  6 active torsions:
REMARK  status: ('A' for Active; 'I' for Inactive)
REMARK    1  A    between atoms: C_1  and  C_2
REMARK    2  A    between atoms: C_2  and  O_3
REMARK    3  A    between atoms: C_2  and  C_22
REMARK    4  A    between atoms: O_3  and  C_4
REMARK    5  A    between atoms: C_6  and  C_11
REMARK    6  A    between atoms: N_13  and  C_16
REMARK                            x       y       z     vdW  Elec       q    Type
REMARK                         _______ _______ _______ _____ _____    ______ ____
ROOT
ATOM      1  C   UNL     1      -7.710   0.449 123.329  0.00  0.00    +0.000 A 
ATOM      2  C   UNL     1      -6.837   1.250 124.066  0.00  0.00    +0.000 A 
ATOM      3  C   UNL     1      -7.189   2.582 124.316  0.00  0.00    +0.000 A 
ATOM      4  C   UNL     1      -8.339   3.076 123.718  0.00  0.00    +0.000 A 
ATOM      5  N   UNL     1      -9.221   2.312 123.058  0.00  0.00    +0.000 NA
ATOM      6  C   UNL     1      -8.954   0.998 122.995  0.00  0.00    +0.000 A 
ATOM      7  N   UNL     1     -10.079   0.240 122.785  0.00  0.00    +0.000 N 
ATOM      8  H   UNL     1     -10.786   0.720 122.248  0.00  0.00    +0.000 HD
ATOM      9  H   UNL     1     -10.019  -0.760 122.777  0.00  0.00    +0.000 HD
ENDROOT
BRANCH   3  10
ATOM     10  C   UNL     1      -6.413   3.463 125.138  0.00  0.00    +0.000 A 
ATOM     11  C   UNL     1      -5.198   3.108 125.661  0.00  0.00    +0.000 A 
ATOM     12  N   UNL     1      -4.688   4.212 126.279  0.00  0.00    +0.000 N 
ATOM     13  N   UNL     1      -5.515   5.277 126.195  0.00  0.00    +0.000 NA
ATOM     14  C   UNL     1      -6.558   4.815 125.496  0.00  0.00    +0.000 A 
BRANCH  12  15
ATOM     15  C   UNL     1      -3.404   4.346 126.972  0.00  0.00    +0.000 C 
ATOM     16  C   UNL     1      -2.957   3.043 127.648  0.00  0.00    +0.000 C 
ATOM     17  C   UNL     1      -3.782   2.742 128.896  0.00  0.00    +0.000 C 
ATOM     18  N   UNL     1      -3.804   3.872 129.829  0.00  0.00    +0.000 NA
ATOM     19  C   UNL     1      -4.228   5.141 129.229  0.00  0.00    +0.000 C 
ATOM     20  C   UNL     1      -3.414   5.494 127.988  0.00  0.00    +0.000 C 
ATOM     21  H   UNL     1      -2.864   3.995 130.207  0.00  0.00    +0.000 HD
ENDBRANCH  12  15
ENDBRANCH   3  10
BRANCH   1  22
ATOM     22  O   UNL     1      -7.373  -0.862 123.117  0.00  0.00    +0.000 OA
BRANCH  22  24
ATOM     23  C   UNL     1      -5.626  -2.602 123.357  0.00  0.00    +0.000 C 
ATOM     24  C   UNL     1      -6.451  -1.499 124.038  0.00  0.00    +0.000 C 
BRANCH  24  25
ATOM     25  C   UNL     1      -7.183  -2.212 125.194  0.00  0.00    +0.000 A 
ATOM     26  C   UNL     1      -8.420  -2.867 124.919  0.00  0.00    +0.000 A 
ATOM     27 CL   UNL     1      -9.022  -3.126 123.308  0.00  0.00    +0.000 Cl
ATOM     28  C   UNL     1      -9.252  -3.336 125.943  0.00  0.00    +0.000 A 
ATOM     29  C   UNL     1      -8.849  -3.236 127.265  0.00  0.00    +0.000 A 
ATOM     30  C   UNL     1      -7.621  -2.664 127.557  0.00  0.00    +0.000 A 
ATOM     31  F   UNL     1      -7.253  -2.597 128.846  0.00  0.00    +0.000 F 
ATOM     32  C   UNL     1      -6.792  -2.140 126.552  0.00  0.00    +0.000 A 
ATOM     33 CL   UNL     1      -5.333  -1.405 127.127  0.00  0.00    +0.000 Cl
ENDBRANCH  24  25
ENDBRANCH  22  24
ENDBRANCH   1  22
TORSDOF 5
ENDMDL
MODEL 4
REMARK VINA RESULT:      -8.7      6.634      9.597
REMARK  Name = Crizotinib
REMARK  6 active torsions:
REMARK  status: ('A' for Active; 'I' for Inactive)
REMARK    1  A    between atoms: C_1  and  C_2
REMARK    2  A    between atoms: C_2  and  O_3
REMARK    3  A    between atoms: C_2  and  C_22
REMARK    4  A    between atoms: O_3  and  C_4
REMARK    5  A    between atoms: C_6  and  C_11
REMARK    6  A    between atoms: N_13  and  C_16
REMARK                            x       y       z     vdW  Elec       q    Type
REMARK                         _______ _______ _______ _____ _____    ______ ____
ROOT
ATOM      1  C   UNL     1      -7.921   0.400 123.585  0.00  0.00    +0.000 A 
ATOM      2  C   UNL     1      -7.049   1.200 124.324  0.00  0.00    +0.000 A 
ATOM      3  C   UNL     1      -7.204   2.591 124.277  0.00  0.00    +0.000 A 
ATOM      4  C   UNL     1      -8.147   3.113 123.404  0.00  0.00    +0.000 A 
ATOM      5  N   UNL     1      -9.033   2.365 122.731  0.00  0.00    +0.000 NA
ATOM      6  C   UNL     1      -8.987   1.039 122.940  0.00  0.00    +0.000 A 
ATOM      7  N   UNL     1     -10.177   0.419 122.658  0.00  0.00    +0.000 N 
ATOM      8  H   UNL     1     -10.700   0.877 121.927  0.00  0.00    +0.000 HD
ATOM      9  H   UNL     1     -10.287  -0.563 122.830  0.00  0.00    +0.000 HD
ENDROOT
BRANCH   3  10
ATOM     10  C   UNL     1      -6.426   3.499 125.068  0.00  0.00    +0.000 A 
ATOM     11  C   UNL     1      -5.233   3.147 125.639  0.00  0.00    +0.000 A 
ATOM     12  N   UNL     1      -4.711   4.272 126.207  0.00  0.00    +0.000 N 
ATOM     13  N   UNL     1      -5.510   5.349 126.043  0.00  0.00    +0.000 NA
ATOM     14  C   UNL     1      -6.547   4.872 125.346  0.00  0.00    +0.000 A 
BRANCH  12  15
ATOM     15  C   UNL     1      -3.441   4.416 126.922  0.00  0.00    +0.000 C 
ATOM     16  C   UNL     1      -2.974   3.105 127.570  0.00  0.00    +0.000 C 
ATOM     17  C   UNL     1      -3.810   2.753 128.797  0.00  0.00    +0.000 C 
ATOM     18  N   UNL     1      -3.872   3.856 129.759  0.00  0.00    +0.000 NA
ATOM     19  C   UNL     1      -4.316   5.130 129.188  0.00  0.00    +0.000 C 
ATOM     20  C   UNL     1      -3.492   5.535 127.969  0.00  0.00    +0.000 C 
ATOM     21  H   UNL     1      -2.940   3.989 130.155  0.00  0.00    +0.000 HD
ENDBRANCH  12  15
ENDBRANCH   3  10
BRANCH   1  22
ATOM     22  O   UNL     1      -7.783  -0.961 123.662  0.00  0.00    +0.000 OA
BRANCH  22  24
ATOM     23  C   UNL     1      -6.128  -2.782 123.949  0.00  0.00    +0.000 C 
ATOM     24  C   UNL     1      -6.756  -1.507 124.530  0.00  0.00    +0.000 C 
BRANCH  24  25
ATOM     25  C   UNL     1      -7.321  -1.935 125.901  0.00  0.00    +0.000 A 
ATOM     26  C   UNL     1      -6.632  -1.527 127.081  0.00  0.00    +0.000 A 
ATOM     27 CL   UNL     1      -5.337  -0.365 127.074  0.00  0.00    +0.000 Cl
ATOM     28  C   UNL     1      -6.943  -2.056 128.339  0.00  0.00    +0.000 A 
ATOM     29  C   UNL     1      -7.996  -2.947 128.476  0.00  0.00    +0.000 A 
ATOM     30  C   UNL     1      -8.725  -3.310 127.356  0.00  0.00    +0.000 A 
ATOM     31  F   UNL     1      -9.748  -4.163 127.524  0.00  0.00    +0.000 F 
ATOM     32  C   UNL     1      -8.400  -2.834 126.075  0.00  0.00    +0.000 A 
ATOM     33 CL   UNL     1      -9.387  -3.459 124.797  0.00  0.00    +0.000 Cl
ENDBRANCH  24  25
ENDBRANCH  22  24
ENDBRANCH   1  22
TORSDOF 5
ENDMDL
MODEL 5
REMARK VINA RESULT:      -8.5      6.288      9.037
REMARK  Name = Crizotinib
REMARK  6 active torsions:
REMARK  status: ('A' for Active; 'I' for Inactive)
REMARK    1  A    between atoms: C_1  and  C_2
REMARK    2  A    between atoms: C_2  and  O_3
REMARK    3  A    between atoms: C_2  and  C_22
REMARK    4  A    between atoms: O_3  and  C_4
REMARK    5  A    between atoms: C_6  and  C_11
REMARK    6  A    between atoms: N_13  and  C_16
REMARK                            x       y       z     vdW  Elec       q    Type
REMARK                         _______ _______ _______ _____ _____    ______ ____
ROOT
ATOM      1  C   UNL     1      -7.393   0.525 125.288  0.00  0.00    +0.000 A 
ATOM      2  C   UNL     1      -6.208   1.181 125.621  0.00  0.00    +0.000 A 
ATOM      3  C   UNL     1      -6.273   2.507 126.067  0.00  0.00    +0.000 A 
ATOM      4  C   UNL     1      -7.505   3.143 126.046  0.00  0.00    +0.000 A 
ATOM      5  N   UNL     1      -8.662   2.517 125.788  0.00  0.00    +0.000 NA
ATOM      6  C   UNL     1      -8.593   1.198 125.548  0.00  0.00    +0.000 A 
ATOM      7  N   UNL     1      -9.778   0.554 125.800  0.00  0.00    +0.000 N 
ATOM      8  H   UNL     1     -10.587   1.136 125.644  0.00  0.00    +0.000 HD
ATOM      9  H   UNL     1      -9.838  -0.443 125.715  0.00  0.00    +0.000 HD
ENDROOT
BRANCH   3  10
ATOM     10  C   UNL     1      -5.130   3.243 126.523  0.00  0.00    +0.000 A 
ATOM     11  C   UNL     1      -4.985   3.656 127.821  0.00  0.00    +0.000 A 
ATOM     12  N   UNL     1      -3.742   4.209 127.930  0.00  0.00    +0.000 N 
ATOM     13  N   UNL     1      -3.064   4.187 126.762  0.00  0.00    +0.000 NA
ATOM     14  C   UNL     1      -3.912   3.594 125.914  0.00  0.00    +0.000 A 
BRANCH  12  15
ATOM     15  C   UNL     1      -3.111   4.779 129.123  0.00  0.00    +0.000 C 
ATOM     16  C   UNL     1      -4.090   4.937 130.294  0.00  0.00    +0.000 C 
ATOM     17  C   UNL     1      -5.064   6.089 130.063  0.00  0.00    +0.000 C 
ATOM     18  N   UNL     1      -4.373   7.341 129.744  0.00  0.00    +0.000 NA
ATOM     19  C   UNL     1      -3.428   7.241 128.628  0.00  0.00    +0.000 C 
ATOM     20  C   UNL     1      -2.418   6.114 128.827  0.00  0.00    +0.000 C 
ATOM     21  H   UNL     1      -3.861   7.645 130.572  0.00  0.00    +0.000 HD
ENDBRANCH  12  15
ENDBRANCH   3  10
BRANCH   1  22
ATOM     22  O   UNL     1      -7.324  -0.782 124.884  0.00  0.00    +0.000 OA
BRANCH  22  24
ATOM     23  C   UNL     1      -6.069  -2.915 124.767  0.00  0.00    +0.000 C 
ATOM     24  C   UNL     1      -6.454  -1.689 125.608  0.00  0.00    +0.000 C 
BRANCH  24  25
ATOM     25  C   UNL     1      -7.136  -2.271 126.864  0.00  0.00    +0.000 A 
ATOM     26  C   UNL     1      -6.446  -2.203 128.110  0.00  0.00    +0.000 A 
ATOM     27 CL   UNL     1      -4.991  -1.278 128.344  0.00  0.00    +0.000 Cl
ATOM     28  C   UNL     1      -6.888  -2.902 129.240  0.00  0.00    +0.000 A 
ATOM     29  C   UNL     1      -8.069  -3.627 129.188  0.00  0.00    +0.000 A 
ATOM     30  C   UNL     1      -8.795  -3.655 128.009  0.00  0.00    +0.000 A 
ATOM     31  F   UNL     1      -9.941  -4.354 127.997  0.00  0.00    +0.000 F 
ATOM     32  C   UNL     1      -8.345  -3.006 126.848  0.00  0.00    +0.000 A 
ATOM     33 CL   UNL     1      -9.359  -3.219 125.459  0.00  0.00    +0.000 Cl
ENDBRANCH  24  25
ENDBRANCH  22  24
ENDBRANCH   1  22
TORSDOF 5
ENDMDL
MODEL 6
REMARK VINA RESULT:      -8.5      1.737      1.914
REMARK  Name = Crizotinib
REMARK  6 active torsions:
REMARK  status: ('A' for Active; 'I' for Inactive)
REMARK    1  A    between atoms: C_1  and  C_2
REMARK    2  A    between atoms: C_2  and  O_3
REMARK    3  A    between atoms: C_2  and  C_22
REMARK    4  A    between atoms: O_3  and  C_4
REMARK    5  A    between atoms: C_6  and  C_11
REMARK    6  A    between atoms: N_13  and  C_16
REMARK                            x       y       z     vdW  Elec       q    Type
REMARK                         _______ _______ _______ _____ _____    ______ ____
ROOT
ATOM      1  C   UNL     1      -7.145   3.464 131.289  0.00  0.00    +0.000 A 
ATOM      2  C   UNL     1      -7.914   4.589 130.994  0.00  0.00    +0.000 A 
ATOM      3  C   UNL     1      -9.310   4.476 131.014  0.00  0.00    +0.000 A 
ATOM      4  C   UNL     1      -9.861   3.219 131.212  0.00  0.00    +0.000 A 
ATOM      5  N   UNL     1      -9.145   2.139 131.555  0.00  0.00    +0.000 NA
ATOM      6  C   UNL     1      -7.824   2.317 131.717  0.00  0.00    +0.000 A 
ATOM      7  N   UNL     1      -7.259   1.367 132.530  0.00  0.00    +0.000 N 
ATOM      8  H   UNL     1      -7.728   0.475 132.483  0.00  0.00    +0.000 HD
ATOM      9  H   UNL     1      -6.289   1.425 132.775  0.00  0.00    +0.000 HD
ENDROOT
BRANCH   3  10
ATOM     10  C   UNL     1     -10.194   5.588 130.819  0.00  0.00    +0.000 A 
ATOM     11  C   UNL     1     -10.174   6.361 129.689  0.00  0.00    +0.000 A 
ATOM     12  N   UNL     1     -11.216   7.237 129.782  0.00  0.00    +0.000 N 
ATOM     13  N   UNL     1     -11.917   7.083 130.926  0.00  0.00    +0.000 NA
ATOM     14  C   UNL     1     -11.294   6.076 131.548  0.00  0.00    +0.000 A 
BRANCH  12  15
ATOM     15  C   UNL     1     -11.625   8.257 128.814  0.00  0.00    +0.000 C 
ATOM     16  C   UNL     1     -13.039   8.021 128.266  0.00  0.00    +0.000 C 
ATOM     17  C   UNL     1     -13.078   6.850 127.289  0.00  0.00    +0.000 C 
ATOM     18  N   UNL     1     -12.085   6.989 126.221  0.00  0.00    +0.000 NA
ATOM     19  C   UNL     1     -10.717   7.213 126.695  0.00  0.00    +0.000 C 
ATOM     20  C   UNL     1     -10.626   8.392 127.659  0.00  0.00    +0.000 C 
ATOM     21  H   UNL     1     -12.354   7.778 125.633  0.00  0.00    +0.000 HD
ENDBRANCH  12  15
ENDBRANCH   3  10
BRANCH   1  22
ATOM     22  O   UNL     1      -5.780   3.591 131.300  0.00  0.00    +0.000 OA
BRANCH  22  24
ATOM     23  C   UNL     1      -4.102   2.133 130.206  0.00  0.00    +0.000 C 
ATOM     24  C   UNL     1      -5.049   3.335 130.073  0.00  0.00    +0.000 C 
BRANCH  24  25
ATOM     25  C   UNL     1      -4.136   4.516 129.683  0.00  0.00    +0.000 A 
ATOM     26  C   UNL     1      -4.212   5.028 128.355  0.00  0.00    +0.000 A 
ATOM     27 CL   UNL     1      -5.451   4.566 127.225  0.00  0.00    +0.000 Cl
ATOM     28  C   UNL     1      -3.269   5.936 127.857  0.00  0.00    +0.000 A 
ATOM     29  C   UNL     1      -2.268   6.420 128.685  0.00  0.00    +0.000 A 
ATOM     30  C   UNL     1      -2.211   5.990 130.001  0.00  0.00    +0.000 A 
ATOM     31  F   UNL     1      -1.239   6.489 130.780  0.00  0.00    +0.000 F 
ATOM     32  C   UNL     1      -3.113   5.041 130.508  0.00  0.00    +0.000 A 
ATOM     33 CL   UNL     1      -2.831   4.581 132.154  0.00  0.00    +0.000 Cl
ENDBRANCH  24  25
ENDBRANCH  22  24
ENDBRANCH   1  22
TORSDOF 5
ENDMDL
MODEL 7
REMARK VINA RESULT:      -8.3      5.762      6.670
REMARK  Name = Crizotinib
REMARK  6 active torsions:
REMARK  status: ('A' for Active; 'I' for Inactive)
REMARK    1  A    between atoms: C_1  and  C_2
REMARK    2  A    between atoms: C_2  and  O_3
REMARK    3  A    between atoms: C_2  and  C_22
REMARK    4  A    between atoms: O_3  and  C_4
REMARK    5  A    between atoms: C_6  and  C_11
REMARK    6  A    between atoms: N_13  and  C_16
REMARK                            x       y       z     vdW  Elec       q    Type
REMARK                         _______ _______ _______ _____ _____    ______ ____
ROOT
ATOM      1  C   UNL     1      -6.728   1.474 127.590  0.00  0.00    +0.000 A 
ATOM      2  C   UNL     1      -7.895   2.067 128.071  0.00  0.00    +0.000 A 
ATOM      3  C   UNL     1      -7.808   2.945 129.159  0.00  0.00    +0.000 A 
ATOM      4  C   UNL     1      -6.577   3.092 129.781  0.00  0.00    +0.000 A 
ATOM      5  N   UNL     1      -5.435   2.580 129.302  0.00  0.00    +0.000 NA
ATOM      6  C   UNL     1      -5.516   1.898 128.148  0.00  0.00    +0.000 A 
ATOM      7  N   UNL     1      -4.321   1.856 127.475  0.00  0.00    +0.000 N 
ATOM      8  H   UNL     1      -3.520   1.877 128.087  0.00  0.00    +0.000 HD
ATOM      9  H   UNL     1      -4.266   1.426 126.571  0.00  0.00    +0.000 HD
ENDROOT
BRANCH   3  10
ATOM     10  C   UNL     1      -8.927   3.679 129.672  0.00  0.00    +0.000 A 
ATOM     11  C   UNL     1      -8.977   5.048 129.672  0.00  0.00    +0.000 A 
ATOM     12  N   UNL     1     -10.219   5.405 130.110  0.00  0.00    +0.000 N 
ATOM     13  N   UNL     1     -10.988   4.335 130.406  0.00  0.00    +0.000 NA
ATOM     14  C   UNL     1     -10.198   3.291 130.132  0.00  0.00    +0.000 A 
BRANCH  12  15
ATOM     15  C   UNL     1     -10.765   6.755 130.269  0.00  0.00    +0.000 C 
ATOM     16  C   UNL     1     -12.297   6.789 130.176  0.00  0.00    +0.000 C 
ATOM     17  C   UNL     1     -12.780   6.589 128.743  0.00  0.00    +0.000 C 
ATOM     18  N   UNL     1     -12.147   7.525 127.810  0.00  0.00    +0.000 NA
ATOM     19  C   UNL     1     -10.682   7.526 127.860  0.00  0.00    +0.000 C 
ATOM     20  C   UNL     1     -10.152   7.747 129.273  0.00  0.00    +0.000 C 
ATOM     21  H   UNL     1     -12.476   8.466 128.027  0.00  0.00    +0.000 HD
ENDBRANCH  12  15
ENDBRANCH   3  10
BRANCH   1  22
ATOM     22  O   UNL     1      -6.817   0.642 126.505  0.00  0.00    +0.000 OA
BRANCH  22  24
ATOM     23  C   UNL     1      -5.467  -1.434 126.546  0.00  0.00    +0.000 C 
ATOM     24  C   UNL     1      -6.850  -0.791 126.728  0.00  0.00    +0.000 C 
BRANCH  24  25
ATOM     25  C   UNL     1      -7.759  -1.517 125.715  0.00  0.00    +0.000 A 
ATOM     26  C   UNL     1      -8.486  -2.664 126.150  0.00  0.00    +0.000 A 
ATOM     27 CL   UNL     1      -8.603  -3.142 127.818  0.00  0.00    +0.000 Cl
ATOM     28  C   UNL     1      -9.148  -3.506 125.248  0.00  0.00    +0.000 A 
ATOM     29  C   UNL     1      -9.171  -3.194 123.898  0.00  0.00    +0.000 A 
ATOM     30  C   UNL     1      -8.529  -2.049 123.456  0.00  0.00    +0.000 A 
ATOM     31  F   UNL     1      -8.584  -1.766 122.145  0.00  0.00    +0.000 F 
ATOM     32  C   UNL     1      -7.815  -1.217 124.333  0.00  0.00    +0.000 A 
ATOM     33 CL   UNL     1      -7.025   0.126 123.577  0.00  0.00    +0.000 Cl
ENDBRANCH  24  25
ENDBRANCH  22  24
ENDBRANCH   1  22
TORSDOF 5
ENDMDL
MODEL 8
REMARK VINA RESULT:      -8.3      5.497      6.388
REMARK  Name = Crizotinib
REMARK  6 active torsions:
REMARK  status: ('A' for Active; 'I' for Inactive)
REMARK    1  A    between atoms: C_1  and  C_2
REMARK    2  A    between atoms: C_2  and  O_3
REMARK    3  A    between atoms: C_2  and  C_22
REMARK    4  A    between atoms: O_3  and  C_4
REMARK    5  A    between atoms: C_6  and  C_11
REMARK    6  A    between atoms: N_13  and  C_16
REMARK                            x       y       z     vdW  Elec       q    Type
REMARK                         _______ _______ _______ _____ _____    ______ ____
ROOT
ATOM      1  C   UNL     1      -8.037  -0.101 130.034  0.00  0.00    +0.000 A 
ATOM      2  C   UNL     1      -8.173   1.183 129.506  0.00  0.00    +0.000 A 
ATOM      3  C   UNL     1      -8.907   2.135 130.225  0.00  0.00    +0.000 A 
ATOM      4  C   UNL     1      -9.561   1.721 131.376  0.00  0.00    +0.000 A 
ATOM      5  N   UNL     1      -9.396   0.513 131.932  0.00  0.00    +0.000 NA
ATOM      6  C   UNL     1      -8.536  -0.320 131.324  0.00  0.00    +0.000 A 
ATOM      7  N   UNL     1      -8.037  -1.275 132.172  0.00  0.00    +0.000 N 
ATOM      8  H   UNL     1      -8.682  -1.533 132.903  0.00  0.00    +0.000 HD
ATOM      9  H   UNL     1      -7.340  -1.921 131.851  0.00  0.00    +0.000 HD
ENDROOT
BRANCH   3  10
ATOM     10  C   UNL     1      -9.030   3.505 129.822  0.00  0.00    +0.000 A 
ATOM     11  C   UNL     1      -9.944   4.361 130.378  0.00  0.00    +0.000 A 
ATOM     12  N   UNL     1      -9.705   5.599 129.857  0.00  0.00    +0.000 N 
ATOM     13  N   UNL     1      -8.681   5.597 128.975  0.00  0.00    +0.000 NA
ATOM     14  C   UNL     1      -8.274   4.323 128.964  0.00  0.00    +0.000 A 
BRANCH  12  15
ATOM     15  C   UNL     1     -10.403   6.852 130.151  0.00  0.00    +0.000 C 
ATOM     16  C   UNL     1     -11.906   6.650 130.393  0.00  0.00    +0.000 C 
ATOM     17  C   UNL     1     -12.651   6.353 129.096  0.00  0.00    +0.000 C 
ATOM     18  N   UNL     1     -12.385   7.359 128.063  0.00  0.00    +0.000 NA
ATOM     19  C   UNL     1     -10.962   7.584 127.794  0.00  0.00    +0.000 C 
ATOM     20  C   UNL     1     -10.179   7.908 129.063  0.00  0.00    +0.000 C 
ATOM     21  H   UNL     1     -12.800   8.242 128.361  0.00  0.00    +0.000 HD
ENDBRANCH  12  15
ENDBRANCH   3  10
BRANCH   1  22
ATOM     22  O   UNL     1      -7.290  -1.016 129.340  0.00  0.00    +0.000 OA
BRANCH  22  24
ATOM     23  C   UNL     1      -7.923  -3.411 129.349  0.00  0.00    +0.000 C 
ATOM     24  C   UNL     1      -7.979  -2.065 128.612  0.00  0.00    +0.000 C 
BRANCH  24  25
ATOM     25  C   UNL     1      -7.332  -2.340 127.238  0.00  0.00    +0.000 A 
ATOM     26  C   UNL     1      -5.931  -2.120 127.086  0.00  0.00    +0.000 A 
ATOM     27 CL   UNL     1      -4.867  -1.802 128.424  0.00  0.00    +0.000 Cl
ATOM     28  C   UNL     1      -5.314  -2.125 125.830  0.00  0.00    +0.000 A 
ATOM     29  C   UNL     1      -6.052  -2.424 124.695  0.00  0.00    +0.000 A 
ATOM     30  C   UNL     1      -7.402  -2.709 124.822  0.00  0.00    +0.000 A 
ATOM     31  F   UNL     1      -8.085  -3.010 123.706  0.00  0.00    +0.000 F 
ATOM     32  C   UNL     1      -8.055  -2.658 126.064  0.00  0.00    +0.000 A 
ATOM     33 CL   UNL     1      -9.757  -2.976 126.002  0.00  0.00    +0.000 Cl
ENDBRANCH  24  25
ENDBRANCH  22  24
ENDBRANCH   1  22
TORSDOF 5
ENDMDL
MODEL 9
REMARK VINA RESULT:      -8.3      6.055      8.449
REMARK  Name = Crizotinib
REMARK  6 active torsions:
REMARK  status: ('A' for Active; 'I' for Inactive)
REMARK    1  A    between atoms: C_1  and  C_2
REMARK    2  A    between atoms: C_2  and  O_3
REMARK    3  A    between atoms: C_2  and  C_22
REMARK    4  A    between atoms: O_3  and  C_4
REMARK    5  A    between atoms: C_6  and  C_11
REMARK    6  A    between atoms: N_13  and  C_16
REMARK                            x       y       z     vdW  Elec       q    Type
REMARK                         _______ _______ _______ _____ _____    ______ ____
ROOT
ATOM      1  C   UNL     1      -9.382   2.933 130.118  0.00  0.00    +0.000 A 
ATOM      2  C   UNL     1      -9.004   2.554 128.830  0.00  0.00    +0.000 A 
ATOM      3  C   UNL     1      -8.325   1.342 128.654  0.00  0.00    +0.000 A 
ATOM      4  C   UNL     1      -7.958   0.630 129.786  0.00  0.00    +0.000 A 
ATOM      5  N   UNL     1      -8.361   0.943 131.025  0.00  0.00    +0.000 NA
ATOM      6  C   UNL     1      -9.171   2.006 131.146  0.00  0.00    +0.000 A 
ATOM      7  N   UNL     1      -9.929   1.965 132.289  0.00  0.00    +0.000 N 
ATOM      8  H   UNL     1      -9.471   1.489 133.052  0.00  0.00    +0.000 HD
ATOM      9  H   UNL     1     -10.616   2.673 132.465  0.00  0.00    +0.000 HD
ENDROOT
BRANCH   3  10
ATOM     10  C   UNL     1      -7.975   0.813 127.368  0.00  0.00    +0.000 A 
ATOM     11  C   UNL     1      -7.699  -0.513 127.163  0.00  0.00    +0.000 A 
ATOM     12  N   UNL     1      -7.531  -0.686 125.820  0.00  0.00    +0.000 N 
ATOM     13  N   UNL     1      -7.674   0.468 125.131  0.00  0.00    +0.000 NA
ATOM     14  C   UNL     1      -7.948   1.372 126.078  0.00  0.00    +0.000 A 
BRANCH  12  15
ATOM     15  C   UNL     1      -7.237  -1.927 125.101  0.00  0.00    +0.000 C 
ATOM     16  C   UNL     1      -7.532  -1.825 123.598  0.00  0.00    +0.000 C 
ATOM     17  C   UNL     1      -9.031  -1.826 123.314  0.00  0.00    +0.000 C 
ATOM     18  N   UNL     1      -9.709  -2.967 123.936  0.00  0.00    +0.000 NA
ATOM     19  C   UNL     1      -9.461  -3.104 125.374  0.00  0.00    +0.000 C 
ATOM     20  C   UNL     1      -7.971  -3.131 125.703  0.00  0.00    +0.000 C 
ATOM     21  H   UNL     1      -9.394  -3.819 123.473  0.00  0.00    +0.000 HD
ENDBRANCH  12  15
ENDBRANCH   3  10
BRANCH   1  22
ATOM     22  O   UNL     1     -10.075   4.104 130.277  0.00  0.00    +0.000 OA
BRANCH  22  24
ATOM     23  C   UNL     1      -8.318   5.842 130.450  0.00  0.00    +0.000 C 
ATOM     24  C   UNL     1      -9.539   5.314 129.683  0.00  0.00    +0.000 C 
BRANCH  24  25
ATOM     25  C   UNL     1     -10.555   6.475 129.713  0.00  0.00    +0.000 A 
ATOM     26  C   UNL     1     -11.213   6.776 130.942  0.00  0.00    +0.000 A 
ATOM     27 CL   UNL     1     -10.751   6.076 132.466  0.00  0.00    +0.000 Cl
ATOM     28  C   UNL     1     -12.303   7.653 131.003  0.00  0.00    +0.000 A 
ATOM     29  C   UNL     1     -12.724   8.315 129.860  0.00  0.00    +0.000 A 
ATOM     30  C   UNL     1     -12.060   8.093 128.665  0.00  0.00    +0.000 A 
ATOM     31  F   UNL     1     -12.483   8.761 127.580  0.00  0.00    +0.000 F 
ATOM     32  C   UNL     1     -10.998   7.179 128.568  0.00  0.00    +0.000 A 
ATOM     33 CL   UNL     1     -10.347   6.990 126.974  0.00  0.00    +0.000 Cl
ENDBRANCH  24  25
ENDBRANCH  22  24
ENDBRANCH   1  22
TORSDOF 5
ENDMDL
