MODEL 1
REMARK VINA RESULT:      -8.1      0.000      0.000
REMARK  Name = Cromoglicic acid
REMARK  11 active torsions:
REMARK  status: ('A' for Active; 'I' for Inactive)
REMARK    1  A    between atoms: O_1  and  C_2
REMARK    2  A    between atoms: C_2  and  C_3
REMARK    3  A    between atoms: C_2  and  C_19
REMARK    4  A    between atoms: C_3  and  O_4
REMARK    5  A    between atoms: O_4  and  C_5
REMARK    6  A    between atoms: C_14  and  C_16
REMARK    7  A    between atoms: C_16  and  O_17
REMARK    8  A    between atoms: C_19  and  O_20
REMARK    9  A    between atoms: O_20  and  C_21
REMARK   10  A    between atoms: C_30  and  C_32
REMARK   11  A    between atoms: C_32  and  O_33
REMARK                            x       y       z     vdW  Elec       q    Type
REMARK                         _______ _______ _______ _____ _____    ______ ____
ROOT
ATOM      1  C   UNL     1      -9.192   2.394 133.035  0.00  0.00    +0.000 C 
ENDROOT
BRANCH   1   2
ATOM      2  O   UNL     1     -10.283   2.735 132.168  0.00  0.00    +0.000 OA
ATOM      3  H   UNL     1     -10.962   3.130 132.746  0.00  0.00    +0.000 HD
ENDBRANCH   1   2
BRANCH   1   4
ATOM      4  C   UNL     1      -7.992   2.035 132.177  0.00  0.00    +0.000 C 
BRANCH   4   5
ATOM      5  O   UNL     1      -8.091   2.733 130.926  0.00  0.00    +0.000 OA
BRANCH   5   6
ATOM      6  C   UNL     1      -6.869   2.995 130.365  0.00  0.00    +0.000 A 
ATOM      7  C   UNL     1      -5.766   2.806 131.208  0.00  0.00    +0.000 A 
ATOM      8  C   UNL     1      -4.469   3.008 130.729  0.00  0.00    +0.000 A 
ATOM      9  C   UNL     1      -4.270   3.409 129.407  0.00  0.00    +0.000 A 
ATOM     10  C   UNL     1      -5.367   3.653 128.578  0.00  0.00    +0.000 A 
ATOM     11  C   UNL     1      -6.669   3.480 129.064  0.00  0.00    +0.000 A 
ATOM     12  C   UNL     1      -7.772   3.923 128.184  0.00  0.00    +0.000 A 
ATOM     13  O   UNL     1      -8.915   4.147 128.556  0.00  0.00    +0.000 OA
ATOM     14  C   UNL     1      -7.442   4.178 126.787  0.00  0.00    +0.000 A 
ATOM     15  C   UNL     1      -6.157   4.322 126.449  0.00  0.00    +0.000 A 
ATOM     16  O   UNL     1      -5.088   4.106 127.303  0.00  0.00    +0.000 OA
BRANCH  15  17
ATOM     17  C   UNL     1      -5.920   4.847 125.079  0.00  0.00    +0.000 C 
ATOM     18  O   UNL     1      -5.451   4.180 124.170  0.00  0.00    +0.000 OA
BRANCH  17  19
ATOM     19  O   UNL     1      -6.305   6.129 124.915  0.00  0.00    +0.000 OA
ATOM     20  H   UNL     1      -6.881   6.286 124.144  0.00  0.00    +0.000 HD
ENDBRANCH  17  19
ENDBRANCH  15  17
ENDBRANCH   5   6
ENDBRANCH   4   5
ENDBRANCH   1   4
BRANCH   1  21
ATOM     21  C   UNL     1      -8.813   3.594 133.903  0.00  0.00    +0.000 C 
BRANCH  21  22
ATOM     22  O   UNL     1      -9.478   4.779 133.432  0.00  0.00    +0.000 OA
BRANCH  22  23
ATOM     23  C   UNL     1      -8.828   5.533 132.488  0.00  0.00    +0.000 A 
ATOM     24  C   UNL     1      -7.444   5.691 132.706  0.00  0.00    +0.000 A 
ATOM     25  C   UNL     1      -6.664   6.494 131.864  0.00  0.00    +0.000 A 
ATOM     26  C   UNL     1      -7.260   7.162 130.797  0.00  0.00    +0.000 A 
ATOM     27  C   UNL     1      -8.637   7.044 130.588  0.00  0.00    +0.000 A 
ATOM     28  C   UNL     1      -9.430   6.246 131.438  0.00  0.00    +0.000 A 
ATOM     29  C   UNL     1     -10.889   6.330 131.225  0.00  0.00    +0.000 A 
ATOM     30  O   UNL     1     -11.749   6.010 132.041  0.00  0.00    +0.000 OA
ATOM     31  C   UNL     1     -11.357   6.949 129.996  0.00  0.00    +0.000 A 
ATOM     32  C   UNL     1     -10.507   7.694 129.286  0.00  0.00    +0.000 A 
ATOM     33  O   UNL     1      -9.152   7.799 129.549  0.00  0.00    +0.000 OA
BRANCH  32  34
ATOM     34  C   UNL     1     -11.138   8.515 128.223  0.00  0.00    +0.000 C 
ATOM     35  O   UNL     1     -10.863   8.414 127.036  0.00  0.00    +0.000 OA
BRANCH  34  36
ATOM     36  O   UNL     1     -12.075   9.369 128.677  0.00  0.00    +0.000 OA
ATOM     37  H   UNL     1     -12.295  10.090 128.059  0.00  0.00    +0.000 HD
ENDBRANCH  34  36
ENDBRANCH  32  34
ENDBRANCH  22  23
ENDBRANCH  21  22
ENDBRANCH   1  21
TORSDOF 11
ENDMDL
MODEL 2
REMARK VINA RESULT:      -7.9      5.037      7.284
REMARK  Name = Cromoglicic acid
REMARK  11 active torsions:
REMARK  status: ('A' for Active; 'I' for Inactive)
REMARK    1  A    between atoms: O_1  and  C_2
REMARK    2  A    between atoms: C_2  and  C_3
REMARK    3  A    between atoms: C_2  and  C_19
REMARK    4  A    between atoms: C_3  and  O_4
REMARK    5  A    between atoms: O_4  and  C_5
REMARK    6  A    between atoms: C_14  and  C_16
REMARK    7  A    between atoms: C_16  and  O_17
REMARK    8  A    between atoms: C_19  and  O_20
REMARK    9  A    between atoms: O_20  and  C_21
REMARK   10  A    between atoms: C_30  and  C_32
REMARK   11  A    between atoms: C_32  and  O_33
REMARK                            x       y       z     vdW  Elec       q    Type
REMARK                         _______ _______ _______ _____ _____    ______ ____
ROOT
ATOM      1  C   UNL     1      -5.653   1.393 129.730  0.00  0.00    +0.000 C 
ENDROOT
BRANCH   1   2
ATOM      2  O   UNL     1      -6.939   1.950 130.038  0.00  0.00    +0.000 OA
ATOM      3  H   UNL     1      -6.789   2.551 130.792  0.00  0.00    +0.000 HD
ENDBRANCH   1   2
BRANCH   1   4
ATOM      4  C   UNL     1      -5.723  -0.110 129.924  0.00  0.00    +0.000 C 
BRANCH   4   5
ATOM      5  O   UNL     1      -5.574  -0.751 128.648  0.00  0.00    +0.000 OA
BRANCH   5   6
ATOM      6  C   UNL     1      -6.571  -1.651 128.383  0.00  0.00    +0.000 A 
ATOM      7  C   UNL     1      -7.012  -2.402 129.482  0.00  0.00    +0.000 A 
ATOM      8  C   UNL     1      -8.052  -3.323 129.335  0.00  0.00    +0.000 A 
ATOM      9  C   UNL     1      -8.650  -3.505 128.087  0.00  0.00    +0.000 A 
ATOM     10  C   UNL     1      -8.177  -2.801 126.977  0.00  0.00    +0.000 A 
ATOM     11  C   UNL     1      -7.116  -1.898 127.115  0.00  0.00    +0.000 A 
ATOM     12  C   UNL     1      -6.564  -1.325 125.868  0.00  0.00    +0.000 A 
ATOM     13  O   UNL     1      -5.467  -0.795 125.770  0.00  0.00    +0.000 OA
ATOM     14  C   UNL     1      -7.366  -1.475 124.659  0.00  0.00    +0.000 A 
ATOM     15  C   UNL     1      -8.356  -2.372 124.655  0.00  0.00    +0.000 A 
ATOM     16  O   UNL     1      -8.781  -3.082 125.766  0.00  0.00    +0.000 OA
BRANCH  15  17
ATOM     17  C   UNL     1      -8.940  -2.660 123.320  0.00  0.00    +0.000 C 
ATOM     18  O   UNL     1      -8.424  -2.319 122.267  0.00  0.00    +0.000 OA
BRANCH  17  19
ATOM     19  O   UNL     1     -10.087  -3.369 123.371  0.00  0.00    +0.000 OA
ATOM     20  H   UNL     1     -10.057  -4.224 122.902  0.00  0.00    +0.000 HD
ENDBRANCH  17  19
ENDBRANCH  15  17
ENDBRANCH   5   6
ENDBRANCH   4   5
ENDBRANCH   1   4
BRANCH   1  21
ATOM     21  C   UNL     1      -5.296   1.668 128.269  0.00  0.00    +0.000 C 
BRANCH  21  22
ATOM     22  O   UNL     1      -6.054   2.783 127.771  0.00  0.00    +0.000 OA
BRANCH  22  23
ATOM     23  C   UNL     1      -6.244   2.861 126.415  0.00  0.00    +0.000 A 
ATOM     24  C   UNL     1      -5.283   3.629 125.726  0.00  0.00    +0.000 A 
ATOM     25  C   UNL     1      -5.388   3.857 124.348  0.00  0.00    +0.000 A 
ATOM     26  C   UNL     1      -6.466   3.330 123.640  0.00  0.00    +0.000 A 
ATOM     27  C   UNL     1      -7.445   2.595 124.314  0.00  0.00    +0.000 A 
ATOM     28  C   UNL     1      -7.351   2.371 125.703  0.00  0.00    +0.000 A 
ATOM     29  C   UNL     1      -8.523   1.731 126.333  0.00  0.00    +0.000 A 
ATOM     30  O   UNL     1      -8.794   1.760 127.531  0.00  0.00    +0.000 OA
ATOM     31  C   UNL     1      -9.505   1.112 125.460  0.00  0.00    +0.000 A 
ATOM     32  C   UNL     1      -9.496   1.419 124.161  0.00  0.00    +0.000 A 
ATOM     33  O   UNL     1      -8.514   2.172 123.543  0.00  0.00    +0.000 OA
BRANCH  32  34
ATOM     34  C   UNL     1     -10.698   0.977 123.409  0.00  0.00    +0.000 C 
ATOM     35  O   UNL     1     -10.649   0.311 122.384  0.00  0.00    +0.000 OA
BRANCH  34  36
ATOM     36  O   UNL     1     -11.862   1.347 123.975  0.00  0.00    +0.000 OA
ATOM     37  H   UNL     1     -12.619   1.365 123.362  0.00  0.00    +0.000 HD
ENDBRANCH  34  36
ENDBRANCH  32  34
ENDBRANCH  22  23
ENDBRANCH  21  22
ENDBRANCH   1  21
TORSDOF 11
ENDMDL
MODEL 3
REMARK VINA RESULT:      -7.7      5.071      8.200
REMARK  Name = Cromoglicic acid
REMARK  11 active torsions:
REMARK  status: ('A' for Active; 'I' for Inactive)
REMARK    1  A    between atoms: O_1  and  C_2
REMARK    2  A    between atoms: C_2  and  C_3
REMARK    3  A    between atoms: C_2  and  C_19
REMARK    4  A    between atoms: C_3  and  O_4
REMARK    5  A    between atoms: O_4  and  C_5
REMARK    6  A    between atoms: C_14  and  C_16
REMARK    7  A    between atoms: C_16  and  O_17
REMARK    8  A    between atoms: C_19  and  O_20
REMARK    9  A    between atoms: O_20  and  C_21
REMARK   10  A    between atoms: C_30  and  C_32
REMARK   11  A    between atoms: C_32  and  O_33
REMARK                            x       y       z     vdW  Elec       q    Type
REMARK                         _______ _______ _______ _____ _____    ______ ____
ROOT
ATOM      1  C   UNL     1      -6.110   0.979 129.207  0.00  0.00    +0.000 C 
ENDROOT
BRANCH   1   2
ATOM      2  O   UNL     1      -6.257   1.938 130.264  0.00  0.00    +0.000 OA
ATOM      3  H   UNL     1      -7.192   1.884 130.536  0.00  0.00    +0.000 HD
ENDBRANCH   1   2
BRANCH   1   4
ATOM      4  C   UNL     1      -5.388   1.648 128.052  0.00  0.00    +0.000 C 
BRANCH   4   5
ATOM      5  O   UNL     1      -6.079   2.860 127.711  0.00  0.00    +0.000 OA
BRANCH   5   6
ATOM      6  C   UNL     1      -6.241   3.019 126.361  0.00  0.00    +0.000 A 
ATOM      7  C   UNL     1      -5.253   3.780 125.721  0.00  0.00    +0.000 A 
ATOM      8  C   UNL     1      -5.299   3.976 124.338  0.00  0.00    +0.000 A 
ATOM      9  C   UNL     1      -6.337   3.420 123.590  0.00  0.00    +0.000 A 
ATOM     10  C   UNL     1      -7.355   2.709 124.230  0.00  0.00    +0.000 A 
ATOM     11  C   UNL     1      -7.328   2.535 125.619  0.00  0.00    +0.000 A 
ATOM     12  C   UNL     1      -8.525   1.923 126.236  0.00  0.00    +0.000 A 
ATOM     13  O   UNL     1      -8.809   1.990 127.423  0.00  0.00    +0.000 OA
ATOM     14  C   UNL     1      -9.463   1.256 125.341  0.00  0.00    +0.000 A 
ATOM     15  C   UNL     1      -9.383   1.503 124.031  0.00  0.00    +0.000 A 
ATOM     16  O   UNL     1      -8.379   2.242 123.428  0.00  0.00    +0.000 OA
BRANCH  15  17
ATOM     17  C   UNL     1     -10.531   1.010 123.225  0.00  0.00    +0.000 C 
ATOM     18  O   UNL     1     -10.410   0.444 122.150  0.00  0.00    +0.000 OA
BRANCH  17  19
ATOM     19  O   UNL     1     -11.730   1.215 123.807  0.00  0.00    +0.000 OA
ATOM     20  H   UNL     1     -11.711   1.231 124.782  0.00  0.00    +0.000 HD
ENDBRANCH  17  19
ENDBRANCH  15  17
ENDBRANCH   5   6
ENDBRANCH   4   5
ENDBRANCH   1   4
BRANCH   1  21
ATOM     21  C   UNL     1      -5.260  -0.200 129.680  0.00  0.00    +0.000 C 
BRANCH  21  22
ATOM     22  O   UNL     1      -5.179  -1.201 128.651  0.00  0.00    +0.000 OA
BRANCH  22  23
ATOM     23  C   UNL     1      -6.318  -1.915 128.376  0.00  0.00    +0.000 A 
ATOM     24  C   UNL     1      -6.800  -2.695 129.447  0.00  0.00    +0.000 A 
ATOM     25  C   UNL     1      -7.913  -3.532 129.292  0.00  0.00    +0.000 A 
ATOM     26  C   UNL     1      -8.552  -3.611 128.058  0.00  0.00    +0.000 A 
ATOM     27  C   UNL     1      -8.066  -2.871 126.976  0.00  0.00    +0.000 A 
ATOM     28  C   UNL     1      -6.940  -2.035 127.122  0.00  0.00    +0.000 A 
ATOM     29  C   UNL     1      -6.416  -1.437 125.879  0.00  0.00    +0.000 A 
ATOM     30  O   UNL     1      -5.286  -0.981 125.726  0.00  0.00    +0.000 OA
ATOM     31  C   UNL     1      -7.259  -1.490 124.696  0.00  0.00    +0.000 A 
ATOM     32  C   UNL     1      -8.291  -2.337 124.679  0.00  0.00    +0.000 A 
ATOM     33  O   UNL     1      -8.720  -3.068 125.773  0.00  0.00    +0.000 OA
BRANCH  32  34
ATOM     34  C   UNL     1      -8.910  -2.536 123.345  0.00  0.00    +0.000 C 
ATOM     35  O   UNL     1      -8.370  -2.222 122.293  0.00  0.00    +0.000 OA
BRANCH  34  36
ATOM     36  O   UNL     1     -10.119  -3.129 123.387  0.00  0.00    +0.000 OA
ATOM     37  H   UNL     1     -10.594  -3.010 124.230  0.00  0.00    +0.000 HD
ENDBRANCH  34  36
ENDBRANCH  32  34
ENDBRANCH  22  23
ENDBRANCH  21  22
ENDBRANCH   1  21
TORSDOF 11
ENDMDL
MODEL 4
REMARK VINA RESULT:      -7.7      4.830      8.080
REMARK  Name = Cromoglicic acid
REMARK  11 active torsions:
REMARK  status: ('A' for Active; 'I' for Inactive)
REMARK    1  A    between atoms: O_1  and  C_2
REMARK    2  A    between atoms: C_2  and  C_3
REMARK    3  A    between atoms: C_2  and  C_19
REMARK    4  A    between atoms: C_3  and  O_4
REMARK    5  A    between atoms: O_4  and  C_5
REMARK    6  A    between atoms: C_14  and  C_16
REMARK    7  A    between atoms: C_16  and  O_17
REMARK    8  A    between atoms: C_19  and  O_20
REMARK    9  A    between atoms: O_20  and  C_21
REMARK   10  A    between atoms: C_30  and  C_32
REMARK   11  A    between atoms: C_32  and  O_33
REMARK                            x       y       z     vdW  Elec       q    Type
REMARK                         _______ _______ _______ _____ _____    ______ ____
ROOT
ATOM      1  C   UNL     1      -6.907   1.171 129.632  0.00  0.00    +0.000 C 
ENDROOT
BRANCH   1   2
ATOM      2  O   UNL     1      -5.706   1.296 128.855  0.00  0.00    +0.000 OA
ATOM      3  H   UNL     1      -5.998   1.580 127.969  0.00  0.00    +0.000 HD
ENDBRANCH   1   2
BRANCH   1   4
ATOM      4  C   UNL     1      -8.096   1.363 128.709  0.00  0.00    +0.000 C 
BRANCH   4   5
ATOM      5  O   UNL     1      -7.790   2.403 127.768  0.00  0.00    +0.000 OA
BRANCH   5   6
ATOM      6  C   UNL     1      -8.135   2.077 126.483  0.00  0.00    +0.000 A 
ATOM      7  C   UNL     1      -9.212   1.189 126.355  0.00  0.00    +0.000 A 
ATOM      8  C   UNL     1      -9.672   0.817 125.089  0.00  0.00    +0.000 A 
ATOM      9  C   UNL     1      -9.053   1.324 123.946  0.00  0.00    +0.000 A 
ATOM     10  C   UNL     1      -7.944   2.164 124.067  0.00  0.00    +0.000 A 
ATOM     11  C   UNL     1      -7.461   2.516 125.334  0.00  0.00    +0.000 A 
ATOM     12  C   UNL     1      -6.187   3.264 125.375  0.00  0.00    +0.000 A 
ATOM     13  O   UNL     1      -5.470   3.367 126.361  0.00  0.00    +0.000 OA
ATOM     14  C   UNL     1      -5.725   3.857 124.125  0.00  0.00    +0.000 A 
ATOM     15  C   UNL     1      -6.269   3.437 122.980  0.00  0.00    +0.000 A 
ATOM     16  O   UNL     1      -7.349   2.574 122.890  0.00  0.00    +0.000 OA
BRANCH  15  17
ATOM     17  C   UNL     1      -5.565   3.879 121.748  0.00  0.00    +0.000 C 
ATOM     18  O   UNL     1      -5.608   3.272 120.689  0.00  0.00    +0.000 OA
BRANCH  17  19
ATOM     19  O   UNL     1      -4.893   5.039 121.893  0.00  0.00    +0.000 OA
ATOM     20  H   UNL     1      -4.885   5.393 122.803  0.00  0.00    +0.000 HD
ENDBRANCH  17  19
ENDBRANCH  15  17
ENDBRANCH   5   6
ENDBRANCH   4   5
ENDBRANCH   1   4
BRANCH   1  21
ATOM     21  C   UNL     1      -6.997  -0.229 130.239  0.00  0.00    +0.000 C 
BRANCH  21  22
ATOM     22  O   UNL     1      -6.366  -1.189 129.376  0.00  0.00    +0.000 OA
BRANCH  22  23
ATOM     23  C   UNL     1      -7.178  -1.927 128.553  0.00  0.00    +0.000 A 
ATOM     24  C   UNL     1      -7.990  -2.871 129.215  0.00  0.00    +0.000 A 
ATOM     25  C   UNL     1      -8.819  -3.745 128.499  0.00  0.00    +0.000 A 
ATOM     26  C   UNL     1      -8.837  -3.696 127.107  0.00  0.00    +0.000 A 
ATOM     27  C   UNL     1      -8.012  -2.790 126.434  0.00  0.00    +0.000 A 
ATOM     28  C   UNL     1      -7.168  -1.915 127.149  0.00  0.00    +0.000 A 
ATOM     29  C   UNL     1      -6.223  -1.125 126.335  0.00  0.00    +0.000 A 
ATOM     30  O   UNL     1      -5.201  -0.586 126.751  0.00  0.00    +0.000 OA
ATOM     31  C   UNL     1      -6.448  -1.069 124.901  0.00  0.00    +0.000 A 
ATOM     32  C   UNL     1      -7.264  -1.967 124.343  0.00  0.00    +0.000 A 
ATOM     33  O   UNL     1      -8.044  -2.862 125.052  0.00  0.00    +0.000 OA
BRANCH  32  34
ATOM     34  C   UNL     1      -7.207  -2.021 122.860  0.00  0.00    +0.000 C 
ATOM     35  O   UNL     1      -8.196  -1.996 122.142  0.00  0.00    +0.000 OA
BRANCH  34  36
ATOM     36  O   UNL     1      -5.955  -2.069 122.364  0.00  0.00    +0.000 OA
ATOM     37  H   UNL     1      -5.719  -1.312 121.797  0.00  0.00    +0.000 HD
ENDBRANCH  34  36
ENDBRANCH  32  34
ENDBRANCH  22  23
ENDBRANCH  21  22
ENDBRANCH   1  21
TORSDOF 11
ENDMDL
MODEL 5
REMARK VINA RESULT:      -7.6      5.155      9.216
REMARK  Name = Cromoglicic acid
REMARK  11 active torsions:
REMARK  status: ('A' for Active; 'I' for Inactive)
REMARK    1  A    between atoms: O_1  and  C_2
REMARK    2  A    between atoms: C_2  and  C_3
REMARK    3  A    between atoms: C_2  and  C_19
REMARK    4  A    between atoms: C_3  and  O_4
REMARK    5  A    between atoms: O_4  and  C_5
REMARK    6  A    between atoms: C_14  and  C_16
REMARK    7  A    between atoms: C_16  and  O_17
REMARK    8  A    between atoms: C_19  and  O_20
REMARK    9  A    between atoms: O_20  and  C_21
REMARK   10  A    between atoms: C_30  and  C_32
REMARK   11  A    between atoms: C_32  and  O_33
REMARK                            x       y       z     vdW  Elec       q    Type
REMARK                         _______ _______ _______ _____ _____    ______ ____
ROOT
ATOM      1  C   UNL     1     -10.246   0.934 123.164  0.00  0.00    +0.000 C 
ENDROOT
BRANCH   1   2
ATOM      2  O   UNL     1     -10.184   0.627 124.564  0.00  0.00    +0.000 OA
ATOM      3  H   UNL     1     -10.527  -0.283 124.647  0.00  0.00    +0.000 HD
ENDBRANCH   1   2
BRANCH   1   4
ATOM      4  C   UNL     1      -9.268   2.058 122.876  0.00  0.00    +0.000 C 
BRANCH   4   5
ATOM      5  O   UNL     1      -7.932   1.535 122.929  0.00  0.00    +0.000 OA
BRANCH   5   6
ATOM      6  C   UNL     1      -6.980   2.515 123.031  0.00  0.00    +0.000 A 
ATOM      7  C   UNL     1      -6.468   2.986 121.815  0.00  0.00    +0.000 A 
ATOM      8  C   UNL     1      -5.519   4.012 121.799  0.00  0.00    +0.000 A 
ATOM      9  C   UNL     1      -5.071   4.565 123.000  0.00  0.00    +0.000 A 
ATOM     10  C   UNL     1      -5.536   4.061 124.217  0.00  0.00    +0.000 A 
ATOM     11  C   UNL     1      -6.466   3.014 124.237  0.00  0.00    +0.000 A 
ATOM     12  C   UNL     1      -6.775   2.424 125.557  0.00  0.00    +0.000 A 
ATOM     13  O   UNL     1      -7.291   1.329 125.729  0.00  0.00    +0.000 OA
ATOM     14  C   UNL     1      -6.363   3.182 126.733  0.00  0.00    +0.000 A 
ATOM     15  C   UNL     1      -5.469   4.163 126.581  0.00  0.00    +0.000 A 
ATOM     16  O   UNL     1      -5.000   4.619 125.360  0.00  0.00    +0.000 OA
BRANCH  15  17
ATOM     17  C   UNL     1      -4.900   4.699 127.845  0.00  0.00    +0.000 C 
ATOM     18  O   UNL     1      -4.707   4.020 128.841  0.00  0.00    +0.000 OA
BRANCH  17  19
ATOM     19  O   UNL     1      -4.578   6.007 127.784  0.00  0.00    +0.000 OA
ATOM     20  H   UNL     1      -3.625   6.196 127.872  0.00  0.00    +0.000 HD
ENDBRANCH  17  19
ENDBRANCH  15  17
ENDBRANCH   5   6
ENDBRANCH   4   5
ENDBRANCH   1   4
BRANCH   1  21
ATOM     21  C   UNL     1      -9.828  -0.283 122.339  0.00  0.00    +0.000 C 
BRANCH  21  22
ATOM     22  O   UNL     1      -9.564  -1.403 123.201  0.00  0.00    +0.000 OA
BRANCH  22  23
ATOM     23  C   UNL     1      -8.254  -1.659 123.518  0.00  0.00    +0.000 A 
ATOM     24  C   UNL     1      -7.400  -1.832 122.410  0.00  0.00    +0.000 A 
ATOM     25  C   UNL     1      -6.051  -2.170 122.579  0.00  0.00    +0.000 A 
ATOM     26  C   UNL     1      -5.539  -2.352 123.862  0.00  0.00    +0.000 A 
ATOM     27  C   UNL     1      -6.380  -2.218 124.969  0.00  0.00    +0.000 A 
ATOM     28  C   UNL     1      -7.742  -1.889 124.805  0.00  0.00    +0.000 A 
ATOM     29  C   UNL     1      -8.569  -1.940 126.027  0.00  0.00    +0.000 A 
ATOM     30  O   UNL     1      -9.793  -2.033 126.057  0.00  0.00    +0.000 OA
ATOM     31  C   UNL     1      -7.881  -2.005 127.306  0.00  0.00    +0.000 A 
ATOM     32  C   UNL     1      -6.590  -2.342 127.326  0.00  0.00    +0.000 A 
ATOM     33  O   UNL     1      -5.802  -2.487 126.197  0.00  0.00    +0.000 OA
BRANCH  32  34
ATOM     34  C   UNL     1      -6.052  -2.666 128.671  0.00  0.00    +0.000 C 
ATOM     35  O   UNL     1      -6.751  -2.800 129.666  0.00  0.00    +0.000 OA
BRANCH  34  36
ATOM     36  O   UNL     1      -4.716  -2.833 128.699  0.00  0.00    +0.000 OA
ATOM     37  H   UNL     1      -4.267  -2.620 127.861  0.00  0.00    +0.000 HD
ENDBRANCH  34  36
ENDBRANCH  32  34
ENDBRANCH  22  23
ENDBRANCH  21  22
ENDBRANCH   1  21
TORSDOF 11
ENDMDL
MODEL 6
REMARK VINA RESULT:      -7.6      4.792      7.630
REMARK  Name = Cromoglicic acid
REMARK  11 active torsions:
REMARK  status: ('A' for Active; 'I' for Inactive)
REMARK    1  A    between atoms: O_1  and  C_2
REMARK    2  A    between atoms: C_2  and  C_3
REMARK    3  A    between atoms: C_2  and  C_19
REMARK    4  A    between atoms: C_3  and  O_4
REMARK    5  A    between atoms: O_4  and  C_5
REMARK    6  A    between atoms: C_14  and  C_16
REMARK    7  A    between atoms: C_16  and  O_17
REMARK    8  A    between atoms: C_19  and  O_20
REMARK    9  A    between atoms: O_20  and  C_21
REMARK   10  A    between atoms: C_30  and  C_32
REMARK   11  A    between atoms: C_32  and  O_33
REMARK                            x       y       z     vdW  Elec       q    Type
REMARK                         _______ _______ _______ _____ _____    ______ ____
ROOT
ATOM      1  C   UNL     1      -6.921   1.254 129.615  0.00  0.00    +0.000 C 
ENDROOT
BRANCH   1   2
ATOM      2  O   UNL     1      -6.872   2.058 130.803  0.00  0.00    +0.000 OA
ATOM      3  H   UNL     1      -6.235   2.771 130.609  0.00  0.00    +0.000 HD
ENDBRANCH   1   2
BRANCH   1   4
ATOM      4  C   UNL     1      -7.424  -0.127 129.992  0.00  0.00    +0.000 C 
BRANCH   4   5
ATOM      5  O   UNL     1      -6.590  -1.112 129.362  0.00  0.00    +0.000 OA
BRANCH   5   6
ATOM      6  C   UNL     1      -7.288  -1.945 128.527  0.00  0.00    +0.000 A 
ATOM      7  C   UNL     1      -8.102  -2.892 129.164  0.00  0.00    +0.000 A 
ATOM      8  C   UNL     1      -8.886  -3.768 128.410  0.00  0.00    +0.000 A 
ATOM      9  C   UNL     1      -8.854  -3.708 127.016  0.00  0.00    +0.000 A 
ATOM     10  C   UNL     1      -8.003  -2.804 126.375  0.00  0.00    +0.000 A 
ATOM     11  C   UNL     1      -7.193  -1.944 127.128  0.00  0.00    +0.000 A 
ATOM     12  C   UNL     1      -6.199  -1.144 126.381  0.00  0.00    +0.000 A 
ATOM     13  O   UNL     1      -5.221  -0.605 126.879  0.00  0.00    +0.000 OA
ATOM     14  C   UNL     1      -6.369  -1.060 124.935  0.00  0.00    +0.000 A 
ATOM     15  C   UNL     1      -7.174  -1.939 124.333  0.00  0.00    +0.000 A 
ATOM     16  O   UNL     1      -7.983  -2.848 124.995  0.00  0.00    +0.000 OA
BRANCH  15  17
ATOM     17  C   UNL     1      -7.082  -1.966 122.850  0.00  0.00    +0.000 C 
ATOM     18  O   UNL     1      -6.027  -1.954 122.237  0.00  0.00    +0.000 OA
BRANCH  17  19
ATOM     19  O   UNL     1      -8.280  -2.041 122.233  0.00  0.00    +0.000 OA
ATOM     20  H   UNL     1      -9.049  -1.957 122.828  0.00  0.00    +0.000 HD
ENDBRANCH  17  19
ENDBRANCH  15  17
ENDBRANCH   5   6
ENDBRANCH   4   5
ENDBRANCH   1   4
BRANCH   1  21
ATOM     21  C   UNL     1      -7.902   1.859 128.610  0.00  0.00    +0.000 C 
BRANCH  21  22
ATOM     22  O   UNL     1      -7.214   2.229 127.403  0.00  0.00    +0.000 OA
BRANCH  22  23
ATOM     23  C   UNL     1      -7.875   2.035 126.217  0.00  0.00    +0.000 A 
ATOM     24  C   UNL     1      -9.000   1.189 126.297  0.00  0.00    +0.000 A 
ATOM     25  C   UNL     1      -9.731   0.843 125.154  0.00  0.00    +0.000 A 
ATOM     26  C   UNL     1      -9.338   1.328 123.908  0.00  0.00    +0.000 A 
ATOM     27  C   UNL     1      -8.205   2.139 123.807  0.00  0.00    +0.000 A 
ATOM     28  C   UNL     1      -7.459   2.483 124.952  0.00  0.00    +0.000 A 
ATOM     29  C   UNL     1      -6.192   3.201 124.705  0.00  0.00    +0.000 A 
ATOM     30  O   UNL     1      -5.253   3.284 125.492  0.00  0.00    +0.000 OA
ATOM     31  C   UNL     1      -5.981   3.761 123.381  0.00  0.00    +0.000 A 
ATOM     32  C   UNL     1      -6.750   3.340 122.374  0.00  0.00    +0.000 A 
ATOM     33  O   UNL     1      -7.850   2.515 122.523  0.00  0.00    +0.000 OA
BRANCH  32  34
ATOM     34  C   UNL     1      -6.279   3.739 121.023  0.00  0.00    +0.000 C 
ATOM     35  O   UNL     1      -7.023   4.120 120.131  0.00  0.00    +0.000 OA
BRANCH  34  36
ATOM     36  O   UNL     1      -4.942   3.676 120.872  0.00  0.00    +0.000 OA
ATOM     37  H   UNL     1      -4.646   3.603 119.946  0.00  0.00    +0.000 HD
ENDBRANCH  34  36
ENDBRANCH  32  34
ENDBRANCH  22  23
ENDBRANCH  21  22
ENDBRANCH   1  21
TORSDOF 11
ENDMDL
MODEL 7
REMARK VINA RESULT:      -7.5      1.970      6.116
REMARK  Name = Cromoglicic acid
REMARK  11 active torsions:
REMARK  status: ('A' for Active; 'I' for Inactive)
REMARK    1  A    between atoms: O_1  and  C_2
REMARK    2  A    between atoms: C_2  and  C_3
REMARK    3  A    between atoms: C_2  and  C_19
REMARK    4  A    between atoms: C_3  and  O_4
REMARK    5  A    between atoms: O_4  and  C_5
REMARK    6  A    between atoms: C_14  and  C_16
REMARK    7  A    between atoms: C_16  and  O_17
REMARK    8  A    between atoms: C_19  and  O_20
REMARK    9  A    between atoms: O_20  and  C_21
REMARK   10  A    between atoms: C_30  and  C_32
REMARK   11  A    between atoms: C_32  and  O_33
REMARK                            x       y       z     vdW  Elec       q    Type
REMARK                         _______ _______ _______ _____ _____    ______ ____
ROOT
ATOM      1  C   UNL     1      -5.159   5.128 132.249  0.00  0.00    +0.000 C 
ENDROOT
BRANCH   1   2
ATOM      2  O   UNL     1      -5.560   6.494 132.073  0.00  0.00    +0.000 OA
ATOM      3  H   UNL     1      -4.730   7.003 132.008  0.00  0.00    +0.000 HD
ENDBRANCH   1   2
BRANCH   1   4
ATOM      4  C   UNL     1      -6.407   4.268 132.319  0.00  0.00    +0.000 C 
BRANCH   4   5
ATOM      5  O   UNL     1      -7.554   5.122 132.449  0.00  0.00    +0.000 OA
BRANCH   5   6
ATOM      6  C   UNL     1      -8.639   4.669 131.747  0.00  0.00    +0.000 A 
ATOM      7  C   UNL     1      -8.946   3.312 131.923  0.00  0.00    +0.000 A 
ATOM      8  C   UNL     1     -10.054   2.751 131.284  0.00  0.00    +0.000 A 
ATOM      9  C   UNL     1     -10.856   3.542 130.459  0.00  0.00    +0.000 A 
ATOM     10  C   UNL     1     -10.523   4.879 130.235  0.00  0.00    +0.000 A 
ATOM     11  C   UNL     1      -9.396   5.437 130.851  0.00  0.00    +0.000 A 
ATOM     12  C   UNL     1      -9.015   6.802 130.429  0.00  0.00    +0.000 A 
ATOM     13  O   UNL     1      -7.915   7.306 130.606  0.00  0.00    +0.000 OA
ATOM     14  C   UNL     1     -10.008   7.566 129.683  0.00  0.00    +0.000 A 
ATOM     15  C   UNL     1     -11.044   6.916 129.145  0.00  0.00    +0.000 A 
ATOM     16  O   UNL     1     -11.330   5.577 129.358  0.00  0.00    +0.000 OA
BRANCH  15  17
ATOM     17  C   UNL     1     -11.854   7.706 128.182  0.00  0.00    +0.000 C 
ATOM     18  O   UNL     1     -12.569   7.206 127.329  0.00  0.00    +0.000 OA
BRANCH  17  19
ATOM     19  O   UNL     1     -11.755   9.040 128.356  0.00  0.00    +0.000 OA
ATOM     20  H   UNL     1     -10.928   9.434 128.022  0.00  0.00    +0.000 HD
ENDBRANCH  17  19
ENDBRANCH  15  17
ENDBRANCH   5   6
ENDBRANCH   4   5
ENDBRANCH   1   4
BRANCH   1  21
ATOM     21  C   UNL     1      -4.328   4.664 131.053  0.00  0.00    +0.000 C 
BRANCH  21  22
ATOM     22  O   UNL     1      -5.170   4.477 129.903  0.00  0.00    +0.000 OA
BRANCH  22  23
ATOM     23  C   UNL     1      -4.558   4.151 128.719  0.00  0.00    +0.000 A 
ATOM     24  C   UNL     1      -3.149   4.155 128.762  0.00  0.00    +0.000 A 
ATOM     25  C   UNL     1      -2.388   3.912 127.611  0.00  0.00    +0.000 A 
ATOM     26  C   UNL     1      -3.027   3.674 126.396  0.00  0.00    +0.000 A 
ATOM     27  C   UNL     1      -4.423   3.701 126.331  0.00  0.00    +0.000 A 
ATOM     28  C   UNL     1      -5.194   3.955 127.483  0.00  0.00    +0.000 A 
ATOM     29  C   UNL     1      -6.644   4.127 127.262  0.00  0.00    +0.000 A 
ATOM     30  O   UNL     1      -7.423   4.680 128.034  0.00  0.00    +0.000 OA
ATOM     31  C   UNL     1      -7.186   3.714 125.978  0.00  0.00    +0.000 A 
ATOM     32  C   UNL     1      -6.346   3.518 124.959  0.00  0.00    +0.000 A 
ATOM     33  O   UNL     1      -4.967   3.525 125.070  0.00  0.00    +0.000 OA
BRANCH  32  34
ATOM     34  C   UNL     1      -6.998   3.388 123.632  0.00  0.00    +0.000 C 
ATOM     35  O   UNL     1      -6.438   2.938 122.643  0.00  0.00    +0.000 OA
BRANCH  34  36
ATOM     36  O   UNL     1      -8.286   3.782 123.617  0.00  0.00    +0.000 OA
ATOM     37  H   UNL     1      -8.644   4.019 124.492  0.00  0.00    +0.000 HD
ENDBRANCH  34  36
ENDBRANCH  32  34
ENDBRANCH  22  23
ENDBRANCH  21  22
ENDBRANCH   1  21
TORSDOF 11
ENDMDL
MODEL 8
REMARK VINA RESULT:      -7.5      4.607      8.269
REMARK  Name = Cromoglicic acid
REMARK  11 active torsions:
REMARK  status: ('A' for Active; 'I' for Inactive)
REMARK    1  A    between atoms: O_1  and  C_2
REMARK    2  A    between atoms: C_2  and  C_3
REMARK    3  A    between atoms: C_2  and  C_19
REMARK    4  A    between atoms: C_3  and  O_4
REMARK    5  A    between atoms: O_4  and  C_5
REMARK    6  A    between atoms: C_14  and  C_16
REMARK    7  A    between atoms: C_16  and  O_17
REMARK    8  A    between atoms: C_19  and  O_20
REMARK    9  A    between atoms: O_20  and  C_21
REMARK   10  A    between atoms: C_30  and  C_32
REMARK   11  A    between atoms: C_32  and  O_33
REMARK                            x       y       z     vdW  Elec       q    Type
REMARK                         _______ _______ _______ _____ _____    ______ ____
ROOT
ATOM      1  C   UNL     1      -4.537   0.799 129.256  0.00  0.00    +0.000 C 
ENDROOT
BRANCH   1   2
ATOM      2  O   UNL     1      -4.613   0.864 127.825  0.00  0.00    +0.000 OA
ATOM      3  H   UNL     1      -4.448  -0.045 127.514  0.00  0.00    +0.000 HD
ENDBRANCH   1   2
BRANCH   1   4
ATOM      4  C   UNL     1      -5.574   1.744 129.835  0.00  0.00    +0.000 C 
BRANCH   4   5
ATOM      5  O   UNL     1      -6.838   1.488 129.203  0.00  0.00    +0.000 OA
BRANCH   5   6
ATOM      6  C   UNL     1      -7.896   1.592 130.066  0.00  0.00    +0.000 A 
ATOM      7  C   UNL     1      -8.213   0.424 130.773  0.00  0.00    +0.000 A 
ATOM      8  C   UNL     1      -9.251   0.426 131.709  0.00  0.00    +0.000 A 
ATOM      9  C   UNL     1      -9.982   1.593 131.936  0.00  0.00    +0.000 A 
ATOM     10  C   UNL     1      -9.708   2.744 131.194  0.00  0.00    +0.000 A 
ATOM     11  C   UNL     1      -8.687   2.738 130.235  0.00  0.00    +0.000 A 
ATOM     12  C   UNL     1      -8.575   3.936 129.376  0.00  0.00    +0.000 A 
ATOM     13  O   UNL     1      -7.981   3.976 128.307  0.00  0.00    +0.000 OA
ATOM     14  C   UNL     1      -9.290   5.131 129.809  0.00  0.00    +0.000 A 
ATOM     15  C   UNL     1     -10.242   5.005 130.737  0.00  0.00    +0.000 A 
ATOM     16  O   UNL     1     -10.515   3.839 131.434  0.00  0.00    +0.000 OA
BRANCH  15  17
ATOM     17  C   UNL     1     -11.103   6.202 130.924  0.00  0.00    +0.000 C 
ATOM     18  O   UNL     1     -11.029   7.204 130.230  0.00  0.00    +0.000 OA
BRANCH  17  19
ATOM     19  O   UNL     1     -12.006   6.071 131.917  0.00  0.00    +0.000 OA
ATOM     20  H   UNL     1     -12.861   5.690 131.641  0.00  0.00    +0.000 HD
ENDBRANCH  17  19
ENDBRANCH  15  17
ENDBRANCH   5   6
ENDBRANCH   4   5
ENDBRANCH   1   4
BRANCH   1  21
ATOM     21  C   UNL     1      -4.862  -0.616 129.737  0.00  0.00    +0.000 C 
BRANCH  21  22
ATOM     22  O   UNL     1      -5.030  -1.497 128.614  0.00  0.00    +0.000 OA
BRANCH  22  23
ATOM     23  C   UNL     1      -6.260  -2.082 128.451  0.00  0.00    +0.000 A 
ATOM     24  C   UNL     1      -6.705  -2.842 129.552  0.00  0.00    +0.000 A 
ATOM     25  C   UNL     1      -7.910  -3.555 129.502  0.00  0.00    +0.000 A 
ATOM     26  C   UNL     1      -8.682  -3.528 128.343  0.00  0.00    +0.000 A 
ATOM     27  C   UNL     1      -8.239  -2.808 127.231  0.00  0.00    +0.000 A 
ATOM     28  C   UNL     1      -7.022  -2.097 127.271  0.00  0.00    +0.000 A 
ATOM     29  C   UNL     1      -6.574  -1.515 125.990  0.00  0.00    +0.000 A 
ATOM     30  O   UNL     1      -5.424  -1.173 125.724  0.00  0.00    +0.000 OA
ATOM     31  C   UNL     1      -7.539  -1.443 124.906  0.00  0.00    +0.000 A 
ATOM     32  C   UNL     1      -8.650  -2.179 124.984  0.00  0.00    +0.000 A 
ATOM     33  O   UNL     1      -9.035  -2.897 126.102  0.00  0.00    +0.000 OA
BRANCH  32  34
ATOM     34  C   UNL     1      -9.426  -2.270 123.721  0.00  0.00    +0.000 C 
ATOM     35  O   UNL     1      -9.486  -1.369 122.897  0.00  0.00    +0.000 OA
BRANCH  34  36
ATOM     36  O   UNL     1     -10.039  -3.456 123.543  0.00  0.00    +0.000 OA
ATOM     37  H   UNL     1      -9.431  -4.209 123.427  0.00  0.00    +0.000 HD
ENDBRANCH  34  36
ENDBRANCH  32  34
ENDBRANCH  22  23
ENDBRANCH  21  22
ENDBRANCH   1  21
TORSDOF 11
ENDMDL
MODEL 9
REMARK VINA RESULT:      -7.5      4.188      8.183
REMARK  Name = Cromoglicic acid
REMARK  11 active torsions:
REMARK  status: ('A' for Active; 'I' for Inactive)
REMARK    1  A    between atoms: O_1  and  C_2
REMARK    2  A    between atoms: C_2  and  C_3
REMARK    3  A    between atoms: C_2  and  C_19
REMARK    4  A    between atoms: C_3  and  O_4
REMARK    5  A    between atoms: O_4  and  C_5
REMARK    6  A    between atoms: C_14  and  C_16
REMARK    7  A    between atoms: C_16  and  O_17
REMARK    8  A    between atoms: C_19  and  O_20
REMARK    9  A    between atoms: O_20  and  C_21
REMARK   10  A    between atoms: C_30  and  C_32
REMARK   11  A    between atoms: C_32  and  O_33
REMARK                            x       y       z     vdW  Elec       q    Type
REMARK                         _______ _______ _______ _____ _____    ______ ____
ROOT
ATOM      1  C   UNL     1      -6.969   2.677 129.527  0.00  0.00    +0.000 C 
ENDROOT
BRANCH   1   2
ATOM      2  O   UNL     1      -6.107   2.670 128.380  0.00  0.00    +0.000 OA
ATOM      3  H   UNL     1      -5.200   2.718 128.736  0.00  0.00    +0.000 HD
ENDBRANCH   1   2
BRANCH   1   4
ATOM      4  C   UNL     1      -8.232   3.440 129.171  0.00  0.00    +0.000 C 
BRANCH   4   5
ATOM      5  O   UNL     1      -8.037   4.830 129.475  0.00  0.00    +0.000 OA
BRANCH   5   6
ATOM      6  C   UNL     1      -9.019   5.343 130.279  0.00  0.00    +0.000 A 
ATOM      7  C   UNL     1      -9.053   4.837 131.586  0.00  0.00    +0.000 A 
ATOM      8  C   UNL     1      -9.990   5.316 132.504  0.00  0.00    +0.000 A 
ATOM      9  C   UNL     1     -10.905   6.298 132.118  0.00  0.00    +0.000 A 
ATOM     10  C   UNL     1     -10.913   6.765 130.801  0.00  0.00    +0.000 A 
ATOM     11  C   UNL     1      -9.993   6.265 129.871  0.00  0.00    +0.000 A 
ATOM     12  C   UNL     1     -10.178   6.681 128.464  0.00  0.00    +0.000 A 
ATOM     13  O   UNL     1      -9.694   6.109 127.498  0.00  0.00    +0.000 OA
ATOM     14  C   UNL     1     -11.064   7.813 128.219  0.00  0.00    +0.000 A 
ATOM     15  C   UNL     1     -11.895   8.197 129.192  0.00  0.00    +0.000 A 
ATOM     16  O   UNL     1     -11.887   7.690 130.482  0.00  0.00    +0.000 OA
BRANCH  15  17
ATOM     17  C   UNL     1     -12.945   9.165 128.780  0.00  0.00    +0.000 C 
ATOM     18  O   UNL     1     -13.887   8.875 128.059  0.00  0.00    +0.000 OA
BRANCH  17  19
ATOM     19  O   UNL     1     -12.784  10.397 129.305  0.00  0.00    +0.000 OA
ATOM     20  H   UNL     1     -13.555  10.732 129.799  0.00  0.00    +0.000 HD
ENDBRANCH  17  19
ENDBRANCH  15  17
ENDBRANCH   5   6
ENDBRANCH   4   5
ENDBRANCH   1   4
BRANCH   1  21
ATOM     21  C   UNL     1      -7.365   1.248 129.897  0.00  0.00    +0.000 C 
BRANCH  21  22
ATOM     22  O   UNL     1      -6.659   0.305 129.073  0.00  0.00    +0.000 OA
BRANCH  22  23
ATOM     23  C   UNL     1      -7.314  -0.854 128.739  0.00  0.00    +0.000 A 
ATOM     24  C   UNL     1      -7.436  -1.787 129.788  0.00  0.00    +0.000 A 
ATOM     25  C   UNL     1      -8.018  -3.044 129.577  0.00  0.00    +0.000 A 
ATOM     26  C   UNL     1      -8.473  -3.391 128.307  0.00  0.00    +0.000 A 
ATOM     27  C   UNL     1      -8.327  -2.490 127.248  0.00  0.00    +0.000 A 
ATOM     28  C   UNL     1      -7.733  -1.228 127.452  0.00  0.00    +0.000 A 
ATOM     29  C   UNL     1      -7.480  -0.432 126.235  0.00  0.00    +0.000 A 
ATOM     30  O   UNL     1      -6.687   0.502 126.145  0.00  0.00    +0.000 OA
ATOM     31  C   UNL     1      -8.129  -0.852 125.005  0.00  0.00    +0.000 A 
ATOM     32  C   UNL     1      -8.642  -2.083 124.936  0.00  0.00    +0.000 A 
ATOM     33  O   UNL     1      -8.743  -2.949 126.010  0.00  0.00    +0.000 OA
BRANCH  32  34
ATOM     34  C   UNL     1      -9.018  -2.524 123.569  0.00  0.00    +0.000 C 
ATOM     35  O   UNL     1      -8.388  -2.229 122.564  0.00  0.00    +0.000 OA
BRANCH  34  36
ATOM     36  O   UNL     1     -10.108  -3.314 123.532  0.00  0.00    +0.000 OA
ATOM     37  H   UNL     1      -9.955  -4.224 123.847  0.00  0.00    +0.000 HD
ENDBRANCH  34  36
ENDBRANCH  32  34
ENDBRANCH  22  23
ENDBRANCH  21  22
ENDBRANCH   1  21
TORSDOF 11
ENDMDL
