MODEL 1
REMARK VINA RESULT:      -6.1      0.000      0.000
REMARK  Name = Crotamiton
REMARK  6 active torsions:
REMARK  status: ('A' for Active; 'I' for Inactive)
REMARK    1  A    between atoms: C_1  and  C_2
REMARK    2  A    between atoms: C_2  and  N_3
REMARK    3  A    between atoms: N_3  and  C_9
REMARK    4  A    between atoms: C_4  and  C_6
REMARK    5  A    between atoms: C_7  and  C_8
REMARK    6  A    between atoms: C_14  and  C_15
REMARK                            x       y       z     vdW  Elec       q    Type
REMARK                         _______ _______ _______ _____ _____    ______ ____
ROOT
ATOM      1  N   UNL     1     -10.156   5.883 130.744  0.00  0.00    +0.000 N 
ATOM      2  C   UNL     1     -10.568   4.526 130.685  0.00  0.00    +0.000 C 
ATOM      3  O   UNL     1     -11.465   4.113 129.933  0.00  0.00    +0.000 OA
ENDROOT
BRANCH   1   4
ATOM      4  C   UNL     1     -10.878   6.858 129.903  0.00  0.00    +0.000 A 
ATOM      5  C   UNL     1     -10.351   7.193 128.638  0.00  0.00    +0.000 A 
ATOM      6  C   UNL     1     -10.961   8.139 127.800  0.00  0.00    +0.000 A 
ATOM      7  C   UNL     1     -12.124   8.776 128.200  0.00  0.00    +0.000 A 
ATOM      8  C   UNL     1     -12.682   8.457 129.431  0.00  0.00    +0.000 A 
ATOM      9  C   UNL     1     -12.084   7.504 130.290  0.00  0.00    +0.000 A 
ATOM     10  C   UNL     1     -12.767   7.322 131.616  0.00  0.00    +0.000 C 
ENDBRANCH   1   4
BRANCH   2  11
ATOM     11  C   UNL     1      -9.889   3.480 131.505  0.00  0.00    +0.000 C 
ATOM     12  C   UNL     1      -9.478   2.256 131.145  0.00  0.00    +0.000 C 
ATOM     13  C   UNL     1      -8.794   1.376 132.160  0.00  0.00    +0.000 C 
ENDBRANCH   2  11
BRANCH   1  15
ATOM     14  C   UNL     1      -7.720   6.727 131.110  0.00  0.00    +0.000 C 
ATOM     15  C   UNL     1      -9.116   6.498 131.622  0.00  0.00    +0.000 C 
ENDBRANCH   1  15
TORSDOF 3
ENDMDL
MODEL 2
REMARK VINA RESULT:      -6.1      8.668     10.051
REMARK  Name = Crotamiton
REMARK  6 active torsions:
REMARK  status: ('A' for Active; 'I' for Inactive)
REMARK    1  A    between atoms: C_1  and  C_2
REMARK    2  A    between atoms: C_2  and  N_3
REMARK    3  A    between atoms: N_3  and  C_9
REMARK    4  A    between atoms: C_4  and  C_6
REMARK    5  A    between atoms: C_7  and  C_8
REMARK    6  A    between atoms: C_14  and  C_15
REMARK                            x       y       z     vdW  Elec       q    Type
REMARK                         _______ _______ _______ _____ _____    ______ ____
ROOT
ATOM      1  N   UNL     1      -7.199  -1.140 123.732  0.00  0.00    +0.000 N 
ATOM      2  C   UNL     1      -6.041  -1.546 124.443  0.00  0.00    +0.000 C 
ATOM      3  O   UNL     1      -5.424  -0.811 125.230  0.00  0.00    +0.000 OA
ENDROOT
BRANCH   1   4
ATOM      4  C   UNL     1      -7.655   0.255 123.901  0.00  0.00    +0.000 A 
ATOM      5  C   UNL     1      -7.094   1.261 123.087  0.00  0.00    +0.000 A 
ATOM      6  C   UNL     1      -7.449   2.613 123.216  0.00  0.00    +0.000 A 
ATOM      7  C   UNL     1      -8.384   2.999 124.163  0.00  0.00    +0.000 A 
ATOM      8  C   UNL     1      -8.970   2.033 124.970  0.00  0.00    +0.000 A 
ATOM      9  C   UNL     1      -8.627   0.665 124.854  0.00  0.00    +0.000 A 
ATOM     10  C   UNL     1      -9.294  -0.247 125.845  0.00  0.00    +0.000 C 
ENDBRANCH   1   4
BRANCH   2  11
ATOM     11  C   UNL     1      -5.516  -2.939 124.325  0.00  0.00    +0.000 C 
ATOM     12  C   UNL     1      -4.643  -3.444 123.443  0.00  0.00    +0.000 C 
ATOM     13  C   UNL     1      -4.251  -4.897 123.537  0.00  0.00    +0.000 C 
ENDBRANCH   2  11
BRANCH   1  15
ATOM     14  C   UNL     1      -9.060  -2.884 123.211  0.00  0.00    +0.000 C 
ATOM     15  C   UNL     1      -8.004  -1.920 122.745  0.00  0.00    +0.000 C 
ENDBRANCH   1  15
TORSDOF 3
ENDMDL
MODEL 3
REMARK VINA RESULT:      -5.9      8.125     10.421
REMARK  Name = Crotamiton
REMARK  6 active torsions:
REMARK  status: ('A' for Active; 'I' for Inactive)
REMARK    1  A    between atoms: C_1  and  C_2
REMARK    2  A    between atoms: C_2  and  N_3
REMARK    3  A    between atoms: N_3  and  C_9
REMARK    4  A    between atoms: C_4  and  C_6
REMARK    5  A    between atoms: C_7  and  C_8
REMARK    6  A    between atoms: C_14  and  C_15
REMARK                            x       y       z     vdW  Elec       q    Type
REMARK                         _______ _______ _______ _____ _____    ______ ____
ROOT
ATOM      1  N   UNL     1      -7.740  -0.789 124.933  0.00  0.00    +0.000 N 
ATOM      2  C   UNL     1      -8.748   0.128 124.536  0.00  0.00    +0.000 C 
ATOM      3  O   UNL     1      -9.844   0.234 125.107  0.00  0.00    +0.000 OA
ENDROOT
BRANCH   1   4
ATOM      4  C   UNL     1      -8.045  -1.701 126.054  0.00  0.00    +0.000 A 
ATOM      5  C   UNL     1      -7.602  -1.365 127.350  0.00  0.00    +0.000 A 
ATOM      6  C   UNL     1      -7.821  -2.200 128.457  0.00  0.00    +0.000 A 
ATOM      7  C   UNL     1      -8.498  -3.399 128.300  0.00  0.00    +0.000 A 
ATOM      8  C   UNL     1      -8.964  -3.754 127.041  0.00  0.00    +0.000 A 
ATOM      9  C   UNL     1      -8.756  -2.924 125.913  0.00  0.00    +0.000 A 
ATOM     10  C   UNL     1      -9.257  -3.480 124.610  0.00  0.00    +0.000 C 
ENDBRANCH   1   4
BRANCH   2  11
ATOM     11  C   UNL     1      -8.517   1.083 123.412  0.00  0.00    +0.000 C 
ATOM     12  C   UNL     1      -9.050   2.296 123.208  0.00  0.00    +0.000 C 
ATOM     13  C   UNL     1      -8.645   3.088 121.991  0.00  0.00    +0.000 C 
ENDBRANCH   2  11
BRANCH   1  15
ATOM     14  C   UNL     1      -6.276  -1.854 123.063  0.00  0.00    +0.000 C 
ATOM     15  C   UNL     1      -6.403  -1.025 124.311  0.00  0.00    +0.000 C 
ENDBRANCH   1  15
TORSDOF 3
ENDMDL
MODEL 4
REMARK VINA RESULT:      -5.7      1.823      3.022
REMARK  Name = Crotamiton
REMARK  6 active torsions:
REMARK  status: ('A' for Active; 'I' for Inactive)
REMARK    1  A    between atoms: C_1  and  C_2
REMARK    2  A    between atoms: C_2  and  N_3
REMARK    3  A    between atoms: N_3  and  C_9
REMARK    4  A    between atoms: C_4  and  C_6
REMARK    5  A    between atoms: C_7  and  C_8
REMARK    6  A    between atoms: C_14  and  C_15
REMARK                            x       y       z     vdW  Elec       q    Type
REMARK                         _______ _______ _______ _____ _____    ______ ____
ROOT
ATOM      1  N   UNL     1     -10.174   6.301 130.447  0.00  0.00    +0.000 N 
ATOM      2  C   UNL     1      -8.940   6.998 130.502  0.00  0.00    +0.000 C 
ATOM      3  O   UNL     1      -8.707   8.034 129.860  0.00  0.00    +0.000 OA
ENDROOT
BRANCH   1   4
ATOM      4  C   UNL     1     -11.212   6.812 129.529  0.00  0.00    +0.000 A 
ATOM      5  C   UNL     1     -10.979   6.763 128.138  0.00  0.00    +0.000 A 
ATOM      6  C   UNL     1     -11.902   7.265 127.207  0.00  0.00    +0.000 A 
ATOM      7  C   UNL     1     -13.092   7.827 127.640  0.00  0.00    +0.000 A 
ATOM      8  C   UNL     1     -13.362   7.875 129.001  0.00  0.00    +0.000 A 
ATOM      9  C   UNL     1     -12.446   7.373 129.956  0.00  0.00    +0.000 A 
ATOM     10  C   UNL     1     -12.850   7.563 131.391  0.00  0.00    +0.000 C 
ENDBRANCH   1   4
BRANCH   2  11
ATOM     11  C   UNL     1      -7.840   6.544 131.404  0.00  0.00    +0.000 C 
ATOM     12  C   UNL     1      -6.520   6.749 131.301  0.00  0.00    +0.000 C 
ATOM     13  C   UNL     1      -5.599   6.197 132.359  0.00  0.00    +0.000 C 
ENDBRANCH   2  11
BRANCH   1  15
ATOM     14  C   UNL     1     -10.616   3.735 130.397  0.00  0.00    +0.000 C 
ATOM     15  C   UNL     1     -10.558   5.038 131.146  0.00  0.00    +0.000 C 
ENDBRANCH   1  15
TORSDOF 3
ENDMDL
MODEL 5
REMARK VINA RESULT:      -5.4      8.365      9.071
REMARK  Name = Crotamiton
REMARK  6 active torsions:
REMARK  status: ('A' for Active; 'I' for Inactive)
REMARK    1  A    between atoms: C_1  and  C_2
REMARK    2  A    between atoms: C_2  and  N_3
REMARK    3  A    between atoms: N_3  and  C_9
REMARK    4  A    between atoms: C_4  and  C_6
REMARK    5  A    between atoms: C_7  and  C_8
REMARK    6  A    between atoms: C_14  and  C_15
REMARK                            x       y       z     vdW  Elec       q    Type
REMARK                         _______ _______ _______ _____ _____    ______ ____
ROOT
ATOM      1  N   UNL     1      -8.159  -0.726 124.328  0.00  0.00    +0.000 N 
ATOM      2  C   UNL     1      -8.797  -0.862 125.588  0.00  0.00    +0.000 C 
ATOM      3  O   UNL     1      -9.276   0.092 126.222  0.00  0.00    +0.000 OA
ENDROOT
BRANCH   1   4
ATOM      4  C   UNL     1      -8.011   0.636 123.776  0.00  0.00    +0.000 A 
ATOM      5  C   UNL     1      -6.850   1.376 124.083  0.00  0.00    +0.000 A 
ATOM      6  C   UNL     1      -6.657   2.689 123.627  0.00  0.00    +0.000 A 
ATOM      7  C   UNL     1      -7.620   3.302 122.841  0.00  0.00    +0.000 A 
ATOM      8  C   UNL     1      -8.768   2.596 122.504  0.00  0.00    +0.000 A 
ATOM      9  C   UNL     1      -8.981   1.270 122.952  0.00  0.00    +0.000 A 
ATOM     10  C   UNL     1     -10.301   0.668 122.563  0.00  0.00    +0.000 C 
ENDBRANCH   1   4
BRANCH   2  11
ATOM     11  C   UNL     1      -8.985  -2.204 126.213  0.00  0.00    +0.000 C 
ATOM     12  C   UNL     1      -8.462  -2.692 127.347  0.00  0.00    +0.000 C 
ATOM     13  C   UNL     1      -8.817  -4.090 127.785  0.00  0.00    +0.000 C 
ENDBRANCH   2  11
BRANCH   1  15
ATOM     14  C   UNL     1      -6.131  -2.268 123.790  0.00  0.00    +0.000 C 
ATOM     15  C   UNL     1      -7.525  -1.787 123.490  0.00  0.00    +0.000 C 
ENDBRANCH   1  15
TORSDOF 3
ENDMDL
MODEL 6
REMARK VINA RESULT:      -5.4      2.241      5.529
REMARK  Name = Crotamiton
REMARK  6 active torsions:
REMARK  status: ('A' for Active; 'I' for Inactive)
REMARK    1  A    between atoms: C_1  and  C_2
REMARK    2  A    between atoms: C_2  and  N_3
REMARK    3  A    between atoms: N_3  and  C_9
REMARK    4  A    between atoms: C_4  and  C_6
REMARK    5  A    between atoms: C_7  and  C_8
REMARK    6  A    between atoms: C_14  and  C_15
REMARK                            x       y       z     vdW  Elec       q    Type
REMARK                         _______ _______ _______ _____ _____    ______ ____
ROOT
ATOM      1  N   UNL     1      -9.890   4.999 131.206  0.00  0.00    +0.000 N 
ATOM      2  C   UNL     1     -10.946   5.946 131.244  0.00  0.00    +0.000 C 
ATOM      3  O   UNL     1     -11.077   6.794 132.140  0.00  0.00    +0.000 OA
ENDROOT
BRANCH   1   4
ATOM      4  C   UNL     1      -8.931   4.995 132.328  0.00  0.00    +0.000 A 
ATOM      5  C   UNL     1      -9.187   4.170 133.444  0.00  0.00    +0.000 A 
ATOM      6  C   UNL     1      -8.342   4.141 134.564  0.00  0.00    +0.000 A 
ATOM      7  C   UNL     1      -7.207   4.935 134.600  0.00  0.00    +0.000 A 
ATOM      8  C   UNL     1      -6.914   5.747 133.511  0.00  0.00    +0.000 A 
ATOM      9  C   UNL     1      -7.752   5.788 132.372  0.00  0.00    +0.000 A 
ATOM     10  C   UNL     1      -7.338   6.767 131.310  0.00  0.00    +0.000 C 
ENDBRANCH   1   4
BRANCH   2  11
ATOM     11  C   UNL     1     -11.957   6.014 130.147  0.00  0.00    +0.000 C 
ATOM     12  C   UNL     1     -12.490   7.090 129.552  0.00  0.00    +0.000 C 
ATOM     13  C   UNL     1     -13.494   6.902 128.442  0.00  0.00    +0.000 C 
ENDBRANCH   2  11
BRANCH   1  15
ATOM     14  C   UNL     1      -8.524   4.040 129.207  0.00  0.00    +0.000 C 
ATOM     15  C   UNL     1      -9.646   3.920 130.202  0.00  0.00    +0.000 C 
ENDBRANCH   1  15
TORSDOF 3
ENDMDL
MODEL 7
REMARK VINA RESULT:      -5.4      7.897     10.408
REMARK  Name = Crotamiton
REMARK  6 active torsions:
REMARK  status: ('A' for Active; 'I' for Inactive)
REMARK    1  A    between atoms: C_1  and  C_2
REMARK    2  A    between atoms: C_2  and  N_3
REMARK    3  A    between atoms: N_3  and  C_9
REMARK    4  A    between atoms: C_4  and  C_6
REMARK    5  A    between atoms: C_7  and  C_8
REMARK    6  A    between atoms: C_14  and  C_15
REMARK                            x       y       z     vdW  Elec       q    Type
REMARK                         _______ _______ _______ _____ _____    ______ ____
ROOT
ATOM      1  N   UNL     1      -8.200   0.417 124.321  0.00  0.00    +0.000 N 
ATOM      2  C   UNL     1      -7.001   1.067 124.712  0.00  0.00    +0.000 C 
ATOM      3  O   UNL     1      -6.036   0.478 125.224  0.00  0.00    +0.000 OA
ENDROOT
BRANCH   1   4
ATOM      4  C   UNL     1      -8.319  -1.028 124.597  0.00  0.00    +0.000 A 
ATOM      5  C   UNL     1      -9.054  -1.452 125.724  0.00  0.00    +0.000 A 
ATOM      6  C   UNL     1      -9.179  -2.806 126.071  0.00  0.00    +0.000 A 
ATOM      7  C   UNL     1      -8.575  -3.782 125.294  0.00  0.00    +0.000 A 
ATOM      8  C   UNL     1      -7.859  -3.402 124.166  0.00  0.00    +0.000 A 
ATOM      9  C   UNL     1      -7.723  -2.043 123.798  0.00  0.00    +0.000 A 
ATOM     10  C   UNL     1      -6.859  -1.789 122.595  0.00  0.00    +0.000 C 
ENDBRANCH   1   4
BRANCH   2  11
ATOM     11  C   UNL     1      -6.803   2.527 124.469  0.00  0.00    +0.000 C 
ATOM     12  C   UNL     1      -6.109   3.419 125.188  0.00  0.00    +0.000 C 
ATOM     13  C   UNL     1      -6.043   4.853 124.726  0.00  0.00    +0.000 C 
ENDBRANCH   2  11
BRANCH   1  15
ATOM     14  C   UNL     1     -10.069   0.408 122.509  0.00  0.00    +0.000 C 
ATOM     15  C   UNL     1      -9.430   1.020 123.725  0.00  0.00    +0.000 C 
ENDBRANCH   1  15
TORSDOF 3
ENDMDL
MODEL 8
REMARK VINA RESULT:      -5.3      7.064      8.683
REMARK  Name = Crotamiton
REMARK  6 active torsions:
REMARK  status: ('A' for Active; 'I' for Inactive)
REMARK    1  A    between atoms: C_1  and  C_2
REMARK    2  A    between atoms: C_2  and  N_3
REMARK    3  A    between atoms: N_3  and  C_9
REMARK    4  A    between atoms: C_4  and  C_6
REMARK    5  A    between atoms: C_7  and  C_8
REMARK    6  A    between atoms: C_14  and  C_15
REMARK                            x       y       z     vdW  Elec       q    Type
REMARK                         _______ _______ _______ _____ _____    ______ ____
ROOT
ATOM      1  N   UNL     1      -3.668   4.007 128.090  0.00  0.00    +0.000 N 
ATOM      2  C   UNL     1      -4.949   4.416 127.636  0.00  0.00    +0.000 C 
ATOM      3  O   UNL     1      -5.627   5.294 128.194  0.00  0.00    +0.000 OA
ENDROOT
BRANCH   1   4
ATOM      4  C   UNL     1      -3.147   4.624 129.325  0.00  0.00    +0.000 A 
ATOM      5  C   UNL     1      -3.331   3.956 130.555  0.00  0.00    +0.000 A 
ATOM      6  C   UNL     1      -2.898   4.499 131.774  0.00  0.00    +0.000 A 
ATOM      7  C   UNL     1      -2.259   5.728 131.801  0.00  0.00    +0.000 A 
ATOM      8  C   UNL     1      -2.045   6.406 130.608  0.00  0.00    +0.000 A 
ATOM      9  C   UNL     1      -2.472   5.875 129.368  0.00  0.00    +0.000 A 
ATOM     10  C   UNL     1      -2.232   6.759 128.177  0.00  0.00    +0.000 C 
ENDBRANCH   1   4
BRANCH   2  11
ATOM     11  C   UNL     1      -5.545   3.839 126.395  0.00  0.00    +0.000 C 
ATOM     12  C   UNL     1      -5.293   4.141 125.114  0.00  0.00    +0.000 C 
ATOM     13  C   UNL     1      -6.021   3.401 124.021  0.00  0.00    +0.000 C 
ENDBRANCH   2  11
BRANCH   1  15
ATOM     14  C   UNL     1      -1.775   3.289 126.452  0.00  0.00    +0.000 C 
ATOM     15  C   UNL     1      -2.777   2.951 127.522  0.00  0.00    +0.000 C 
ENDBRANCH   1  15
TORSDOF 3
ENDMDL
MODEL 9
REMARK VINA RESULT:      -5.2      6.968      9.738
REMARK  Name = Crotamiton
REMARK  6 active torsions:
REMARK  status: ('A' for Active; 'I' for Inactive)
REMARK    1  A    between atoms: C_1  and  C_2
REMARK    2  A    between atoms: C_2  and  N_3
REMARK    3  A    between atoms: N_3  and  C_9
REMARK    4  A    between atoms: C_4  and  C_6
REMARK    5  A    between atoms: C_7  and  C_8
REMARK    6  A    between atoms: C_14  and  C_15
REMARK                            x       y       z     vdW  Elec       q    Type
REMARK                         _______ _______ _______ _____ _____    ______ ____
ROOT
ATOM      1  N   UNL     1      -7.412  -1.463 126.917  0.00  0.00    +0.000 N 
ATOM      2  C   UNL     1      -6.046  -1.592 126.559  0.00  0.00    +0.000 C 
ATOM      3  O   UNL     1      -5.109  -1.452 127.361  0.00  0.00    +0.000 OA
ENDROOT
BRANCH   1   4
ATOM      4  C   UNL     1      -7.724  -1.085 128.310  0.00  0.00    +0.000 A 
ATOM      5  C   UNL     1      -7.885   0.280 128.629  0.00  0.00    +0.000 A 
ATOM      6  C   UNL     1      -8.145   0.717 129.937  0.00  0.00    +0.000 A 
ATOM      7  C   UNL     1      -8.258  -0.202 130.968  0.00  0.00    +0.000 A 
ATOM      8  C   UNL     1      -8.124  -1.555 130.687  0.00  0.00    +0.000 A 
ATOM      9  C   UNL     1      -7.865  -2.017 129.375  0.00  0.00    +0.000 A 
ATOM     10  C   UNL     1      -7.675  -3.501 129.245  0.00  0.00    +0.000 C 
ENDBRANCH   1   4
BRANCH   2  11
ATOM     11  C   UNL     1      -5.647  -1.970 125.170  0.00  0.00    +0.000 C 
ATOM     12  C   UNL     1      -5.299  -3.170 124.686  0.00  0.00    +0.000 C 
ATOM     13  C   UNL     1      -4.948  -3.307 123.226  0.00  0.00    +0.000 C 
ENDBRANCH   2  11
BRANCH   1  15
ATOM     14  C   UNL     1      -9.295  -2.909 125.847  0.00  0.00    +0.000 C 
ATOM     15  C   UNL     1      -8.616  -1.580 126.040  0.00  0.00    +0.000 C 
ENDBRANCH   1  15
TORSDOF 3
ENDMDL
