MODEL 1
REMARK VINA RESULT:      -2.2      0.000      0.000
REMARK  Name = Cupric Chloride
REMARK  0 active torsions:
REMARK  status: ('A' for Active; 'I' for Inactive)
REMARK                            x       y       z     vdW  Elec       q    Type
REMARK                         _______ _______ _______ _____ _____    ______ ____
ROOT
ATOM      1 CL   UNL     1     -10.658   8.518 127.850  0.00  0.00    +0.000 Cl
ATOM      2 CU   UNL     1     -12.152  10.028 128.831  0.00  0.00    +0.000 Cu
ATOM      3 CL   UNL     1     -13.647  11.538 129.811  0.00  0.00    +0.000 Cl
ENDROOT
TORSDOF 0
ENDMDL
MODEL 2
REMARK VINA RESULT:      -2.2      0.190      3.818
REMARK  Name = Cupric Chloride
REMARK  0 active torsions:
REMARK  status: ('A' for Active; 'I' for Inactive)
REMARK                            x       y       z     vdW  Elec       q    Type
REMARK                         _______ _______ _______ _____ _____    ______ ____
ROOT
ATOM      1 CL   UNL     1     -13.841  11.530 129.640  0.00  0.00    +0.000 Cl
ATOM      2 CU   UNL     1     -12.210  10.066 128.820  0.00  0.00    +0.000 Cu
ATOM      3 CL   UNL     1     -10.579   8.602 128.000  0.00  0.00    +0.000 Cl
ENDROOT
TORSDOF 0
ENDMDL
MODEL 3
REMARK VINA RESULT:      -2.1     15.397     16.594
REMARK  Name = Cupric Chloride
REMARK  0 active torsions:
REMARK  status: ('A' for Active; 'I' for Inactive)
REMARK                            x       y       z     vdW  Elec       q    Type
REMARK                         _______ _______ _______ _____ _____    ______ ____
ROOT
ATOM      1 CL   UNL     1      -8.702  -3.665 124.378  0.00  0.00    +0.000 Cl
ATOM      2 CU   UNL     1      -6.501  -4.314 123.919  0.00  0.00    +0.000 Cu
ATOM      3 CL   UNL     1      -4.301  -4.964 123.459  0.00  0.00    +0.000 Cl
ENDROOT
TORSDOF 0
ENDMDL
MODEL 4
REMARK VINA RESULT:      -2.1     15.411     16.191
REMARK  Name = Cupric Chloride
REMARK  0 active torsions:
REMARK  status: ('A' for Active; 'I' for Inactive)
REMARK                            x       y       z     vdW  Elec       q    Type
REMARK                         _______ _______ _______ _____ _____    ______ ____
ROOT
ATOM      1 CL   UNL     1      -4.231  -4.834 123.427  0.00  0.00    +0.000 Cl
ATOM      2 CU   UNL     1      -6.448  -4.268 123.918  0.00  0.00    +0.000 Cu
ATOM      3 CL   UNL     1      -8.665  -3.702 124.408  0.00  0.00    +0.000 Cl
ENDROOT
TORSDOF 0
ENDMDL
MODEL 5
REMARK VINA RESULT:      -2.1     14.545     14.679
REMARK  Name = Cupric Chloride
REMARK  0 active torsions:
REMARK  status: ('A' for Active; 'I' for Inactive)
REMARK                            x       y       z     vdW  Elec       q    Type
REMARK                         _______ _______ _______ _____ _____    ______ ____
ROOT
ATOM      1 CL   UNL     1      -9.012  -4.042 127.956  0.00  0.00    +0.000 Cl
ATOM      2 CU   UNL     1      -9.339  -3.704 125.664  0.00  0.00    +0.000 Cu
ATOM      3 CL   UNL     1      -9.667  -3.366 123.371  0.00  0.00    +0.000 Cl
ENDROOT
TORSDOF 0
ENDMDL
MODEL 6
REMARK VINA RESULT:      -2.0     14.554     14.593
REMARK  Name = Cupric Chloride
REMARK  0 active torsions:
REMARK  status: ('A' for Active; 'I' for Inactive)
REMARK                            x       y       z     vdW  Elec       q    Type
REMARK                         _______ _______ _______ _____ _____    ______ ____
ROOT
ATOM      1 CL   UNL     1      -9.541  -3.455 123.451  0.00  0.00    +0.000 Cl
ATOM      2 CU   UNL     1      -9.276  -3.749 125.757  0.00  0.00    +0.000 Cu
ATOM      3 CL   UNL     1      -9.011  -4.044 128.063  0.00  0.00    +0.000 Cl
ENDROOT
TORSDOF 0
ENDMDL
MODEL 7
REMARK VINA RESULT:      -2.0     11.294     11.844
REMARK  Name = Cupric Chloride
REMARK  0 active torsions:
REMARK  status: ('A' for Active; 'I' for Inactive)
REMARK                            x       y       z     vdW  Elec       q    Type
REMARK                         _______ _______ _______ _____ _____    ______ ____
ROOT
ATOM      1 CL   UNL     1      -1.424   2.862 126.326  0.00  0.00    +0.000 Cl
ATOM      2 CU   UNL     1      -1.674   4.738 127.702  0.00  0.00    +0.000 Cu
ATOM      3 CL   UNL     1      -1.923   6.614 129.078  0.00  0.00    +0.000 Cl
ENDROOT
TORSDOF 0
ENDMDL
MODEL 8
REMARK VINA RESULT:      -1.9     10.926     11.760
REMARK  Name = Cupric Chloride
REMARK  0 active torsions:
REMARK  status: ('A' for Active; 'I' for Inactive)
REMARK                            x       y       z     vdW  Elec       q    Type
REMARK                         _______ _______ _______ _____ _____    ______ ____
ROOT
ATOM      1 CL   UNL     1      -8.754   3.318 121.569  0.00  0.00    +0.000 Cl
ATOM      2 CU   UNL     1      -7.226   4.496 120.245  0.00  0.00    +0.000 Cu
ATOM      3 CL   UNL     1      -5.698   5.674 118.921  0.00  0.00    +0.000 Cl
ENDROOT
TORSDOF 0
ENDMDL
MODEL 9
REMARK VINA RESULT:      -1.9     14.501     15.733
REMARK  Name = Cupric Chloride
REMARK  0 active torsions:
REMARK  status: ('A' for Active; 'I' for Inactive)
REMARK                            x       y       z     vdW  Elec       q    Type
REMARK                         _______ _______ _______ _____ _____    ______ ____
ROOT
ATOM      1 CL   UNL     1      -4.280  -4.987 123.430  0.00  0.00    +0.000 Cl
ATOM      2 CU   UNL     1      -5.432  -2.969 123.160  0.00  0.00    +0.000 Cu
ATOM      3 CL   UNL     1      -6.585  -0.950 122.890  0.00  0.00    +0.000 Cl
ENDROOT
TORSDOF 0
ENDMDL
