MODEL 1
REMARK VINA RESULT:      -7.2      0.000      0.000
REMARK  Name = Curcumin
REMARK  12 active torsions:
REMARK  status: ('A' for Active; 'I' for Inactive)
REMARK    1  A    between atoms: C_1  and  O_2
REMARK    2  A    between atoms: O_2  and  C_3
REMARK    3  A    between atoms: C_5  and  C_6
REMARK    4  A    between atoms: C_7  and  C_8
REMARK    5  A    between atoms: C_8  and  C_10
REMARK    6  A    between atoms: C_10  and  C_11
REMARK    7  A    between atoms: C_11  and  C_13
REMARK    8  A    between atoms: C_14  and  C_15
REMARK    9  A    between atoms: C_17  and  O_18
REMARK   10  A    between atoms: O_18  and  C_19
REMARK   11  A    between atoms: C_20  and  O_21
REMARK   12  A    between atoms: C_26  and  O_27
REMARK                            x       y       z     vdW  Elec       q    Type
REMARK                         _______ _______ _______ _____ _____    ______ ____
ROOT
ATOM      1  C   UNL     1      -8.248  -2.202 122.641  0.00  0.00    +0.000 C 
ENDROOT
BRANCH   1   2
ATOM      2  C   UNL     1      -6.819  -1.942 123.117  0.00  0.00    +0.000 C 
ATOM      3  O   UNL     1      -5.938  -2.800 123.162  0.00  0.00    +0.000 OA
BRANCH   2   5
ATOM      4  C   UNL     1      -7.390   0.429 123.471  0.00  0.00    +0.000 C 
ATOM      5  C   UNL     1      -6.473  -0.557 123.553  0.00  0.00    +0.000 C 
BRANCH   4   8
ATOM      6  C   UNL     1      -6.143   4.036 123.476  0.00  0.00    +0.000 A 
ATOM      7  C   UNL     1      -6.361   2.694 123.097  0.00  0.00    +0.000 A 
ATOM      8  C   UNL     1      -7.166   1.835 123.871  0.00  0.00    +0.000 A 
ATOM      9  C   UNL     1      -7.747   2.356 125.031  0.00  0.00    +0.000 A 
ATOM     10  C   UNL     1      -7.551   3.681 125.412  0.00  0.00    +0.000 A 
ATOM     11  C   UNL     1      -6.756   4.520 124.639  0.00  0.00    +0.000 A 
BRANCH   6  13
ATOM     12  C   UNL     1      -5.245   4.275 121.282  0.00  0.00    +0.000 C 
ATOM     13  O   UNL     1      -5.322   4.737 122.627  0.00  0.00    +0.000 OA
ENDBRANCH   6  13
BRANCH  11  14
ATOM     14  O   UNL     1      -6.602   5.812 125.056  0.00  0.00    +0.000 OA
ATOM     15  H   UNL     1      -6.184   5.837 125.929  0.00  0.00    +0.000 HD
ENDBRANCH  11  14
ENDBRANCH   4   8
ENDBRANCH   2   5
ENDBRANCH   1   2
BRANCH   1  16
ATOM     16  C   UNL     1      -9.081  -3.034 123.610  0.00  0.00    +0.000 C 
ATOM     17  O   UNL     1     -10.144  -3.573 123.307  0.00  0.00    +0.000 OA
BRANCH  16  18
ATOM     18  C   UNL     1      -8.584  -3.202 125.010  0.00  0.00    +0.000 C 
ATOM     19  C   UNL     1      -8.777  -2.195 125.883  0.00  0.00    +0.000 C 
BRANCH  19  20
ATOM     20  C   UNL     1      -8.340  -2.232 127.284  0.00  0.00    +0.000 A 
ATOM     21  C   UNL     1      -7.739  -1.113 127.876  0.00  0.00    +0.000 A 
ATOM     22  C   UNL     1      -7.313  -1.147 129.207  0.00  0.00    +0.000 A 
ATOM     23  C   UNL     1      -7.501  -2.320 129.943  0.00  0.00    +0.000 A 
ATOM     24  C   UNL     1      -8.124  -3.430 129.383  0.00  0.00    +0.000 A 
ATOM     25  C   UNL     1      -8.556  -3.380 128.056  0.00  0.00    +0.000 A 
BRANCH  22  26
ATOM     26  O   UNL     1      -6.709  -0.107 129.869  0.00  0.00    +0.000 OA
ATOM     27  C   UNL     1      -7.569   0.957 130.271  0.00  0.00    +0.000 C 
ENDBRANCH  22  26
BRANCH  23  28
ATOM     28  O   UNL     1      -7.078  -2.418 131.241  0.00  0.00    +0.000 OA
ATOM     29  H   UNL     1      -6.139  -2.151 131.237  0.00  0.00    +0.000 HD
ENDBRANCH  23  28
ENDBRANCH  19  20
ENDBRANCH  16  18
ENDBRANCH   1  16
TORSDOF 10
ENDMDL
MODEL 2
REMARK VINA RESULT:      -7.1      2.049      8.109
REMARK  Name = Curcumin
REMARK  12 active torsions:
REMARK  status: ('A' for Active; 'I' for Inactive)
REMARK    1  A    between atoms: C_1  and  O_2
REMARK    2  A    between atoms: O_2  and  C_3
REMARK    3  A    between atoms: C_5  and  C_6
REMARK    4  A    between atoms: C_7  and  C_8
REMARK    5  A    between atoms: C_8  and  C_10
REMARK    6  A    between atoms: C_10  and  C_11
REMARK    7  A    between atoms: C_11  and  C_13
REMARK    8  A    between atoms: C_14  and  C_15
REMARK    9  A    between atoms: C_17  and  O_18
REMARK   10  A    between atoms: O_18  and  C_19
REMARK   11  A    between atoms: C_20  and  O_21
REMARK   12  A    between atoms: C_26  and  O_27
REMARK                            x       y       z     vdW  Elec       q    Type
REMARK                         _______ _______ _______ _____ _____    ______ ____
ROOT
ATOM      1  C   UNL     1      -9.319  -0.963 122.967  0.00  0.00    +0.000 C 
ENDROOT
BRANCH   1   2
ATOM      2  C   UNL     1      -8.002  -1.689 123.242  0.00  0.00    +0.000 C 
ATOM      3  O   UNL     1      -7.068  -1.753 122.444  0.00  0.00    +0.000 OA
BRANCH   2   5
ATOM      4  C   UNL     1      -7.332  -1.682 125.613  0.00  0.00    +0.000 C 
ATOM      5  C   UNL     1      -7.842  -2.360 124.565  0.00  0.00    +0.000 C 
BRANCH   4   8
ATOM      6  C   UNL     1      -5.695  -2.611 128.934  0.00  0.00    +0.000 A 
ATOM      7  C   UNL     1      -5.898  -2.081 127.641  0.00  0.00    +0.000 A 
ATOM      8  C   UNL     1      -7.125  -2.236 126.968  0.00  0.00    +0.000 A 
ATOM      9  C   UNL     1      -8.143  -2.935 127.625  0.00  0.00    +0.000 A 
ATOM     10  C   UNL     1      -7.964  -3.454 128.904  0.00  0.00    +0.000 A 
ATOM     11  C   UNL     1      -6.748  -3.292 129.559  0.00  0.00    +0.000 A 
BRANCH   6  13
ATOM     12  C   UNL     1      -3.484  -3.431 129.273  0.00  0.00    +0.000 C 
ATOM     13  O   UNL     1      -4.440  -2.390 129.446  0.00  0.00    +0.000 OA
ENDBRANCH   6  13
BRANCH  11  14
ATOM     14  O   UNL     1      -6.628  -3.816 130.816  0.00  0.00    +0.000 OA
ATOM     15  H   UNL     1      -6.398  -4.756 130.768  0.00  0.00    +0.000 HD
ENDBRANCH  11  14
ENDBRANCH   4   8
ENDBRANCH   2   5
ENDBRANCH   1   2
BRANCH   1  16
ATOM     16  C   UNL     1      -9.380   0.447 123.546  0.00  0.00    +0.000 C 
ATOM     17  O   UNL     1     -10.018   0.741 124.556  0.00  0.00    +0.000 OA
BRANCH  16  18
ATOM     18  C   UNL     1      -8.630   1.534 122.849  0.00  0.00    +0.000 C 
ATOM     19  C   UNL     1      -7.437   1.911 123.348  0.00  0.00    +0.000 C 
BRANCH  19  20
ATOM     20  C   UNL     1      -6.600   2.964 122.760  0.00  0.00    +0.000 A 
ATOM     21  C   UNL     1      -6.716   3.297 121.404  0.00  0.00    +0.000 A 
ATOM     22  C   UNL     1      -5.914   4.292 120.838  0.00  0.00    +0.000 A 
ATOM     23  C   UNL     1      -4.994   4.958 121.652  0.00  0.00    +0.000 A 
ATOM     24  C   UNL     1      -4.887   4.665 123.007  0.00  0.00    +0.000 A 
ATOM     25  C   UNL     1      -5.701   3.676 123.564  0.00  0.00    +0.000 A 
BRANCH  22  26
ATOM     26  O   UNL     1      -5.949   4.680 119.521  0.00  0.00    +0.000 OA
ATOM     27  C   UNL     1      -7.219   4.586 118.880  0.00  0.00    +0.000 C 
ENDBRANCH  22  26
BRANCH  23  28
ATOM     28  O   UNL     1      -4.165   5.921 121.144  0.00  0.00    +0.000 OA
ATOM     29  H   UNL     1      -3.419   5.990 121.770  0.00  0.00    +0.000 HD
ENDBRANCH  23  28
ENDBRANCH  19  20
ENDBRANCH  16  18
ENDBRANCH   1  16
TORSDOF 10
ENDMDL
MODEL 3
REMARK VINA RESULT:      -7.1      1.954      2.448
REMARK  Name = Curcumin
REMARK  12 active torsions:
REMARK  status: ('A' for Active; 'I' for Inactive)
REMARK    1  A    between atoms: C_1  and  O_2
REMARK    2  A    between atoms: O_2  and  C_3
REMARK    3  A    between atoms: C_5  and  C_6
REMARK    4  A    between atoms: C_7  and  C_8
REMARK    5  A    between atoms: C_8  and  C_10
REMARK    6  A    between atoms: C_10  and  C_11
REMARK    7  A    between atoms: C_11  and  C_13
REMARK    8  A    between atoms: C_14  and  C_15
REMARK    9  A    between atoms: C_17  and  O_18
REMARK   10  A    between atoms: O_18  and  C_19
REMARK   11  A    between atoms: C_20  and  O_21
REMARK   12  A    between atoms: C_26  and  O_27
REMARK                            x       y       z     vdW  Elec       q    Type
REMARK                         _______ _______ _______ _____ _____    ______ ____
ROOT
ATOM      1  C   UNL     1      -8.512  -3.393 124.156  0.00  0.00    +0.000 C 
ENDROOT
BRANCH   1   2
ATOM      2  C   UNL     1      -7.083  -2.885 123.965  0.00  0.00    +0.000 C 
ATOM      3  O   UNL     1      -6.080  -3.592 124.055  0.00  0.00    +0.000 OA
BRANCH   2   5
ATOM      4  C   UNL     1      -6.801  -0.532 124.641  0.00  0.00    +0.000 C 
ATOM      5  C   UNL     1      -6.895  -1.439 123.647  0.00  0.00    +0.000 C 
BRANCH   4   8
ATOM      6  C   UNL     1      -6.849   2.950 123.078  0.00  0.00    +0.000 A 
ATOM      7  C   UNL     1      -7.026   1.562 123.265  0.00  0.00    +0.000 A 
ATOM      8  C   UNL     1      -6.616   0.923 124.451  0.00  0.00    +0.000 A 
ATOM      9  C   UNL     1      -6.027   1.710 125.444  0.00  0.00    +0.000 A 
ATOM     10  C   UNL     1      -5.855   3.083 125.281  0.00  0.00    +0.000 A 
ATOM     11  C   UNL     1      -6.266   3.702 124.106  0.00  0.00    +0.000 A 
BRANCH   6  13
ATOM     12  C   UNL     1      -8.672   3.270 121.578  0.00  0.00    +0.000 C 
ATOM     13  O   UNL     1      -7.285   3.418 121.863  0.00  0.00    +0.000 OA
ENDBRANCH   6  13
BRANCH  11  14
ATOM     14  O   UNL     1      -6.079   5.052 124.001  0.00  0.00    +0.000 OA
ATOM     15  H   UNL     1      -6.689   5.427 123.348  0.00  0.00    +0.000 HD
ENDBRANCH  11  14
ENDBRANCH   4   8
ENDBRANCH   2   5
ENDBRANCH   1   2
BRANCH   1  16
ATOM     16  C   UNL     1      -9.092  -3.102 125.537  0.00  0.00    +0.000 C 
ATOM     17  O   UNL     1     -10.194  -2.587 125.719  0.00  0.00    +0.000 OA
BRANCH  16  18
ATOM     18  C   UNL     1      -8.276  -3.456 126.738  0.00  0.00    +0.000 C 
ATOM     19  C   UNL     1      -8.000  -2.488 127.633  0.00  0.00    +0.000 C 
BRANCH  19  20
ATOM     20  C   UNL     1      -7.212  -2.702 128.852  0.00  0.00    +0.000 A 
ATOM     21  C   UNL     1      -5.813  -2.616 128.825  0.00  0.00    +0.000 A 
ATOM     22  C   UNL     1      -5.058  -2.828 129.983  0.00  0.00    +0.000 A 
ATOM     23  C   UNL     1      -5.725  -3.124 131.175  0.00  0.00    +0.000 A 
ATOM     24  C   UNL     1      -7.113  -3.181 131.229  0.00  0.00    +0.000 A 
ATOM     25  C   UNL     1      -7.857  -2.956 130.069  0.00  0.00    +0.000 A 
BRANCH  22  26
ATOM     26  O   UNL     1      -3.688  -2.774 130.052  0.00  0.00    +0.000 OA
ATOM     27  C   UNL     1      -2.987  -3.650 129.173  0.00  0.00    +0.000 C 
ENDBRANCH  22  26
BRANCH  23  28
ATOM     28  O   UNL     1      -5.034  -3.368 132.331  0.00  0.00    +0.000 OA
ATOM     29  H   UNL     1      -4.206  -2.855 132.262  0.00  0.00    +0.000 HD
ENDBRANCH  23  28
ENDBRANCH  19  20
ENDBRANCH  16  18
ENDBRANCH   1  16
TORSDOF 10
ENDMDL
MODEL 4
REMARK VINA RESULT:      -7.0      2.419      5.742
REMARK  Name = Curcumin
REMARK  12 active torsions:
REMARK  status: ('A' for Active; 'I' for Inactive)
REMARK    1  A    between atoms: C_1  and  O_2
REMARK    2  A    between atoms: O_2  and  C_3
REMARK    3  A    between atoms: C_5  and  C_6
REMARK    4  A    between atoms: C_7  and  C_8
REMARK    5  A    between atoms: C_8  and  C_10
REMARK    6  A    between atoms: C_10  and  C_11
REMARK    7  A    between atoms: C_11  and  C_13
REMARK    8  A    between atoms: C_14  and  C_15
REMARK    9  A    between atoms: C_17  and  O_18
REMARK   10  A    between atoms: O_18  and  C_19
REMARK   11  A    between atoms: C_20  and  O_21
REMARK   12  A    between atoms: C_26  and  O_27
REMARK                            x       y       z     vdW  Elec       q    Type
REMARK                         _______ _______ _______ _____ _____    ______ ____
ROOT
ATOM      1  C   UNL     1      -3.997   3.017 126.924  0.00  0.00    +0.000 C 
ENDROOT
BRANCH   1   2
ATOM      2  C   UNL     1      -4.900   4.232 126.705  0.00  0.00    +0.000 C 
ATOM      3  O   UNL     1      -5.052   5.137 127.525  0.00  0.00    +0.000 OA
BRANCH   2   5
ATOM      4  C   UNL     1      -5.053   3.929 124.264  0.00  0.00    +0.000 C 
ATOM      5  C   UNL     1      -5.640   4.324 125.412  0.00  0.00    +0.000 C 
BRANCH   4   8
ATOM      6  C   UNL     1      -7.610   3.571 121.454  0.00  0.00    +0.000 A 
ATOM      7  C   UNL     1      -7.006   3.535 122.729  0.00  0.00    +0.000 A 
ATOM      8  C   UNL     1      -5.682   3.973 122.927  0.00  0.00    +0.000 A 
ATOM      9  C   UNL     1      -4.981   4.450 121.815  0.00  0.00    +0.000 A 
ATOM     10  C   UNL     1      -5.566   4.505 120.553  0.00  0.00    +0.000 A 
ATOM     11  C   UNL     1      -6.874   4.071 120.371  0.00  0.00    +0.000 A 
BRANCH   6  13
ATOM     12  C   UNL     1      -9.290   2.238 122.492  0.00  0.00    +0.000 C 
ATOM     13  O   UNL     1      -8.897   3.094 121.423  0.00  0.00    +0.000 OA
ENDBRANCH   6  13
BRANCH  11  14
ATOM     14  O   UNL     1      -7.401   4.152 119.112  0.00  0.00    +0.000 OA
ATOM     15  H   UNL     1      -7.124   3.390 118.581  0.00  0.00    +0.000 HD
ENDBRANCH  11  14
ENDBRANCH   4   8
ENDBRANCH   2   5
ENDBRANCH   1   2
BRANCH   1  16
ATOM     16  C   UNL     1      -4.592   1.966 127.856  0.00  0.00    +0.000 C 
ATOM     17  O   UNL     1      -4.333   1.895 129.056  0.00  0.00    +0.000 OA
BRANCH  16  18
ATOM     18  C   UNL     1      -5.537   0.961 127.282  0.00  0.00    +0.000 C 
ATOM     19  C   UNL     1      -5.457   0.685 125.965  0.00  0.00    +0.000 C 
BRANCH  19  20
ATOM     20  C   UNL     1      -6.324  -0.279 125.278  0.00  0.00    +0.000 A 
ATOM     21  C   UNL     1      -6.812  -1.409 125.949  0.00  0.00    +0.000 A 
ATOM     22  C   UNL     1      -7.629  -2.335 125.296  0.00  0.00    +0.000 A 
ATOM     23  C   UNL     1      -7.959  -2.113 123.955  0.00  0.00    +0.000 A 
ATOM     24  C   UNL     1      -7.511  -0.982 123.282  0.00  0.00    +0.000 A 
ATOM     25  C   UNL     1      -6.704  -0.057 123.949  0.00  0.00    +0.000 A 
BRANCH  22  26
ATOM     26  O   UNL     1      -8.146  -3.472 125.865  0.00  0.00    +0.000 OA
ATOM     27  C   UNL     1      -8.698  -3.316 127.170  0.00  0.00    +0.000 C 
ENDBRANCH  22  26
BRANCH  23  28
ATOM     28  O   UNL     1      -8.732  -3.002 123.259  0.00  0.00    +0.000 OA
ATOM     29  H   UNL     1      -9.597  -3.016 123.712  0.00  0.00    +0.000 HD
ENDBRANCH  23  28
ENDBRANCH  19  20
ENDBRANCH  16  18
ENDBRANCH   1  16
TORSDOF 10
ENDMDL
MODEL 5
REMARK VINA RESULT:      -7.0      2.415      3.445
REMARK  Name = Curcumin
REMARK  12 active torsions:
REMARK  status: ('A' for Active; 'I' for Inactive)
REMARK    1  A    between atoms: C_1  and  O_2
REMARK    2  A    between atoms: O_2  and  C_3
REMARK    3  A    between atoms: C_5  and  C_6
REMARK    4  A    between atoms: C_7  and  C_8
REMARK    5  A    between atoms: C_8  and  C_10
REMARK    6  A    between atoms: C_10  and  C_11
REMARK    7  A    between atoms: C_11  and  C_13
REMARK    8  A    between atoms: C_14  and  C_15
REMARK    9  A    between atoms: C_17  and  O_18
REMARK   10  A    between atoms: O_18  and  C_19
REMARK   11  A    between atoms: C_20  and  O_21
REMARK   12  A    between atoms: C_26  and  O_27
REMARK                            x       y       z     vdW  Elec       q    Type
REMARK                         _______ _______ _______ _____ _____    ______ ____
ROOT
ATOM      1  C   UNL     1      -7.693  -0.697 124.156  0.00  0.00    +0.000 C 
ENDROOT
BRANCH   1   2
ATOM      2  C   UNL     1      -8.155   0.760 124.223  0.00  0.00    +0.000 C 
ATOM      3  O   UNL     1      -8.732   1.258 125.189  0.00  0.00    +0.000 OA
BRANCH   2   5
ATOM      4  C   UNL     1      -6.797   2.428 123.021  0.00  0.00    +0.000 C 
ATOM      5  C   UNL     1      -7.884   1.630 123.041  0.00  0.00    +0.000 C 
BRANCH   4   8
ATOM      6  C   UNL     1      -6.909   4.354 119.728  0.00  0.00    +0.000 A 
ATOM      7  C   UNL     1      -7.262   3.495 120.791  0.00  0.00    +0.000 A 
ATOM      8  C   UNL     1      -6.424   3.331 121.911  0.00  0.00    +0.000 A 
ATOM      9  C   UNL     1      -5.227   4.052 121.939  0.00  0.00    +0.000 A 
ATOM     10  C   UNL     1      -4.869   4.913 120.905  0.00  0.00    +0.000 A 
ATOM     11  C   UNL     1      -5.705   5.066 119.805  0.00  0.00    +0.000 A 
BRANCH   6  13
ATOM     12  C   UNL     1      -9.197   4.315 119.065  0.00  0.00    +0.000 C 
ATOM     13  O   UNL     1      -7.822   4.390 118.703  0.00  0.00    +0.000 OA
ENDBRANCH   6  13
BRANCH  11  14
ATOM     14  O   UNL     1      -5.309   5.929 118.821  0.00  0.00    +0.000 OA
ATOM     15  H   UNL     1      -4.423   5.695 118.505  0.00  0.00    +0.000 HD
ENDBRANCH  11  14
ENDBRANCH   4   8
ENDBRANCH   2   5
ENDBRANCH   1   2
BRANCH   1  16
ATOM     16  C   UNL     1      -8.709  -1.693 124.705  0.00  0.00    +0.000 C 
ATOM     17  O   UNL     1      -9.646  -2.142 124.048  0.00  0.00    +0.000 OA
BRANCH  16  18
ATOM     18  C   UNL     1      -8.564  -2.147 126.121  0.00  0.00    +0.000 C 
ATOM     19  C   UNL     1      -7.336  -2.135 126.676  0.00  0.00    +0.000 C 
BRANCH  19  20
ATOM     20  C   UNL     1      -7.057  -2.554 128.054  0.00  0.00    +0.000 A 
ATOM     21  C   UNL     1      -5.738  -2.660 128.517  0.00  0.00    +0.000 A 
ATOM     22  C   UNL     1      -5.468  -3.068 129.827  0.00  0.00    +0.000 A 
ATOM     23  C   UNL     1      -6.540  -3.364 130.674  0.00  0.00    +0.000 A 
ATOM     24  C   UNL     1      -7.855  -3.233 130.243  0.00  0.00    +0.000 A 
ATOM     25  C   UNL     1      -8.114  -2.814 128.936  0.00  0.00    +0.000 A 
BRANCH  22  26
ATOM     26  O   UNL     1      -4.214  -3.210 130.366  0.00  0.00    +0.000 OA
ATOM     27  C   UNL     1      -3.207  -2.355 129.830  0.00  0.00    +0.000 C 
ENDBRANCH  22  26
BRANCH  23  28
ATOM     28  O   UNL     1      -6.332  -3.795 131.956  0.00  0.00    +0.000 OA
ATOM     29  H   UNL     1      -6.847  -3.193 132.527  0.00  0.00    +0.000 HD
ENDBRANCH  23  28
ENDBRANCH  19  20
ENDBRANCH  16  18
ENDBRANCH   1  16
TORSDOF 10
ENDMDL
MODEL 6
REMARK VINA RESULT:      -7.0      3.057      6.731
REMARK  Name = Curcumin
REMARK  12 active torsions:
REMARK  status: ('A' for Active; 'I' for Inactive)
REMARK    1  A    between atoms: C_1  and  O_2
REMARK    2  A    between atoms: O_2  and  C_3
REMARK    3  A    between atoms: C_5  and  C_6
REMARK    4  A    between atoms: C_7  and  C_8
REMARK    5  A    between atoms: C_8  and  C_10
REMARK    6  A    between atoms: C_10  and  C_11
REMARK    7  A    between atoms: C_11  and  C_13
REMARK    8  A    between atoms: C_14  and  C_15
REMARK    9  A    between atoms: C_17  and  O_18
REMARK   10  A    between atoms: O_18  and  C_19
REMARK   11  A    between atoms: C_20  and  O_21
REMARK   12  A    between atoms: C_26  and  O_27
REMARK                            x       y       z     vdW  Elec       q    Type
REMARK                         _______ _______ _______ _____ _____    ______ ____
ROOT
ATOM      1  C   UNL     1      -5.984  -2.839 132.165  0.00  0.00    +0.000 C 
ENDROOT
BRANCH   1   2
ATOM      2  C   UNL     1      -7.343  -2.672 132.846  0.00  0.00    +0.000 C 
ATOM      3  O   UNL     1      -7.778  -3.426 133.715  0.00  0.00    +0.000 OA
BRANCH   2   5
ATOM      4  C   UNL     1      -7.669  -0.528 131.676  0.00  0.00    +0.000 C 
ATOM      5  C   UNL     1      -8.191  -1.517 132.429  0.00  0.00    +0.000 C 
BRANCH   4   8
ATOM      6  C   UNL     1      -8.912   2.313 129.450  0.00  0.00    +0.000 A 
ATOM      7  C   UNL     1      -8.212   1.174 129.905  0.00  0.00    +0.000 A 
ATOM      8  C   UNL     1      -8.407   0.663 131.203  0.00  0.00    +0.000 A 
ATOM      9  C   UNL     1      -9.322   1.320 132.031  0.00  0.00    +0.000 A 
ATOM     10  C   UNL     1     -10.029   2.437 131.594  0.00  0.00    +0.000 A 
ATOM     11  C   UNL     1      -9.829   2.931 130.309  0.00  0.00    +0.000 A 
BRANCH   6  13
ATOM     12  C   UNL     1      -7.547   3.645 128.022  0.00  0.00    +0.000 C 
ATOM     13  O   UNL     1      -8.598   2.695 128.169  0.00  0.00    +0.000 OA
ENDBRANCH   6  13
BRANCH  11  14
ATOM     14  O   UNL     1     -10.554   4.026 129.930  0.00  0.00    +0.000 OA
ATOM     15  H   UNL     1     -11.303   4.158 130.530  0.00  0.00    +0.000 HD
ENDBRANCH  11  14
ENDBRANCH   4   8
ENDBRANCH   2   5
ENDBRANCH   1   2
BRANCH   1  16
ATOM     16  C   UNL     1      -5.997  -3.812 130.991  0.00  0.00    +0.000 C 
ATOM     17  O   UNL     1      -5.725  -5.007 131.094  0.00  0.00    +0.000 OA
BRANCH  16  18
ATOM     18  C   UNL     1      -6.353  -3.288 129.638  0.00  0.00    +0.000 C 
ATOM     19  C   UNL     1      -7.647  -3.309 129.263  0.00  0.00    +0.000 C 
BRANCH  19  20
ATOM     20  C   UNL     1      -8.130  -2.825 127.965  0.00  0.00    +0.000 A 
ATOM     21  C   UNL     1      -7.739  -1.570 127.477  0.00  0.00    +0.000 A 
ATOM     22  C   UNL     1      -8.205  -1.101 126.246  0.00  0.00    +0.000 A 
ATOM     23  C   UNL     1      -9.068  -1.911 125.501  0.00  0.00    +0.000 A 
ATOM     24  C   UNL     1      -9.441  -3.171 125.952  0.00  0.00    +0.000 A 
ATOM     25  C   UNL     1      -8.960  -3.634 127.179  0.00  0.00    +0.000 A 
BRANCH  22  26
ATOM     26  O   UNL     1      -7.885   0.113 125.692  0.00  0.00    +0.000 OA
ATOM     27  C   UNL     1      -6.578   0.602 125.980  0.00  0.00    +0.000 C 
ENDBRANCH  22  26
BRANCH  23  28
ATOM     28  O   UNL     1      -9.576  -1.490 124.302  0.00  0.00    +0.000 OA
ATOM     29  H   UNL     1      -9.747  -0.534 124.405  0.00  0.00    +0.000 HD
ENDBRANCH  23  28
ENDBRANCH  19  20
ENDBRANCH  16  18
ENDBRANCH   1  16
TORSDOF 10
ENDMDL
MODEL 7
REMARK VINA RESULT:      -7.0      7.285      9.880
REMARK  Name = Curcumin
REMARK  12 active torsions:
REMARK  status: ('A' for Active; 'I' for Inactive)
REMARK    1  A    between atoms: C_1  and  O_2
REMARK    2  A    between atoms: O_2  and  C_3
REMARK    3  A    between atoms: C_5  and  C_6
REMARK    4  A    between atoms: C_7  and  C_8
REMARK    5  A    between atoms: C_8  and  C_10
REMARK    6  A    between atoms: C_10  and  C_11
REMARK    7  A    between atoms: C_11  and  C_13
REMARK    8  A    between atoms: C_14  and  C_15
REMARK    9  A    between atoms: C_17  and  O_18
REMARK   10  A    between atoms: O_18  and  C_19
REMARK   11  A    between atoms: C_20  and  O_21
REMARK   12  A    between atoms: C_26  and  O_27
REMARK                            x       y       z     vdW  Elec       q    Type
REMARK                         _______ _______ _______ _____ _____    ______ ____
ROOT
ATOM      1  C   UNL     1      -8.627   3.452 133.611  0.00  0.00    +0.000 C 
ENDROOT
BRANCH   1   2
ATOM      2  C   UNL     1      -7.328   2.680 133.373  0.00  0.00    +0.000 C 
ATOM      3  O   UNL     1      -7.119   1.538 133.780  0.00  0.00    +0.000 OA
BRANCH   2   5
ATOM      4  C   UNL     1      -6.214   3.254 131.252  0.00  0.00    +0.000 C 
ATOM      5  C   UNL     1      -6.249   3.358 132.596  0.00  0.00    +0.000 C 
BRANCH   4   8
ATOM      6  C   UNL     1      -4.272   5.854 129.242  0.00  0.00    +0.000 A 
ATOM      7  C   UNL     1      -5.237   5.255 130.080  0.00  0.00    +0.000 A 
ATOM      8  C   UNL     1      -5.198   3.878 130.377  0.00  0.00    +0.000 A 
ATOM      9  C   UNL     1      -4.166   3.120 129.815  0.00  0.00    +0.000 A 
ATOM     10  C   UNL     1      -3.199   3.698 128.996  0.00  0.00    +0.000 A 
ATOM     11  C   UNL     1      -3.248   5.058 128.712  0.00  0.00    +0.000 A 
BRANCH   6  13
ATOM     12  C   UNL     1      -4.051   8.071 130.087  0.00  0.00    +0.000 C 
ATOM     13  O   UNL     1      -4.457   7.199 129.037  0.00  0.00    +0.000 OA
ENDBRANCH   6  13
BRANCH  11  14
ATOM     14  O   UNL     1      -2.270   5.574 127.908  0.00  0.00    +0.000 OA
ATOM     15  H   UNL     1      -2.151   5.018 127.124  0.00  0.00    +0.000 HD
ENDBRANCH  11  14
ENDBRANCH   4   8
ENDBRANCH   2   5
ENDBRANCH   1   2
BRANCH   1  16
ATOM     16  C   UNL     1      -8.417   4.921 133.961  0.00  0.00    +0.000 C 
ATOM     17  O   UNL     1      -7.761   5.304 134.929  0.00  0.00    +0.000 OA
BRANCH  16  18
ATOM     18  C   UNL     1      -9.045   5.957 133.087  0.00  0.00    +0.000 C 
ATOM     19  C   UNL     1     -10.026   5.576 132.246  0.00  0.00    +0.000 C 
BRANCH  19  20
ATOM     20  C   UNL     1     -10.725   6.491 131.336  0.00  0.00    +0.000 A 
ATOM     21  C   UNL     1     -10.097   6.968 130.177  0.00  0.00    +0.000 A 
ATOM     22  C   UNL     1     -10.756   7.847 129.313  0.00  0.00    +0.000 A 
ATOM     23  C   UNL     1     -12.061   8.241 129.622  0.00  0.00    +0.000 A 
ATOM     24  C   UNL     1     -12.712   7.754 130.749  0.00  0.00    +0.000 A 
ATOM     25  C   UNL     1     -12.048   6.866 131.599  0.00  0.00    +0.000 A 
BRANCH  22  26
ATOM     26  O   UNL     1     -10.220   8.373 128.164  0.00  0.00    +0.000 OA
ATOM     27  C   UNL     1     -10.606   7.733 126.950  0.00  0.00    +0.000 C 
ENDBRANCH  22  26
BRANCH  23  28
ATOM     28  O   UNL     1     -12.742   9.122 128.826  0.00  0.00    +0.000 OA
ATOM     29  H   UNL     1     -13.547   9.364 129.322  0.00  0.00    +0.000 HD
ENDBRANCH  23  28
ENDBRANCH  19  20
ENDBRANCH  16  18
ENDBRANCH   1  16
TORSDOF 10
ENDMDL
MODEL 8
REMARK VINA RESULT:      -7.0      2.935      6.805
REMARK  Name = Curcumin
REMARK  12 active torsions:
REMARK  status: ('A' for Active; 'I' for Inactive)
REMARK    1  A    between atoms: C_1  and  O_2
REMARK    2  A    between atoms: O_2  and  C_3
REMARK    3  A    between atoms: C_5  and  C_6
REMARK    4  A    between atoms: C_7  and  C_8
REMARK    5  A    between atoms: C_8  and  C_10
REMARK    6  A    between atoms: C_10  and  C_11
REMARK    7  A    between atoms: C_11  and  C_13
REMARK    8  A    between atoms: C_14  and  C_15
REMARK    9  A    between atoms: C_17  and  O_18
REMARK   10  A    between atoms: O_18  and  C_19
REMARK   11  A    between atoms: C_20  and  O_21
REMARK   12  A    between atoms: C_26  and  O_27
REMARK                            x       y       z     vdW  Elec       q    Type
REMARK                         _______ _______ _______ _____ _____    ______ ____
ROOT
ATOM      1  C   UNL     1      -5.880  -2.777 132.074  0.00  0.00    +0.000 C 
ENDROOT
BRANCH   1   2
ATOM      2  C   UNL     1      -5.936  -3.821 130.958  0.00  0.00    +0.000 C 
ATOM      3  O   UNL     1      -5.689  -5.016 131.116  0.00  0.00    +0.000 OA
BRANCH   2   5
ATOM      4  C   UNL     1      -7.617  -3.260 129.246  0.00  0.00    +0.000 C 
ATOM      5  C   UNL     1      -6.317  -3.358 129.591  0.00  0.00    +0.000 C 
BRANCH   4   8
ATOM      6  C   UNL     1      -8.236  -1.131 126.139  0.00  0.00    +0.000 A 
ATOM      7  C   UNL     1      -7.759  -1.561 127.396  0.00  0.00    +0.000 A 
ATOM      8  C   UNL     1      -8.117  -2.816 127.927  0.00  0.00    +0.000 A 
ATOM      9  C   UNL     1      -8.962  -3.628 127.165  0.00  0.00    +0.000 A 
ATOM     10  C   UNL     1      -9.431  -3.224 125.918  0.00  0.00    +0.000 A 
ATOM     11  C   UNL     1      -9.070  -1.984 125.404  0.00  0.00    +0.000 A 
BRANCH   6  13
ATOM     12  C   UNL     1      -6.586   0.197 125.048  0.00  0.00    +0.000 C 
ATOM     13  O   UNL     1      -7.811   0.122 125.771  0.00  0.00    +0.000 OA
ENDBRANCH   6  13
BRANCH  11  14
ATOM     14  O   UNL     1      -9.555  -1.640 124.173  0.00  0.00    +0.000 OA
ATOM     15  H   UNL     1      -8.998  -0.957 123.771  0.00  0.00    +0.000 HD
ENDBRANCH  11  14
ENDBRANCH   4   8
ENDBRANCH   2   5
ENDBRANCH   1   2
BRANCH   1  16
ATOM     16  C   UNL     1      -7.196  -2.604 132.824  0.00  0.00    +0.000 C 
ATOM     17  O   UNL     1      -7.609  -3.399 133.667  0.00  0.00    +0.000 OA
BRANCH  16  18
ATOM     18  C   UNL     1      -8.037  -1.408 132.518  0.00  0.00    +0.000 C 
ATOM     19  C   UNL     1      -7.668  -0.610 131.497  0.00  0.00    +0.000 C 
BRANCH  19  20
ATOM     20  C   UNL     1      -8.404   0.593 131.091  0.00  0.00    +0.000 A 
ATOM     21  C   UNL     1      -8.160   1.198 129.851  0.00  0.00    +0.000 A 
ATOM     22  C   UNL     1      -8.853   2.349 129.465  0.00  0.00    +0.000 A 
ATOM     23  C   UNL     1      -9.801   2.888 130.339  0.00  0.00    +0.000 A 
ATOM     24  C   UNL     1     -10.080   2.284 131.559  0.00  0.00    +0.000 A 
ATOM     25  C   UNL     1      -9.391   1.127 131.929  0.00  0.00    +0.000 A 
BRANCH  22  26
ATOM     26  O   UNL     1      -8.676   3.015 128.278  0.00  0.00    +0.000 OA
ATOM     27  C   UNL     1      -7.589   3.936 128.238  0.00  0.00    +0.000 C 
ENDBRANCH  22  26
BRANCH  23  28
ATOM     28  O   UNL     1     -10.487   4.029 130.024  0.00  0.00    +0.000 OA
ATOM     29  H   UNL     1     -10.847   4.367 130.867  0.00  0.00    +0.000 HD
ENDBRANCH  23  28
ENDBRANCH  19  20
ENDBRANCH  16  18
ENDBRANCH   1  16
TORSDOF 10
ENDMDL
MODEL 9
REMARK VINA RESULT:      -7.0      4.692      7.704
REMARK  Name = Curcumin
REMARK  12 active torsions:
REMARK  status: ('A' for Active; 'I' for Inactive)
REMARK    1  A    between atoms: C_1  and  O_2
REMARK    2  A    between atoms: O_2  and  C_3
REMARK    3  A    between atoms: C_5  and  C_6
REMARK    4  A    between atoms: C_7  and  C_8
REMARK    5  A    between atoms: C_8  and  C_10
REMARK    6  A    between atoms: C_10  and  C_11
REMARK    7  A    between atoms: C_11  and  C_13
REMARK    8  A    between atoms: C_14  and  C_15
REMARK    9  A    between atoms: C_17  and  O_18
REMARK   10  A    between atoms: O_18  and  C_19
REMARK   11  A    between atoms: C_20  and  O_21
REMARK   12  A    between atoms: C_26  and  O_27
REMARK                            x       y       z     vdW  Elec       q    Type
REMARK                         _______ _______ _______ _____ _____    ______ ____
ROOT
ATOM      1  C   UNL     1      -8.189   3.032 131.260  0.00  0.00    +0.000 C 
ENDROOT
BRANCH   1   2
ATOM      2  C   UNL     1      -9.716   2.958 131.261  0.00  0.00    +0.000 C 
ATOM      3  O   UNL     1     -10.364   2.054 131.787  0.00  0.00    +0.000 OA
BRANCH   2   5
ATOM      4  C   UNL     1     -10.340   5.329 131.011  0.00  0.00    +0.000 C 
ATOM      5  C   UNL     1     -10.465   4.056 130.583  0.00  0.00    +0.000 C 
BRANCH   4   8
ATOM      6  C   UNL     1     -11.270   8.160 128.626  0.00  0.00    +0.000 A 
ATOM      7  C   UNL     1     -10.617   7.043 129.191  0.00  0.00    +0.000 A 
ATOM      8  C   UNL     1     -11.029   6.497 130.422  0.00  0.00    +0.000 A 
ATOM      9  C   UNL     1     -12.113   7.098 131.070  0.00  0.00    +0.000 A 
ATOM     10  C   UNL     1     -12.775   8.192 130.521  0.00  0.00    +0.000 A 
ATOM     11  C   UNL     1     -12.360   8.721 129.304  0.00  0.00    +0.000 A 
BRANCH   6  13
ATOM     12  C   UNL     1     -10.967   7.753 126.298  0.00  0.00    +0.000 C 
ATOM     13  O   UNL     1     -10.738   8.583 127.433  0.00  0.00    +0.000 OA
ENDBRANCH   6  13
BRANCH  11  14
ATOM     14  O   UNL     1     -13.049   9.792 128.808  0.00  0.00    +0.000 OA
ATOM     15  H   UNL     1     -12.456  10.373 128.310  0.00  0.00    +0.000 HD
ENDBRANCH  11  14
ENDBRANCH   4   8
ENDBRANCH   2   5
ENDBRANCH   1   2
BRANCH   1  16
ATOM     16  C   UNL     1      -7.569   2.989 129.867  0.00  0.00    +0.000 C 
ATOM     17  O   UNL     1      -6.570   3.630 129.545  0.00  0.00    +0.000 OA
BRANCH  16  18
ATOM     18  C   UNL     1      -8.212   2.126 128.830  0.00  0.00    +0.000 C 
ATOM     19  C   UNL     1      -7.536   1.048 128.386  0.00  0.00    +0.000 C 
BRANCH  19  20
ATOM     20  C   UNL     1      -8.053   0.120 127.373  0.00  0.00    +0.000 A 
ATOM     21  C   UNL     1      -8.752   0.595 126.256  0.00  0.00    +0.000 A 
ATOM     22  C   UNL     1      -9.253  -0.286 125.294  0.00  0.00    +0.000 A 
ATOM     23  C   UNL     1      -9.040  -1.657 125.462  0.00  0.00    +0.000 A 
ATOM     24  C   UNL     1      -8.321  -2.146 126.547  0.00  0.00    +0.000 A 
ATOM     25  C   UNL     1      -7.815  -1.255 127.496  0.00  0.00    +0.000 A 
BRANCH  22  26
ATOM     26  O   UNL     1      -9.955   0.084 124.174  0.00  0.00    +0.000 OA
ATOM     27  C   UNL     1      -9.927   1.473 123.855  0.00  0.00    +0.000 C 
ENDBRANCH  22  26
BRANCH  23  28
ATOM     28  O   UNL     1      -9.533  -2.566 124.566  0.00  0.00    +0.000 OA
ATOM     29  H   UNL     1      -9.554  -2.108 123.704  0.00  0.00    +0.000 HD
ENDBRANCH  23  28
ENDBRANCH  19  20
ENDBRANCH  16  18
ENDBRANCH   1  16
TORSDOF 10
ENDMDL
