MODEL 1
REMARK VINA RESULT:      -4.1      0.000      0.000
REMARK  Name = Cycloserine
REMARK  1 active torsions:
REMARK  status: ('A' for Active; 'I' for Inactive)
REMARK    1  A    between atoms: N_1  and  C_2
REMARK                            x       y       z     vdW  Elec       q    Type
REMARK                         _______ _______ _______ _____ _____    ______ ____
ROOT
ATOM      1  C   UNL     1     -12.312   7.255 127.625  0.00  0.00    +0.000 C 
ATOM      2  C   UNL     1     -13.656   7.962 127.593  0.00  0.00    +0.000 C 
ATOM      3  O   UNL     1     -13.578   9.043 128.537  0.00  0.00    +0.000 OA
ATOM      4  N   UNL     1     -12.200   9.235 128.787  0.00  0.00    +0.000 N 
ATOM      5  C   UNL     1     -11.415   8.387 128.046  0.00  0.00    +0.000 C 
ATOM      6  O   UNL     1     -10.203   8.474 127.896  0.00  0.00    +0.000 OA
ATOM      7  H   UNL     1     -11.884   9.985 129.387  0.00  0.00    +0.000 HD
ENDROOT
BRANCH   1   8
ATOM      8  N   UNL     1     -11.918   6.602 126.375  0.00  0.00    +0.000 NA
ATOM      9  H   UNL     1     -11.856   5.597 126.526  0.00  0.00    +0.000 HD
ATOM     10  H   UNL     1     -10.975   6.918 126.136  0.00  0.00    +0.000 HD
ENDBRANCH   1   8
TORSDOF 1
ENDMDL
MODEL 2
REMARK VINA RESULT:      -4.0      1.726      2.439
REMARK  Name = Cycloserine
REMARK  1 active torsions:
REMARK  status: ('A' for Active; 'I' for Inactive)
REMARK    1  A    between atoms: N_1  and  C_2
REMARK                            x       y       z     vdW  Elec       q    Type
REMARK                         _______ _______ _______ _____ _____    ______ ____
ROOT
ATOM      1  C   UNL     1     -11.085   8.263 127.654  0.00  0.00    +0.000 C 
ATOM      2  C   UNL     1     -12.484   8.122 128.232  0.00  0.00    +0.000 C 
ATOM      3  O   UNL     1     -13.291   7.507 127.214  0.00  0.00    +0.000 OA
ATOM      4  N   UNL     1     -12.381   6.941 126.292  0.00  0.00    +0.000 N 
ATOM      5  C   UNL     1     -11.075   7.122 126.675  0.00  0.00    +0.000 C 
ATOM      6  O   UNL     1     -10.099   6.560 126.193  0.00  0.00    +0.000 OA
ATOM      7  H   UNL     1     -12.714   6.401 125.504  0.00  0.00    +0.000 HD
ENDROOT
BRANCH   1   8
ATOM      8  N   UNL     1      -9.997   8.230 128.635  0.00  0.00    +0.000 NA
ATOM      9  H   UNL     1     -10.296   7.700 129.450  0.00  0.00    +0.000 HD
ATOM     10  H   UNL     1      -9.831   9.187 128.956  0.00  0.00    +0.000 HD
ENDBRANCH   1   8
TORSDOF 1
ENDMDL
MODEL 3
REMARK VINA RESULT:      -3.9     10.566     10.883
REMARK  Name = Cycloserine
REMARK  1 active torsions:
REMARK  status: ('A' for Active; 'I' for Inactive)
REMARK    1  A    between atoms: N_1  and  C_2
REMARK                            x       y       z     vdW  Elec       q    Type
REMARK                         _______ _______ _______ _____ _____    ______ ____
ROOT
ATOM      1  C   UNL     1      -5.787   5.302 118.767  0.00  0.00    +0.000 C 
ATOM      2  C   UNL     1      -7.110   4.585 118.982  0.00  0.00    +0.000 C 
ATOM      3  O   UNL     1      -6.953   3.771 120.156  0.00  0.00    +0.000 OA
ATOM      4  N   UNL     1      -5.814   4.277 120.824  0.00  0.00    +0.000 N 
ATOM      5  C   UNL     1      -5.274   5.361 120.180  0.00  0.00    +0.000 C 
ATOM      6  O   UNL     1      -4.430   6.124 120.636  0.00  0.00    +0.000 OA
ATOM      7  H   UNL     1      -5.529   3.896 121.717  0.00  0.00    +0.000 HD
ENDROOT
BRANCH   1   8
ATOM      8  N   UNL     1      -5.881   6.603 118.101  0.00  0.00    +0.000 NA
ATOM      9  H   UNL     1      -5.151   7.216 118.457  0.00  0.00    +0.000 HD
ATOM     10  H   UNL     1      -6.772   7.031 118.366  0.00  0.00    +0.000 HD
ENDBRANCH   1   8
TORSDOF 1
ENDMDL
MODEL 4
REMARK VINA RESULT:      -3.9      1.807      2.351
REMARK  Name = Cycloserine
REMARK  1 active torsions:
REMARK  status: ('A' for Active; 'I' for Inactive)
REMARK    1  A    between atoms: N_1  and  C_2
REMARK                            x       y       z     vdW  Elec       q    Type
REMARK                         _______ _______ _______ _____ _____    ______ ____
ROOT
ATOM      1  C   UNL     1     -10.804   7.701 126.911  0.00  0.00    +0.000 C 
ATOM      2  C   UNL     1     -10.457   8.358 128.237  0.00  0.00    +0.000 C 
ATOM      3  O   UNL     1     -11.678   8.907 128.759  0.00  0.00    +0.000 OA
ATOM      4  N   UNL     1     -12.720   8.270 128.045  0.00  0.00    +0.000 N 
ATOM      5  C   UNL     1     -12.245   7.345 127.150  0.00  0.00    +0.000 C 
ATOM      6  O   UNL     1     -12.913   6.502 126.562  0.00  0.00    +0.000 OA
ATOM      7  H   UNL     1     -13.688   8.454 128.274  0.00  0.00    +0.000 HD
ENDROOT
BRANCH   1   8
ATOM      8  N   UNL     1      -9.954   6.569 126.533  0.00  0.00    +0.000 NA
ATOM      9  H   UNL     1     -10.109   6.346 125.552  0.00  0.00    +0.000 HD
ATOM     10  H   UNL     1     -10.258   5.752 127.068  0.00  0.00    +0.000 HD
ENDBRANCH   1   8
TORSDOF 1
ENDMDL
MODEL 5
REMARK VINA RESULT:      -3.8      1.870      2.130
REMARK  Name = Cycloserine
REMARK  1 active torsions:
REMARK  status: ('A' for Active; 'I' for Inactive)
REMARK    1  A    between atoms: N_1  and  C_2
REMARK                            x       y       z     vdW  Elec       q    Type
REMARK                         _______ _______ _______ _____ _____    ______ ____
ROOT
ATOM      1  C   UNL     1     -10.308   7.532 128.836  0.00  0.00    +0.000 C 
ATOM      2  C   UNL     1     -11.352   7.490 129.940  0.00  0.00    +0.000 C 
ATOM      3  O   UNL     1     -12.211   8.625 129.739  0.00  0.00    +0.000 OA
ATOM      4  N   UNL     1     -11.979   9.051 128.412  0.00  0.00    +0.000 N 
ATOM      5  C   UNL     1     -11.074   8.252 127.760  0.00  0.00    +0.000 C 
ATOM      6  O   UNL     1     -10.848   8.251 126.556  0.00  0.00    +0.000 OA
ATOM      7  H   UNL     1     -12.513   9.813 128.014  0.00  0.00    +0.000 HD
ENDROOT
BRANCH   1   8
ATOM      8  N   UNL     1      -9.773   6.230 128.432  0.00  0.00    +0.000 NA
ATOM      9  H   UNL     1      -9.044   6.368 127.734  0.00  0.00    +0.000 HD
ATOM     10  H   UNL     1     -10.522   5.709 127.969  0.00  0.00    +0.000 HD
ENDBRANCH   1   8
TORSDOF 1
ENDMDL
MODEL 6
REMARK VINA RESULT:      -3.8      1.493      2.349
REMARK  Name = Cycloserine
REMARK  1 active torsions:
REMARK  status: ('A' for Active; 'I' for Inactive)
REMARK    1  A    between atoms: N_1  and  C_2
REMARK                            x       y       z     vdW  Elec       q    Type
REMARK                         _______ _______ _______ _____ _____    ______ ____
ROOT
ATOM      1  C   UNL     1     -12.420   8.438 128.192  0.00  0.00    +0.000 C 
ATOM      2  C   UNL     1     -13.113   7.209 127.627  0.00  0.00    +0.000 C 
ATOM      3  O   UNL     1     -12.310   6.751 126.527  0.00  0.00    +0.000 OA
ATOM      4  N   UNL     1     -11.049   7.369 126.690  0.00  0.00    +0.000 N 
ATOM      5  C   UNL     1     -10.993   8.143 127.821  0.00  0.00    +0.000 C 
ATOM      6  O   UNL     1      -9.979   8.614 128.323  0.00  0.00    +0.000 OA
ATOM      7  H   UNL     1     -10.286   7.158 126.060  0.00  0.00    +0.000 HD
ENDROOT
BRANCH   1   8
ATOM      8  N   UNL     1     -12.638   8.677 129.621  0.00  0.00    +0.000 NA
ATOM      9  H   UNL     1     -13.122   7.877 130.026  0.00  0.00    +0.000 HD
ATOM     10  H   UNL     1     -13.270   9.476 129.716  0.00  0.00    +0.000 HD
ENDBRANCH   1   8
TORSDOF 1
ENDMDL
MODEL 7
REMARK VINA RESULT:      -3.7      2.043      2.134
REMARK  Name = Cycloserine
REMARK  1 active torsions:
REMARK  status: ('A' for Active; 'I' for Inactive)
REMARK    1  A    between atoms: N_1  and  C_2
REMARK                            x       y       z     vdW  Elec       q    Type
REMARK                         _______ _______ _______ _____ _____    ______ ____
ROOT
ATOM      1  C   UNL     1     -12.977   7.219 128.046  0.00  0.00    +0.000 C 
ATOM      2  C   UNL     1     -12.775   8.680 128.411  0.00  0.00    +0.000 C 
ATOM      3  O   UNL     1     -12.803   8.756 129.846  0.00  0.00    +0.000 OA
ATOM      4  N   UNL     1     -12.603   7.432 130.303  0.00  0.00    +0.000 N 
ATOM      5  C   UNL     1     -12.416   6.549 129.270  0.00  0.00    +0.000 C 
ATOM      6  O   UNL     1     -12.011   5.398 129.370  0.00  0.00    +0.000 OA
ATOM      7  H   UNL     1     -12.529   7.235 131.292  0.00  0.00    +0.000 HD
ENDROOT
BRANCH   1   8
ATOM      8  N   UNL     1     -12.359   6.798 126.786  0.00  0.00    +0.000 NA
ATOM      9  H   UNL     1     -12.583   7.475 126.059  0.00  0.00    +0.000 HD
ATOM     10  H   UNL     1     -12.789   5.914 126.502  0.00  0.00    +0.000 HD
ENDBRANCH   1   8
TORSDOF 1
ENDMDL
MODEL 8
REMARK VINA RESULT:      -3.7      3.738      4.527
REMARK  Name = Cycloserine
REMARK  1 active torsions:
REMARK  status: ('A' for Active; 'I' for Inactive)
REMARK    1  A    between atoms: N_1  and  C_2
REMARK                            x       y       z     vdW  Elec       q    Type
REMARK                         _______ _______ _______ _____ _____    ______ ____
ROOT
ATOM      1  C   UNL     1     -11.128   5.879 131.472  0.00  0.00    +0.000 C 
ATOM      2  C   UNL     1     -10.238   5.894 130.240  0.00  0.00    +0.000 C 
ATOM      3  O   UNL     1     -11.108   6.010 129.102  0.00  0.00    +0.000 OA
ATOM      4  N   UNL     1     -12.348   6.457 129.613  0.00  0.00    +0.000 N 
ATOM      5  C   UNL     1     -12.307   6.665 130.968  0.00  0.00    +0.000 C 
ATOM      6  O   UNL     1     -13.154   7.249 131.634  0.00  0.00    +0.000 OA
ATOM      7  H   UNL     1     -13.117   6.667 128.989  0.00  0.00    +0.000 HD
ENDROOT
BRANCH   1   8
ATOM      8  N   UNL     1     -10.518   6.415 132.691  0.00  0.00    +0.000 NA
ATOM      9  H   UNL     1      -9.529   6.175 132.705  0.00  0.00    +0.000 HD
ATOM     10  H   UNL     1     -10.943   5.940 133.492  0.00  0.00    +0.000 HD
ENDBRANCH   1   8
TORSDOF 1
ENDMDL
MODEL 9
REMARK VINA RESULT:      -3.7      3.897      4.445
REMARK  Name = Cycloserine
REMARK  1 active torsions:
REMARK  status: ('A' for Active; 'I' for Inactive)
REMARK    1  A    between atoms: N_1  and  C_2
REMARK                            x       y       z     vdW  Elec       q    Type
REMARK                         _______ _______ _______ _____ _____    ______ ____
ROOT
ATOM      1  C   UNL     1     -11.429   6.284 130.015  0.00  0.00    +0.000 C 
ATOM      2  C   UNL     1     -10.560   5.079 130.330  0.00  0.00    +0.000 C 
ATOM      3  O   UNL     1     -10.230   5.160 131.727  0.00  0.00    +0.000 OA
ATOM      4  N   UNL     1     -11.157   6.069 132.287  0.00  0.00    +0.000 N 
ATOM      5  C   UNL     1     -12.057   6.529 131.360  0.00  0.00    +0.000 C 
ATOM      6  O   UNL     1     -13.088   7.146 131.600  0.00  0.00    +0.000 OA
ATOM      7  H   UNL     1     -11.160   6.254 133.281  0.00  0.00    +0.000 HD
ENDROOT
BRANCH   1   8
ATOM      8  N   UNL     1     -12.388   6.096 128.923  0.00  0.00    +0.000 NA
ATOM      9  H   UNL     1     -12.275   6.847 128.245  0.00  0.00    +0.000 HD
ATOM     10  H   UNL     1     -13.330   6.193 129.309  0.00  0.00    +0.000 HD
ENDBRANCH   1   8
TORSDOF 1
ENDMDL
