MODEL 1
REMARK VINA RESULT:      -5.3      0.000      0.000
REMARK  Name = Cyclophosphamide
REMARK  5 active torsions:
REMARK  status: ('A' for Active; 'I' for Inactive)
REMARK    1  A    between atoms: C_2  and  C_3
REMARK    2  A    between atoms: C_3  and  N_4
REMARK    3  A    between atoms: N_4  and  C_5
REMARK    4  A    between atoms: N_4  and  P_8
REMARK    5  A    between atoms: C_5  and  C_6
REMARK                            x       y       z     vdW  Elec       q    Type
REMARK                         _______ _______ _______ _____ _____    ______ ____
ROOT
ATOM      1  P   UNL     1     -10.295   6.586 129.920  0.00  0.00    +0.000 P 
ATOM      2  O   UNL     1     -10.041   5.149 129.505  0.00  0.00    +0.000 OA
ATOM      3  N   UNL     1      -8.870   7.352 130.165  0.00  0.00    +0.000 NA
ATOM      4  C   UNL     1      -8.032   6.738 131.212  0.00  0.00    +0.000 C 
ATOM      5  C   UNL     1      -8.764   5.690 132.067  0.00  0.00    +0.000 C 
ATOM      6  C   UNL     1     -10.157   6.177 132.468  0.00  0.00    +0.000 C 
ATOM      7  O   UNL     1     -10.965   6.615 131.377  0.00  0.00    +0.000 OA
ATOM      8  H   UNL     1      -8.318   7.387 129.313  0.00  0.00    +0.000 HD
ENDROOT
BRANCH   1   9
ATOM      9  N   UNL     1     -11.282   7.428 128.833  0.00  0.00    +0.000 NA
BRANCH   9  10
ATOM     10  C   UNL     1     -12.090   8.335 129.693  0.00  0.00    +0.000 C 
BRANCH  10  12
ATOM     11 CL   UNL     1     -13.304  10.621 130.488  0.00  0.00    +0.000 Cl
ATOM     12  C   UNL     1     -13.017   9.426 129.188  0.00  0.00    +0.000 C 
ENDBRANCH  10  12
ENDBRANCH   9  10
BRANCH   9  13
ATOM     13  C   UNL     1     -10.603   8.132 127.699  0.00  0.00    +0.000 C 
BRANCH  13  14
ATOM     14  C   UNL     1     -11.008   7.792 126.243  0.00  0.00    +0.000 C 
ATOM     15 CL   UNL     1     -12.587   6.967 126.128  0.00  0.00    +0.000 Cl
ENDBRANCH  13  14
ENDBRANCH   9  13
ENDBRANCH   1   9
TORSDOF 5
ENDMDL
MODEL 2
REMARK VINA RESULT:      -5.3      1.667      3.317
REMARK  Name = Cyclophosphamide
REMARK  5 active torsions:
REMARK  status: ('A' for Active; 'I' for Inactive)
REMARK    1  A    between atoms: C_2  and  C_3
REMARK    2  A    between atoms: C_3  and  N_4
REMARK    3  A    between atoms: N_4  and  C_5
REMARK    4  A    between atoms: N_4  and  P_8
REMARK    5  A    between atoms: C_5  and  C_6
REMARK                            x       y       z     vdW  Elec       q    Type
REMARK                         _______ _______ _______ _____ _____    ______ ____
ROOT
ATOM      1  P   UNL     1     -11.333   6.593 130.573  0.00  0.00    +0.000 P 
ATOM      2  O   UNL     1     -12.175   6.341 131.810  0.00  0.00    +0.000 OA
ATOM      3  N   UNL     1     -11.023   5.176 129.816  0.00  0.00    +0.000 NA
ATOM      4  C   UNL     1     -10.294   4.200 130.647  0.00  0.00    +0.000 C 
ATOM      5  C   UNL     1      -9.713   4.790 131.944  0.00  0.00    +0.000 C 
ATOM      6  C   UNL     1      -9.046   6.141 131.686  0.00  0.00    +0.000 C 
ATOM      7  O   UNL     1      -9.871   7.087 131.008  0.00  0.00    +0.000 OA
ATOM      8  H   UNL     1     -11.880   4.730 129.500  0.00  0.00    +0.000 HD
ENDROOT
BRANCH   1   9
ATOM      9  N   UNL     1     -12.018   7.729 129.522  0.00  0.00    +0.000 NA
BRANCH   9  10
ATOM     10  C   UNL     1     -12.786   6.912 128.542  0.00  0.00    +0.000 C 
BRANCH  10  12
ATOM     11 CL   UNL     1     -11.087   7.491 126.515  0.00  0.00    +0.000 Cl
ATOM     12  C   UNL     1     -12.750   7.089 127.035  0.00  0.00    +0.000 C 
ENDBRANCH  10  12
ENDBRANCH   9  10
BRANCH   9  13
ATOM     13  C   UNL     1     -12.824   8.831 130.138  0.00  0.00    +0.000 C 
BRANCH  13  14
ATOM     14  C   UNL     1     -13.229  10.051 129.273  0.00  0.00    +0.000 C 
ATOM     15 CL   UNL     1     -13.578  11.511 130.240  0.00  0.00    +0.000 Cl
ENDBRANCH  13  14
ENDBRANCH   9  13
ENDBRANCH   1   9
TORSDOF 5
ENDMDL
MODEL 3
REMARK VINA RESULT:      -5.1      3.436      5.170
REMARK  Name = Cyclophosphamide
REMARK  5 active torsions:
REMARK  status: ('A' for Active; 'I' for Inactive)
REMARK    1  A    between atoms: C_2  and  C_3
REMARK    2  A    between atoms: C_3  and  N_4
REMARK    3  A    between atoms: N_4  and  C_5
REMARK    4  A    between atoms: N_4  and  P_8
REMARK    5  A    between atoms: C_5  and  C_6
REMARK                            x       y       z     vdW  Elec       q    Type
REMARK                         _______ _______ _______ _____ _____    ______ ____
ROOT
ATOM      1  P   UNL     1     -11.644   6.454 130.179  0.00  0.00    +0.000 P 
ATOM      2  O   UNL     1     -12.640   6.791 131.273  0.00  0.00    +0.000 OA
ATOM      3  N   UNL     1     -10.965   7.828 129.605  0.00  0.00    +0.000 NA
ATOM      4  C   UNL     1     -11.935   8.782 129.034  0.00  0.00    +0.000 C 
ATOM      5  C   UNL     1     -13.340   8.194 128.818  0.00  0.00    +0.000 C 
ATOM      6  C   UNL     1     -13.267   6.798 128.199  0.00  0.00    +0.000 C 
ATOM      7  O   UNL     1     -12.423   5.885 128.898  0.00  0.00    +0.000 OA
ATOM      8  H   UNL     1     -10.448   8.316 130.331  0.00  0.00    +0.000 HD
ENDROOT
BRANCH   1   9
ATOM      9  N   UNL     1     -10.474   5.333 130.666  0.00  0.00    +0.000 NA
BRANCH   9  10
ATOM     10  C   UNL     1     -10.134   5.733 132.059  0.00  0.00    +0.000 C 
BRANCH  10  12
ATOM     11 CL   UNL     1      -7.762   6.809 131.319  0.00  0.00    +0.000 Cl
ATOM     12  C   UNL     1      -8.732   5.991 132.580  0.00  0.00    +0.000 C 
ENDBRANCH  10  12
ENDBRANCH   9  10
BRANCH   9  13
ATOM     13  C   UNL     1     -10.820   3.882 130.532  0.00  0.00    +0.000 C 
BRANCH  13  14
ATOM     14  C   UNL     1      -9.718   2.815 130.744  0.00  0.00    +0.000 C 
ATOM     15 CL   UNL     1      -9.824   2.000 132.329  0.00  0.00    +0.000 Cl
ENDBRANCH  13  14
ENDBRANCH   9  13
ENDBRANCH   1   9
TORSDOF 5
ENDMDL
MODEL 4
REMARK VINA RESULT:      -5.0      3.311      4.944
REMARK  Name = Cyclophosphamide
REMARK  5 active torsions:
REMARK  status: ('A' for Active; 'I' for Inactive)
REMARK    1  A    between atoms: C_2  and  C_3
REMARK    2  A    between atoms: C_3  and  N_4
REMARK    3  A    between atoms: N_4  and  C_5
REMARK    4  A    between atoms: N_4  and  P_8
REMARK    5  A    between atoms: C_5  and  C_6
REMARK                            x       y       z     vdW  Elec       q    Type
REMARK                         _______ _______ _______ _____ _____    ______ ____
ROOT
ATOM      1  P   UNL     1     -10.556   7.364 128.914  0.00  0.00    +0.000 P 
ATOM      2  O   UNL     1     -10.111   8.613 128.178  0.00  0.00    +0.000 OA
ATOM      3  N   UNL     1     -11.626   6.531 127.999  0.00  0.00    +0.000 NA
ATOM      4  C   UNL     1     -12.843   7.293 127.660  0.00  0.00    +0.000 C 
ATOM      5  C   UNL     1     -13.011   8.596 128.459  0.00  0.00    +0.000 C 
ATOM      6  C   UNL     1     -12.697   8.381 129.940  0.00  0.00    +0.000 C 
ATOM      7  O   UNL     1     -11.431   7.775 130.194  0.00  0.00    +0.000 OA
ATOM      8  H   UNL     1     -11.205   6.223 127.127  0.00  0.00    +0.000 HD
ENDROOT
BRANCH   1   9
ATOM      9  N   UNL     1      -9.263   6.390 129.411  0.00  0.00    +0.000 NA
BRANCH   9  10
ATOM     10  C   UNL     1      -8.787   7.020 130.672  0.00  0.00    +0.000 C 
BRANCH  10  12
ATOM     11 CL   UNL     1      -7.916   5.884 132.970  0.00  0.00    +0.000 Cl
ATOM     12  C   UNL     1      -7.511   6.654 131.407  0.00  0.00    +0.000 C 
ENDBRANCH  10  12
ENDBRANCH   9  10
BRANCH   9  13
ATOM     13  C   UNL     1      -9.526   4.921 129.542  0.00  0.00    +0.000 C 
BRANCH  13  14
ATOM     14  C   UNL     1     -10.449   4.412 130.677  0.00  0.00    +0.000 C 
ATOM     15 CL   UNL     1      -9.904   2.867 131.386  0.00  0.00    +0.000 Cl
ENDBRANCH  13  14
ENDBRANCH   9  13
ENDBRANCH   1   9
TORSDOF 5
ENDMDL
MODEL 5
REMARK VINA RESULT:      -5.0      3.780      5.855
REMARK  Name = Cyclophosphamide
REMARK  5 active torsions:
REMARK  status: ('A' for Active; 'I' for Inactive)
REMARK    1  A    between atoms: C_2  and  C_3
REMARK    2  A    between atoms: C_3  and  N_4
REMARK    3  A    between atoms: N_4  and  C_5
REMARK    4  A    between atoms: N_4  and  P_8
REMARK    5  A    between atoms: C_5  and  C_6
REMARK                            x       y       z     vdW  Elec       q    Type
REMARK                         _______ _______ _______ _____ _____    ______ ____
ROOT
ATOM      1  P   UNL     1     -10.945   5.740 130.773  0.00  0.00    +0.000 P 
ATOM      2  O   UNL     1     -11.668   4.875 129.759  0.00  0.00    +0.000 OA
ATOM      3  N   UNL     1     -12.024   6.404 131.807  0.00  0.00    +0.000 NA
ATOM      4  C   UNL     1     -13.036   7.255 131.152  0.00  0.00    +0.000 C 
ATOM      5  C   UNL     1     -12.717   7.592 129.685  0.00  0.00    +0.000 C 
ATOM      6  C   UNL     1     -11.247   7.974 129.511  0.00  0.00    +0.000 C 
ATOM      7  O   UNL     1     -10.323   7.024 130.039  0.00  0.00    +0.000 OA
ATOM      8  H   UNL     1     -12.520   5.690 132.333  0.00  0.00    +0.000 HD
ENDROOT
BRANCH   1   9
ATOM      9  N   UNL     1      -9.715   4.916 131.594  0.00  0.00    +0.000 NA
BRANCH   9  10
ATOM     10  C   UNL     1      -9.251   3.884 130.627  0.00  0.00    +0.000 C 
BRANCH  10  12
ATOM     11 CL   UNL     1     -10.016   1.666 131.979  0.00  0.00    +0.000 Cl
ATOM     12  C   UNL     1      -8.772   2.491 130.994  0.00  0.00    +0.000 C 
ENDBRANCH  10  12
ENDBRANCH   9  10
BRANCH   9  13
ATOM     13  C   UNL     1      -8.602   5.740 132.164  0.00  0.00    +0.000 C 
BRANCH  13  14
ATOM     14  C   UNL     1      -8.218   5.571 133.655  0.00  0.00    +0.000 C 
ATOM     15 CL   UNL     1      -8.762   4.018 134.348  0.00  0.00    +0.000 Cl
ENDBRANCH  13  14
ENDBRANCH   9  13
ENDBRANCH   1   9
TORSDOF 5
ENDMDL
MODEL 6
REMARK VINA RESULT:      -4.9      3.313      5.505
REMARK  Name = Cyclophosphamide
REMARK  5 active torsions:
REMARK  status: ('A' for Active; 'I' for Inactive)
REMARK    1  A    between atoms: C_2  and  C_3
REMARK    2  A    between atoms: C_3  and  N_4
REMARK    3  A    between atoms: N_4  and  C_5
REMARK    4  A    between atoms: N_4  and  P_8
REMARK    5  A    between atoms: C_5  and  C_6
REMARK                            x       y       z     vdW  Elec       q    Type
REMARK                         _______ _______ _______ _____ _____    ______ ____
ROOT
ATOM      1  P   UNL     1     -10.835   6.912 129.750  0.00  0.00    +0.000 P 
ATOM      2  O   UNL     1      -9.759   7.825 129.194  0.00  0.00    +0.000 OA
ATOM      3  N   UNL     1     -11.711   6.276 128.523  0.00  0.00    +0.000 NA
ATOM      4  C   UNL     1     -12.387   7.284 127.685  0.00  0.00    +0.000 C 
ATOM      5  C   UNL     1     -12.383   8.702 128.283  0.00  0.00    +0.000 C 
ATOM      6  C   UNL     1     -12.723   8.675 129.774  0.00  0.00    +0.000 C 
ATOM      7  O   UNL     1     -11.921   7.782 130.546  0.00  0.00    +0.000 OA
ATOM      8  H   UNL     1     -11.133   5.708 127.911  0.00  0.00    +0.000 HD
ENDROOT
BRANCH   1   9
ATOM      9  N   UNL     1     -10.223   5.710 130.773  0.00  0.00    +0.000 NA
BRANCH   9  10
ATOM     10  C   UNL     1      -8.879   5.396 130.214  0.00  0.00    +0.000 C 
BRANCH  10  12
ATOM     11 CL   UNL     1      -9.530   2.770 130.293  0.00  0.00    +0.000 Cl
ATOM     12  C   UNL     1      -8.452   4.049 129.660  0.00  0.00    +0.000 C 
ENDBRANCH  10  12
ENDBRANCH   9  10
BRANCH   9  13
ATOM     13  C   UNL     1     -10.203   6.006 132.241  0.00  0.00    +0.000 C 
BRANCH  13  14
ATOM     14  C   UNL     1      -9.021   5.497 133.102  0.00  0.00    +0.000 C 
ATOM     15 CL   UNL     1      -9.289   3.861 133.766  0.00  0.00    +0.000 Cl
ENDBRANCH  13  14
ENDBRANCH   9  13
ENDBRANCH   1   9
TORSDOF 5
ENDMDL
MODEL 7
REMARK VINA RESULT:      -4.9      3.573      5.493
REMARK  Name = Cyclophosphamide
REMARK  5 active torsions:
REMARK  status: ('A' for Active; 'I' for Inactive)
REMARK    1  A    between atoms: C_2  and  C_3
REMARK    2  A    between atoms: C_3  and  N_4
REMARK    3  A    between atoms: N_4  and  C_5
REMARK    4  A    between atoms: N_4  and  P_8
REMARK    5  A    between atoms: C_5  and  C_6
REMARK                            x       y       z     vdW  Elec       q    Type
REMARK                         _______ _______ _______ _____ _____    ______ ____
ROOT
ATOM      1  P   UNL     1     -10.942   5.688 130.680  0.00  0.00    +0.000 P 
ATOM      2  O   UNL     1     -11.780   4.888 129.701  0.00  0.00    +0.000 OA
ATOM      3  N   UNL     1     -11.904   6.336 131.833  0.00  0.00    +0.000 NA
ATOM      4  C   UNL     1     -12.943   7.242 131.308  0.00  0.00    +0.000 C 
ATOM      5  C   UNL     1     -12.746   7.633 129.833  0.00  0.00    +0.000 C 
ATOM      6  C   UNL     1     -11.286   7.982 129.543  0.00  0.00    +0.000 C 
ATOM      7  O   UNL     1     -10.349   6.985 129.946  0.00  0.00    +0.000 OA
ATOM      8  H   UNL     1     -12.373   5.614 132.372  0.00  0.00    +0.000 HD
ENDROOT
BRANCH   1   9
ATOM      9  N   UNL     1      -9.671   4.795 131.352  0.00  0.00    +0.000 NA
BRANCH   9  10
ATOM     10  C   UNL     1      -8.479   5.184 130.548  0.00  0.00    +0.000 C 
BRANCH  10  12
ATOM     11 CL   UNL     1      -6.747   7.208 131.032  0.00  0.00    +0.000 Cl
ATOM     12  C   UNL     1      -7.095   5.455 131.108  0.00  0.00    +0.000 C 
ENDBRANCH  10  12
ENDBRANCH   9  10
BRANCH   9  13
ATOM     13  C   UNL     1      -9.457   4.916 132.829  0.00  0.00    +0.000 C 
BRANCH  13  14
ATOM     14  C   UNL     1      -9.181   3.641 133.664  0.00  0.00    +0.000 C 
ATOM     15 CL   UNL     1      -9.453   2.131 132.750  0.00  0.00    +0.000 Cl
ENDBRANCH  13  14
ENDBRANCH   9  13
ENDBRANCH   1   9
TORSDOF 5
ENDMDL
MODEL 8
REMARK VINA RESULT:      -4.8      3.453      5.332
REMARK  Name = Cyclophosphamide
REMARK  5 active torsions:
REMARK  status: ('A' for Active; 'I' for Inactive)
REMARK    1  A    between atoms: C_2  and  C_3
REMARK    2  A    between atoms: C_3  and  N_4
REMARK    3  A    between atoms: N_4  and  C_5
REMARK    4  A    between atoms: N_4  and  P_8
REMARK    5  A    between atoms: C_5  and  C_6
REMARK                            x       y       z     vdW  Elec       q    Type
REMARK                         _______ _______ _______ _____ _____    ______ ____
ROOT
ATOM      1  P   UNL     1     -11.814   6.589 130.473  0.00  0.00    +0.000 P 
ATOM      2  O   UNL     1     -12.960   7.026 131.365  0.00  0.00    +0.000 OA
ATOM      3  N   UNL     1     -11.111   7.900 129.792  0.00  0.00    +0.000 NA
ATOM      4  C   UNL     1     -12.026   8.707 128.962  0.00  0.00    +0.000 C 
ATOM      5  C   UNL     1     -13.367   8.019 128.657  0.00  0.00    +0.000 C 
ATOM      6  C   UNL     1     -13.163   6.554 128.270  0.00  0.00    +0.000 C 
ATOM      7  O   UNL     1     -12.391   5.799 129.202  0.00  0.00    +0.000 OA
ATOM      8  H   UNL     1     -10.715   8.516 130.496  0.00  0.00    +0.000 HD
ENDROOT
BRANCH   1   9
ATOM      9  N   UNL     1     -10.683   5.615 131.271  0.00  0.00    +0.000 NA
BRANCH   9  10
ATOM     10  C   UNL     1     -10.351   4.550 130.286  0.00  0.00    +0.000 C 
BRANCH  10  12
ATOM     11 CL   UNL     1     -10.194   2.236 131.684  0.00  0.00    +0.000 Cl
ATOM     12  C   UNL     1      -9.422   3.377 130.543  0.00  0.00    +0.000 C 
ENDBRANCH  10  12
ENDBRANCH   9  10
BRANCH   9  13
ATOM     13  C   UNL     1      -9.476   6.295 131.841  0.00  0.00    +0.000 C 
BRANCH  13  14
ATOM     14  C   UNL     1      -8.324   6.717 130.896  0.00  0.00    +0.000 C 
ATOM     15 CL   UNL     1      -6.715   6.616 131.662  0.00  0.00    +0.000 Cl
ENDBRANCH  13  14
ENDBRANCH   9  13
ENDBRANCH   1   9
TORSDOF 5
ENDMDL
MODEL 9
REMARK VINA RESULT:      -4.7      3.688      5.486
REMARK  Name = Cyclophosphamide
REMARK  5 active torsions:
REMARK  status: ('A' for Active; 'I' for Inactive)
REMARK    1  A    between atoms: C_2  and  C_3
REMARK    2  A    between atoms: C_3  and  N_4
REMARK    3  A    between atoms: N_4  and  C_5
REMARK    4  A    between atoms: N_4  and  P_8
REMARK    5  A    between atoms: C_5  and  C_6
REMARK                            x       y       z     vdW  Elec       q    Type
REMARK                         _______ _______ _______ _____ _____    ______ ____
ROOT
ATOM      1  P   UNL     1     -10.016   6.796 130.031  0.00  0.00    +0.000 P 
ATOM      2  O   UNL     1     -10.124   5.551 129.170  0.00  0.00    +0.000 OA
ATOM      3  N   UNL     1     -11.489   7.188 130.626  0.00  0.00    +0.000 NA
ATOM      4  C   UNL     1     -12.500   7.463 129.588  0.00  0.00    +0.000 C 
ATOM      5  C   UNL     1     -11.920   7.616 128.171  0.00  0.00    +0.000 C 
ATOM      6  C   UNL     1     -10.659   8.480 128.180  0.00  0.00    +0.000 C 
ATOM      7  O   UNL     1      -9.661   8.058 129.108  0.00  0.00    +0.000 OA
ATOM      8  H   UNL     1     -11.855   6.452 131.222  0.00  0.00    +0.000 HD
ENDROOT
BRANCH   1   9
ATOM      9  N   UNL     1      -8.860   6.657 131.259  0.00  0.00    +0.000 NA
BRANCH   9  10
ATOM     10  C   UNL     1      -9.555   5.903 132.338  0.00  0.00    +0.000 C 
BRANCH  10  12
ATOM     11 CL   UNL     1      -8.598   4.273 134.278  0.00  0.00    +0.000 Cl
ATOM     12  C   UNL     1      -9.342   4.435 132.659  0.00  0.00    +0.000 C 
ENDBRANCH  10  12
ENDBRANCH   9  10
BRANCH   9  13
ATOM     13  C   UNL     1      -7.532   6.073 130.885  0.00  0.00    +0.000 C 
BRANCH  13  14
ATOM     14  C   UNL     1      -6.237   6.718 131.436  0.00  0.00    +0.000 C 
ATOM     15 CL   UNL     1      -5.711   6.017 132.992  0.00  0.00    +0.000 Cl
ENDBRANCH  13  14
ENDBRANCH   9  13
ENDBRANCH   1   9
TORSDOF 5
ENDMDL
