MODEL 1
REMARK VINA RESULT:      -7.6      0.000      0.000
REMARK  Name = Cyclopenthiazide
REMARK  4 active torsions:
REMARK  status: ('A' for Active; 'I' for Inactive)
REMARK    1  A    between atoms: N_1  and  S_2
REMARK    2  A    between atoms: S_2  and  C_5
REMARK    3  A    between atoms: C_10  and  C_11
REMARK    4  A    between atoms: C_11  and  C_12
REMARK                            x       y       z     vdW  Elec       q    Type
REMARK                         _______ _______ _______ _____ _____    ______ ____
ROOT
ATOM      1  C   UNL     1     -10.690   6.868 129.879  0.00  0.00    +0.000 A 
ATOM      2  C   UNL     1      -9.317   6.555 129.963  0.00  0.00    +0.000 A 
ATOM      3  C   UNL     1      -8.777   6.187 131.195  0.00  0.00    +0.000 A 
ATOM      4  C   UNL     1      -9.587   6.058 132.310  0.00  0.00    +0.000 A 
ATOM      5  N   UNL     1      -9.111   5.590 133.506  0.00  0.00    +0.000 N 
ATOM      6  C   UNL     1      -7.722   5.617 133.858  0.00  0.00    +0.000 C 
ATOM      7  N   UNL     1      -7.046   4.878 132.829  0.00  0.00    +0.000 NA
ATOM      8  S   UNL     1      -7.074   5.725 131.365  0.00  0.00    +0.000 S 
ATOM      9  O   UNL     1      -6.313   6.945 131.544  0.00  0.00    +0.000 OA
ATOM     10  O   UNL     1      -6.770   4.759 130.340  0.00  0.00    +0.000 OA
ATOM     11  C   UNL     1     -10.934   6.427 132.226  0.00  0.00    +0.000 A 
ATOM     12  C   UNL     1     -11.491   6.853 131.022  0.00  0.00    +0.000 A 
ATOM     13 CL   UNL     1     -13.147   7.344 131.081  0.00  0.00    +0.000 Cl
ATOM     14  H   UNL     1      -9.675   4.859 133.927  0.00  0.00    +0.000 HD
ATOM     15  H   UNL     1      -7.375   3.926 132.702  0.00  0.00    +0.000 HD
ENDROOT
BRANCH   1  16
ATOM     16  S   UNL     1     -11.373   7.254 128.297  0.00  0.00    +0.000 S 
ATOM     17  O   UNL     1     -11.510   8.688 128.205  0.00  0.00    +0.000 OA
ATOM     18  O   UNL     1     -12.480   6.359 128.060  0.00  0.00    +0.000 OA
BRANCH  16  19
ATOM     19  N   UNL     1     -10.166   6.844 127.191  0.00  0.00    +0.000 NA
ATOM     20  H   UNL     1      -9.254   6.935 127.644  0.00  0.00    +0.000 HD
ATOM     21  H   UNL     1     -10.206   7.449 126.367  0.00  0.00    +0.000 HD
ENDBRANCH  16  19
ENDBRANCH   1  16
BRANCH   6  22
ATOM     22  C   UNL     1      -7.535   4.981 135.245  0.00  0.00    +0.000 C 
BRANCH  22  23
ATOM     23  C   UNL     1      -7.076   5.972 136.344  0.00  0.00    +0.000 C 
ATOM     24  C   UNL     1      -8.195   6.511 137.233  0.00  0.00    +0.000 C 
ATOM     25  C   UNL     1      -7.477   7.033 138.478  0.00  0.00    +0.000 C 
ATOM     26  C   UNL     1      -6.194   6.227 138.624  0.00  0.00    +0.000 C 
ATOM     27  C   UNL     1      -6.108   5.381 137.377  0.00  0.00    +0.000 C 
ENDBRANCH  22  23
ENDBRANCH   6  22
TORSDOF 4
ENDMDL
MODEL 2
REMARK VINA RESULT:      -7.6      4.283      7.305
REMARK  Name = Cyclopenthiazide
REMARK  4 active torsions:
REMARK  status: ('A' for Active; 'I' for Inactive)
REMARK    1  A    between atoms: N_1  and  S_2
REMARK    2  A    between atoms: S_2  and  C_5
REMARK    3  A    between atoms: C_10  and  C_11
REMARK    4  A    between atoms: C_11  and  C_12
REMARK                            x       y       z     vdW  Elec       q    Type
REMARK                         _______ _______ _______ _____ _____    ______ ____
ROOT
ATOM      1  C   UNL     1      -7.455   1.685 132.791  0.00  0.00    +0.000 A 
ATOM      2  C   UNL     1      -7.270   3.035 133.155  0.00  0.00    +0.000 A 
ATOM      3  C   UNL     1      -8.242   3.973 132.809  0.00  0.00    +0.000 A 
ATOM      4  C   UNL     1      -9.410   3.579 132.179  0.00  0.00    +0.000 A 
ATOM      5  N   UNL     1     -10.432   4.454 131.926  0.00  0.00    +0.000 N 
ATOM      6  C   UNL     1     -10.248   5.873 131.864  0.00  0.00    +0.000 C 
ATOM      7  N   UNL     1      -9.690   6.249 133.132  0.00  0.00    +0.000 NA
ATOM      8  S   UNL     1      -8.105   5.675 133.284  0.00  0.00    +0.000 S 
ATOM      9  O   UNL     1      -7.296   6.339 132.281  0.00  0.00    +0.000 OA
ATOM     10  O   UNL     1      -7.798   5.722 134.691  0.00  0.00    +0.000 OA
ATOM     11  C   UNL     1      -9.554   2.248 131.771  0.00  0.00    +0.000 A 
ATOM     12  C   UNL     1      -8.574   1.298 132.052  0.00  0.00    +0.000 A 
ATOM     13 CL   UNL     1      -8.851  -0.289 131.428  0.00  0.00    +0.000 Cl
ATOM     14  H   UNL     1     -11.349   4.124 132.211  0.00  0.00    +0.000 HD
ATOM     15  H   UNL     1     -10.248   5.985 133.938  0.00  0.00    +0.000 HD
ENDROOT
BRANCH   1  16
ATOM     16  S   UNL     1      -6.253   0.499 133.307  0.00  0.00    +0.000 S 
ATOM     17  O   UNL     1      -5.541   0.042 132.137  0.00  0.00    +0.000 OA
ATOM     18  O   UNL     1      -6.894  -0.414 134.222  0.00  0.00    +0.000 OA
BRANCH  16  19
ATOM     19  N   UNL     1      -5.129   1.382 134.203  0.00  0.00    +0.000 NA
ATOM     20  H   UNL     1      -4.346   1.638 133.597  0.00  0.00    +0.000 HD
ATOM     21  H   UNL     1      -4.787   0.836 134.998  0.00  0.00    +0.000 HD
ENDBRANCH  16  19
ENDBRANCH   1  16
BRANCH   6  22
ATOM     22  C   UNL     1     -11.602   6.553 131.604  0.00  0.00    +0.000 C 
BRANCH  22  23
ATOM     23  C   UNL     1     -11.782   7.085 130.160  0.00  0.00    +0.000 C 
ATOM     24  C   UNL     1     -12.626   8.353 130.041  0.00  0.00    +0.000 C 
ATOM     25  C   UNL     1     -12.259   8.931 128.674  0.00  0.00    +0.000 C 
ATOM     26  C   UNL     1     -10.841   8.472 128.363  0.00  0.00    +0.000 C 
ATOM     27  C   UNL     1     -10.482   7.504 129.464  0.00  0.00    +0.000 C 
ENDBRANCH  22  23
ENDBRANCH   6  22
TORSDOF 4
ENDMDL
MODEL 3
REMARK VINA RESULT:      -7.5      4.557      7.118
REMARK  Name = Cyclopenthiazide
REMARK  4 active torsions:
REMARK  status: ('A' for Active; 'I' for Inactive)
REMARK    1  A    between atoms: N_1  and  S_2
REMARK    2  A    between atoms: S_2  and  C_5
REMARK    3  A    between atoms: C_10  and  C_11
REMARK    4  A    between atoms: C_11  and  C_12
REMARK                            x       y       z     vdW  Elec       q    Type
REMARK                         _______ _______ _______ _____ _____    ______ ____
ROOT
ATOM      1  C   UNL     1      -5.618   5.267 131.227  0.00  0.00    +0.000 A 
ATOM      2  C   UNL     1      -6.664   4.408 131.628  0.00  0.00    +0.000 A 
ATOM      3  C   UNL     1      -7.969   4.897 131.671  0.00  0.00    +0.000 A 
ATOM      4  C   UNL     1      -8.252   6.188 131.258  0.00  0.00    +0.000 A 
ATOM      5  N   UNL     1      -9.534   6.663 131.180  0.00  0.00    +0.000 N 
ATOM      6  C   UNL     1     -10.626   6.086 131.905  0.00  0.00    +0.000 C 
ATOM      7  N   UNL     1     -10.674   4.708 131.505  0.00  0.00    +0.000 NA
ATOM      8  S   UNL     1      -9.338   3.861 132.109  0.00  0.00    +0.000 S 
ATOM      9  O   UNL     1      -9.432   3.859 133.555  0.00  0.00    +0.000 OA
ATOM     10  O   UNL     1      -9.248   2.652 131.330  0.00  0.00    +0.000 OA
ATOM     11  C   UNL     1      -7.200   7.047 130.919  0.00  0.00    +0.000 A 
ATOM     12  C   UNL     1      -5.879   6.603 130.921  0.00  0.00    +0.000 A 
ATOM     13 CL   UNL     1      -4.678   7.789 130.550  0.00  0.00    +0.000 Cl
ATOM     14  H   UNL     1      -9.760   7.125 130.305  0.00  0.00    +0.000 HD
ATOM     15  H   UNL     1     -10.775   4.558 130.507  0.00  0.00    +0.000 HD
ENDROOT
BRANCH   1  16
ATOM     16  S   UNL     1      -3.985   4.608 131.102  0.00  0.00    +0.000 S 
ATOM     17  O   UNL     1      -3.188   5.180 132.162  0.00  0.00    +0.000 OA
ATOM     18  O   UNL     1      -3.584   4.673 129.718  0.00  0.00    +0.000 OA
BRANCH  16  19
ATOM     19  N   UNL     1      -4.145   2.974 131.489  0.00  0.00    +0.000 NA
ATOM     20  H   UNL     1      -4.502   2.890 132.444  0.00  0.00    +0.000 HD
ATOM     21  H   UNL     1      -3.246   2.491 131.412  0.00  0.00    +0.000 HD
ENDBRANCH  16  19
ENDBRANCH   1  16
BRANCH   6  22
ATOM     22  C   UNL     1     -11.923   6.834 131.557  0.00  0.00    +0.000 C 
BRANCH  22  23
ATOM     23  C   UNL     1     -11.984   7.363 130.103  0.00  0.00    +0.000 C 
ATOM     24  C   UNL     1     -12.832   6.524 129.148  0.00  0.00    +0.000 C 
ATOM     25  C   UNL     1     -13.133   7.462 127.979  0.00  0.00    +0.000 C 
ATOM     26  C   UNL     1     -13.103   8.882 128.528  0.00  0.00    +0.000 C 
ATOM     27  C   UNL     1     -12.618   8.751 129.951  0.00  0.00    +0.000 C 
ENDBRANCH  22  23
ENDBRANCH   6  22
TORSDOF 4
ENDMDL
MODEL 4
REMARK VINA RESULT:      -7.2      6.702     10.489
REMARK  Name = Cyclopenthiazide
REMARK  4 active torsions:
REMARK  status: ('A' for Active; 'I' for Inactive)
REMARK    1  A    between atoms: N_1  and  S_2
REMARK    2  A    between atoms: S_2  and  C_5
REMARK    3  A    between atoms: C_10  and  C_11
REMARK    4  A    between atoms: C_11  and  C_12
REMARK                            x       y       z     vdW  Elec       q    Type
REMARK                         _______ _______ _______ _____ _____    ______ ____
ROOT
ATOM      1  C   UNL     1      -8.099   2.547 129.212  0.00  0.00    +0.000 A 
ATOM      2  C   UNL     1      -8.041   3.681 128.375  0.00  0.00    +0.000 A 
ATOM      3  C   UNL     1      -7.855   3.507 127.004  0.00  0.00    +0.000 A 
ATOM      4  C   UNL     1      -7.800   2.238 126.455  0.00  0.00    +0.000 A 
ATOM      5  N   UNL     1      -7.731   2.030 125.104  0.00  0.00    +0.000 N 
ATOM      6  C   UNL     1      -7.272   3.027 124.183  0.00  0.00    +0.000 C 
ATOM      7  N   UNL     1      -8.127   4.164 124.382  0.00  0.00    +0.000 NA
ATOM      8  S   UNL     1      -7.830   4.882 125.885  0.00  0.00    +0.000 S 
ATOM      9  O   UNL     1      -6.477   5.400 125.869  0.00  0.00    +0.000 OA
ATOM     10  O   UNL     1      -8.978   5.705 126.166  0.00  0.00    +0.000 OA
ATOM     11  C   UNL     1      -7.799   1.123 127.302  0.00  0.00    +0.000 A 
ATOM     12  C   UNL     1      -7.927   1.268 128.682  0.00  0.00    +0.000 A 
ATOM     13 CL   UNL     1      -7.840  -0.188 129.611  0.00  0.00    +0.000 Cl
ATOM     14  H   UNL     1      -8.396   1.351 124.747  0.00  0.00    +0.000 HD
ATOM     15  H   UNL     1      -9.117   3.978 124.259  0.00  0.00    +0.000 HD
ENDROOT
BRANCH   1  16
ATOM     16  S   UNL     1      -8.415   2.783 130.933  0.00  0.00    +0.000 S 
ATOM     17  O   UNL     1      -7.210   2.459 131.660  0.00  0.00    +0.000 OA
ATOM     18  O   UNL     1      -9.685   2.172 131.240  0.00  0.00    +0.000 OA
BRANCH  16  19
ATOM     19  N   UNL     1      -8.617   4.448 131.113  0.00  0.00    +0.000 NA
ATOM     20  H   UNL     1      -8.666   4.673 132.110  0.00  0.00    +0.000 HD
ATOM     21  H   UNL     1      -9.470   4.765 130.645  0.00  0.00    +0.000 HD
ENDBRANCH  16  19
ENDBRANCH   1  16
BRANCH   6  22
ATOM     22  C   UNL     1      -7.362   2.480 122.749  0.00  0.00    +0.000 C 
BRANCH  22  23
ATOM     23  C   UNL     1      -7.499   3.569 121.657  0.00  0.00    +0.000 C 
ATOM     24  C   UNL     1      -6.417   3.539 120.579  0.00  0.00    +0.000 C 
ATOM     25  C   UNL     1      -7.014   4.330 119.415  0.00  0.00    +0.000 C 
ATOM     26  C   UNL     1      -8.527   4.195 119.514  0.00  0.00    +0.000 C 
ATOM     27  C   UNL     1      -8.780   3.482 120.820  0.00  0.00    +0.000 C 
ENDBRANCH  22  23
ENDBRANCH   6  22
TORSDOF 4
ENDMDL
MODEL 5
REMARK VINA RESULT:      -7.2      9.256     12.334
REMARK  Name = Cyclopenthiazide
REMARK  4 active torsions:
REMARK  status: ('A' for Active; 'I' for Inactive)
REMARK    1  A    between atoms: N_1  and  S_2
REMARK    2  A    between atoms: S_2  and  C_5
REMARK    3  A    between atoms: C_10  and  C_11
REMARK    4  A    between atoms: C_11  and  C_12
REMARK                            x       y       z     vdW  Elec       q    Type
REMARK                         _______ _______ _______ _____ _____    ______ ____
ROOT
ATOM      1  C   UNL     1      -6.890  -0.779 126.057  0.00  0.00    +0.000 A 
ATOM      2  C   UNL     1      -7.018   0.617 126.222  0.00  0.00    +0.000 A 
ATOM      3  C   UNL     1      -7.260   1.416 125.106  0.00  0.00    +0.000 A 
ATOM      4  C   UNL     1      -7.445   0.847 123.858  0.00  0.00    +0.000 A 
ATOM      5  N   UNL     1      -7.795   1.590 122.762  0.00  0.00    +0.000 N 
ATOM      6  C   UNL     1      -7.574   3.003 122.675  0.00  0.00    +0.000 C 
ATOM      7  N   UNL     1      -8.263   3.575 123.797  0.00  0.00    +0.000 NA
ATOM      8  S   UNL     1      -7.490   3.167 125.246  0.00  0.00    +0.000 S 
ATOM      9  O   UNL     1      -6.175   3.777 125.234  0.00  0.00    +0.000 OA
ATOM     10  O   UNL     1      -8.452   3.408 126.291  0.00  0.00    +0.000 OA
ATOM     11  C   UNL     1      -7.257  -0.531 123.697  0.00  0.00    +0.000 A 
ATOM     12  C   UNL     1      -6.958  -1.349 124.785  0.00  0.00    +0.000 A 
ATOM     13 CL   UNL     1      -6.683  -3.018 124.429  0.00  0.00    +0.000 Cl
ATOM     14  H   UNL     1      -8.574   1.215 122.230  0.00  0.00    +0.000 HD
ATOM     15  H   UNL     1      -9.253   3.360 123.842  0.00  0.00    +0.000 HD
ENDROOT
BRANCH   1  16
ATOM     16  S   UNL     1      -6.664  -1.783 127.491  0.00  0.00    +0.000 S 
ATOM     17  O   UNL     1      -5.256  -2.079 127.615  0.00  0.00    +0.000 OA
ATOM     18  O   UNL     1      -7.669  -2.817 127.473  0.00  0.00    +0.000 OA
BRANCH  16  19
ATOM     19  N   UNL     1      -7.027  -0.770 128.791  0.00  0.00    +0.000 NA
ATOM     20  H   UNL     1      -7.934  -1.039 129.181  0.00  0.00    +0.000 HD
ATOM     21  H   UNL     1      -7.055   0.209 128.495  0.00  0.00    +0.000 HD
ENDBRANCH  16  19
ENDBRANCH   1  16
BRANCH   6  22
ATOM     22  C   UNL     1      -8.119   3.523 121.334  0.00  0.00    +0.000 C 
BRANCH  22  23
ATOM     23  C   UNL     1      -7.029   3.828 120.277  0.00  0.00    +0.000 C 
ATOM     24  C   UNL     1      -7.494   4.686 119.102  0.00  0.00    +0.000 C 
ATOM     25  C   UNL     1      -6.204   5.240 118.497  0.00  0.00    +0.000 C 
ATOM     26  C   UNL     1      -5.178   5.305 119.620  0.00  0.00    +0.000 C 
ATOM     27  C   UNL     1      -5.834   4.632 120.801  0.00  0.00    +0.000 C 
ENDBRANCH  22  23
ENDBRANCH   6  22
TORSDOF 4
ENDMDL
MODEL 6
REMARK VINA RESULT:      -7.1      7.775     10.668
REMARK  Name = Cyclopenthiazide
REMARK  4 active torsions:
REMARK  status: ('A' for Active; 'I' for Inactive)
REMARK    1  A    between atoms: N_1  and  S_2
REMARK    2  A    between atoms: S_2  and  C_5
REMARK    3  A    between atoms: C_10  and  C_11
REMARK    4  A    between atoms: C_11  and  C_12
REMARK                            x       y       z     vdW  Elec       q    Type
REMARK                         _______ _______ _______ _____ _____    ______ ____
ROOT
ATOM      1  C   UNL     1      -4.965   4.120 127.892  0.00  0.00    +0.000 A 
ATOM      2  C   UNL     1      -6.312   3.798 127.618  0.00  0.00    +0.000 A 
ATOM      3  C   UNL     1      -6.598   2.810 126.677  0.00  0.00    +0.000 A 
ATOM      4  C   UNL     1      -5.578   2.098 126.070  0.00  0.00    +0.000 A 
ATOM      5  N   UNL     1      -5.824   1.046 125.228  0.00  0.00    +0.000 N 
ATOM      6  C   UNL     1      -7.075   0.861 124.555  0.00  0.00    +0.000 C 
ATOM      7  N   UNL     1      -8.069   0.801 125.589  0.00  0.00    +0.000 NA
ATOM      8  S   UNL     1      -8.262   2.313 126.324  0.00  0.00    +0.000 S 
ATOM      9  O   UNL     1      -8.782   3.227 125.326  0.00  0.00    +0.000 OA
ATOM     10  O   UNL     1      -8.928   2.065 127.577  0.00  0.00    +0.000 OA
ATOM     11  C   UNL     1      -4.248   2.466 126.307  0.00  0.00    +0.000 A 
ATOM     12  C   UNL     1      -3.932   3.489 127.199  0.00  0.00    +0.000 A 
ATOM     13 CL   UNL     1      -2.255   3.883 127.340  0.00  0.00    +0.000 Cl
ATOM     14  H   UNL     1      -5.286   0.209 125.430  0.00  0.00    +0.000 HD
ATOM     15  H   UNL     1      -7.915   0.078 126.285  0.00  0.00    +0.000 HD
ENDROOT
BRANCH   1  16
ATOM     16  S   UNL     1      -4.621   5.317 129.143  0.00  0.00    +0.000 S 
ATOM     17  O   UNL     1      -4.225   6.545 128.493  0.00  0.00    +0.000 OA
ATOM     18  O   UNL     1      -3.808   4.685 130.153  0.00  0.00    +0.000 OA
BRANCH  16  19
ATOM     19  N   UNL     1      -6.116   5.645 129.853  0.00  0.00    +0.000 NA
ATOM     20  H   UNL     1      -6.236   6.658 129.927  0.00  0.00    +0.000 HD
ATOM     21  H   UNL     1      -6.179   5.221 130.782  0.00  0.00    +0.000 HD
ENDBRANCH  16  19
ENDBRANCH   1  16
BRANCH   6  22
ATOM     22  C   UNL     1      -7.023  -0.433 123.727  0.00  0.00    +0.000 C 
BRANCH  22  23
ATOM     23  C   UNL     1      -8.023  -1.525 124.185  0.00  0.00    +0.000 C 
ATOM     24  C   UNL     1      -8.957  -2.041 123.092  0.00  0.00    +0.000 C 
ATOM     25  C   UNL     1      -9.467  -3.380 123.626  0.00  0.00    +0.000 C 
ATOM     26  C   UNL     1      -8.394  -3.925 124.559  0.00  0.00    +0.000 C 
ATOM     27  C   UNL     1      -7.373  -2.821 124.684  0.00  0.00    +0.000 C 
ENDBRANCH  22  23
ENDBRANCH   6  22
TORSDOF 4
ENDMDL
MODEL 7
REMARK VINA RESULT:      -7.0      9.118     11.465
REMARK  Name = Cyclopenthiazide
REMARK  4 active torsions:
REMARK  status: ('A' for Active; 'I' for Inactive)
REMARK    1  A    between atoms: N_1  and  S_2
REMARK    2  A    between atoms: S_2  and  C_5
REMARK    3  A    between atoms: C_10  and  C_11
REMARK    4  A    between atoms: C_11  and  C_12
REMARK                            x       y       z     vdW  Elec       q    Type
REMARK                         _______ _______ _______ _____ _____    ______ ____
ROOT
ATOM      1  C   UNL     1      -7.026   3.136 125.739  0.00  0.00    +0.000 A 
ATOM      2  C   UNL     1      -8.169   2.520 125.187  0.00  0.00    +0.000 A 
ATOM      3  C   UNL     1      -8.120   1.167 124.855  0.00  0.00    +0.000 A 
ATOM      4  C   UNL     1      -6.991   0.414 125.128  0.00  0.00    +0.000 A 
ATOM      5  N   UNL     1      -6.950  -0.939 124.920  0.00  0.00    +0.000 N 
ATOM      6  C   UNL     1      -7.838  -1.619 124.025  0.00  0.00    +0.000 C 
ATOM      7  N   UNL     1      -9.163  -1.314 124.487  0.00  0.00    +0.000 NA
ATOM      8  S   UNL     1      -9.535   0.314 124.213  0.00  0.00    +0.000 S 
ATOM      9  O   UNL     1      -9.554   0.529 122.780  0.00  0.00    +0.000 OA
ATOM     10  O   UNL     1     -10.659   0.614 125.063  0.00  0.00    +0.000 OA
ATOM     11  C   UNL     1      -5.845   1.049 125.621  0.00  0.00    +0.000 A 
ATOM     12  C   UNL     1      -5.845   2.412 125.909  0.00  0.00    +0.000 A 
ATOM     13 CL   UNL     1      -4.341   3.076 126.443  0.00  0.00    +0.000 Cl
ATOM     14  H   UNL     1      -6.592  -1.475 125.704  0.00  0.00    +0.000 HD
ATOM     15  H   UNL     1      -9.347  -1.570 125.452  0.00  0.00    +0.000 HD
ENDROOT
BRANCH   1  16
ATOM     16  S   UNL     1      -7.131   4.830 126.227  0.00  0.00    +0.000 S 
ATOM     17  O   UNL     1      -6.232   5.594 125.394  0.00  0.00    +0.000 OA
ATOM     18  O   UNL     1      -7.076   4.882 127.667  0.00  0.00    +0.000 OA
BRANCH  16  19
ATOM     19  N   UNL     1      -8.683   5.315 125.778  0.00  0.00    +0.000 NA
ATOM     20  H   UNL     1      -8.612   6.042 125.061  0.00  0.00    +0.000 HD
ATOM     21  H   UNL     1      -9.201   5.674 126.584  0.00  0.00    +0.000 HD
ENDBRANCH  16  19
ENDBRANCH   1  16
BRANCH   6  22
ATOM     22  C   UNL     1      -7.545  -3.127 124.063  0.00  0.00    +0.000 C 
BRANCH  22  23
ATOM     23  C   UNL     1      -6.048  -3.482 124.240  0.00  0.00    +0.000 C 
ATOM     24  C   UNL     1      -5.708  -4.959 124.044  0.00  0.00    +0.000 C 
ATOM     25  C   UNL     1      -4.202  -4.974 123.784  0.00  0.00    +0.000 C 
ATOM     26  C   UNL     1      -3.843  -3.631 123.165  0.00  0.00    +0.000 C 
ATOM     27  C   UNL     1      -5.105  -2.806 123.238  0.00  0.00    +0.000 C 
ENDBRANCH  22  23
ENDBRANCH   6  22
TORSDOF 4
ENDMDL
MODEL 8
REMARK VINA RESULT:      -6.8      7.431     10.353
REMARK  Name = Cyclopenthiazide
REMARK  4 active torsions:
REMARK  status: ('A' for Active; 'I' for Inactive)
REMARK    1  A    between atoms: N_1  and  S_2
REMARK    2  A    between atoms: S_2  and  C_5
REMARK    3  A    between atoms: C_10  and  C_11
REMARK    4  A    between atoms: C_11  and  C_12
REMARK                            x       y       z     vdW  Elec       q    Type
REMARK                         _______ _______ _______ _____ _____    ______ ____
ROOT
ATOM      1  C   UNL     1      -4.905   4.160 127.760  0.00  0.00    +0.000 A 
ATOM      2  C   UNL     1      -5.874   4.446 126.775  0.00  0.00    +0.000 A 
ATOM      3  C   UNL     1      -6.756   3.443 126.375  0.00  0.00    +0.000 A 
ATOM      4  C   UNL     1      -6.733   2.200 126.984  0.00  0.00    +0.000 A 
ATOM      5  N   UNL     1      -7.656   1.230 126.696  0.00  0.00    +0.000 N 
ATOM      6  C   UNL     1      -8.418   1.214 125.483  0.00  0.00    +0.000 C 
ATOM      7  N   UNL     1      -9.114   2.469 125.443  0.00  0.00    +0.000 NA
ATOM      8  S   UNL     1      -8.035   3.746 125.186  0.00  0.00    +0.000 S 
ATOM      9  O   UNL     1      -7.450   3.574 123.871  0.00  0.00    +0.000 OA
ATOM     10  O   UNL     1      -8.733   4.943 125.579  0.00  0.00    +0.000 OA
ATOM     11  C   UNL     1      -5.730   1.911 127.917  0.00  0.00    +0.000 A 
ATOM     12  C   UNL     1      -4.799   2.876 128.295  0.00  0.00    +0.000 A 
ATOM     13 CL   UNL     1      -3.576   2.359 129.402  0.00  0.00    +0.000 Cl
ATOM     14  H   UNL     1      -8.084   0.800 127.510  0.00  0.00    +0.000 HD
ATOM     15  H   UNL     1      -9.706   2.652 126.247  0.00  0.00    +0.000 HD
ENDROOT
BRANCH   1  16
ATOM     16  S   UNL     1      -3.850   5.464 128.311  0.00  0.00    +0.000 S 
ATOM     17  O   UNL     1      -3.794   5.417 129.753  0.00  0.00    +0.000 OA
ATOM     18  O   UNL     1      -4.212   6.662 127.594  0.00  0.00    +0.000 OA
BRANCH  16  19
ATOM     19  N   UNL     1      -2.308   5.026 127.785  0.00  0.00    +0.000 NA
ATOM     20  H   UNL     1      -2.391   4.471 126.930  0.00  0.00    +0.000 HD
ATOM     21  H   UNL     1      -1.817   4.486 128.502  0.00  0.00    +0.000 HD
ENDBRANCH  16  19
ENDBRANCH   1  16
BRANCH   6  22
ATOM     22  C   UNL     1      -9.383   0.017 125.502  0.00  0.00    +0.000 C 
BRANCH  22  23
ATOM     23  C   UNL     1      -8.793  -1.288 124.912  0.00  0.00    +0.000 C 
ATOM     24  C   UNL     1      -9.307  -2.575 125.555  0.00  0.00    +0.000 C 
ATOM     25  C   UNL     1      -8.990  -3.667 124.533  0.00  0.00    +0.000 C 
ATOM     26  C   UNL     1      -8.978  -3.004 123.162  0.00  0.00    +0.000 C 
ATOM     27  C   UNL     1      -9.114  -1.525 123.432  0.00  0.00    +0.000 C 
ENDBRANCH  22  23
ENDBRANCH   6  22
TORSDOF 4
ENDMDL
MODEL 9
REMARK VINA RESULT:      -6.8      6.507      9.770
REMARK  Name = Cyclopenthiazide
REMARK  4 active torsions:
REMARK  status: ('A' for Active; 'I' for Inactive)
REMARK    1  A    between atoms: N_1  and  S_2
REMARK    2  A    between atoms: S_2  and  C_5
REMARK    3  A    between atoms: C_10  and  C_11
REMARK    4  A    between atoms: C_11  and  C_12
REMARK                            x       y       z     vdW  Elec       q    Type
REMARK                         _______ _______ _______ _____ _____    ______ ____
ROOT
ATOM      1  C   UNL     1      -8.149   3.386 129.619  0.00  0.00    +0.000 A 
ATOM      2  C   UNL     1      -8.076   4.282 128.531  0.00  0.00    +0.000 A 
ATOM      3  C   UNL     1      -7.954   3.774 127.238  0.00  0.00    +0.000 A 
ATOM      4  C   UNL     1      -7.978   2.409 127.011  0.00  0.00    +0.000 A 
ATOM      5  N   UNL     1      -7.974   1.880 125.748  0.00  0.00    +0.000 N 
ATOM      6  C   UNL     1      -7.510   2.601 124.601  0.00  0.00    +0.000 C 
ATOM      7  N   UNL     1      -8.304   3.796 124.544  0.00  0.00    +0.000 NA
ATOM      8  S   UNL     1      -7.915   4.837 125.820  0.00  0.00    +0.000 S 
ATOM      9  O   UNL     1      -6.542   5.264 125.639  0.00  0.00    +0.000 OA
ATOM     10  O   UNL     1      -9.013   5.763 125.927  0.00  0.00    +0.000 OA
ATOM     11  C   UNL     1      -7.992   1.532 128.102  0.00  0.00    +0.000 A 
ATOM     12  C   UNL     1      -8.056   2.010 129.409  0.00  0.00    +0.000 A 
ATOM     13 CL   UNL     1      -7.995   0.818 130.659  0.00  0.00    +0.000 Cl
ATOM     14  H   UNL     1      -8.682   1.171 125.586  0.00  0.00    +0.000 HD
ATOM     15  H   UNL     1      -9.306   3.638 124.499  0.00  0.00    +0.000 HD
ENDROOT
BRANCH   1  16
ATOM     16  S   UNL     1      -8.383   4.045 131.240  0.00  0.00    +0.000 S 
ATOM     17  O   UNL     1      -7.165   3.840 131.988  0.00  0.00    +0.000 OA
ATOM     18  O   UNL     1      -9.667   3.595 131.722  0.00  0.00    +0.000 OA
BRANCH  16  19
ATOM     19  N   UNL     1      -8.501   5.713 131.019  0.00  0.00    +0.000 NA
ATOM     20  H   UNL     1      -8.499   6.173 131.932  0.00  0.00    +0.000 HD
ATOM     21  H   UNL     1      -9.357   5.954 130.512  0.00  0.00    +0.000 HD
ENDBRANCH  16  19
ENDBRANCH   1  16
BRANCH   6  22
ATOM     22  C   UNL     1      -7.683   1.731 123.345  0.00  0.00    +0.000 C 
BRANCH  22  23
ATOM     23  C   UNL     1      -7.914   0.227 123.638  0.00  0.00    +0.000 C 
ATOM     24  C   UNL     1      -9.194  -0.356 123.041  0.00  0.00    +0.000 C 
ATOM     25  C   UNL     1      -8.960  -1.866 123.034  0.00  0.00    +0.000 C 
ATOM     26  C   UNL     1      -7.456  -2.083 122.938  0.00  0.00    +0.000 C 
ATOM     27  C   UNL     1      -6.844  -0.710 123.067  0.00  0.00    +0.000 C 
ENDBRANCH  22  23
ENDBRANCH   6  22
TORSDOF 4
ENDMDL
