MODEL 1
REMARK VINA RESULT:      -7.8      0.000      0.000
REMARK  Name = Cyclothiazide
REMARK  3 active torsions:
REMARK  status: ('A' for Active; 'I' for Inactive)
REMARK    1  A    between atoms: N_1  and  S_2
REMARK    2  A    between atoms: S_2  and  C_5
REMARK    3  A    between atoms: C_11  and  C_18
REMARK                            x       y       z     vdW  Elec       q    Type
REMARK                         _______ _______ _______ _____ _____    ______ ____
ROOT
ATOM      1  C   UNL     1      -7.812   2.149 132.299  0.00  0.00    +0.000 A 
ATOM      2  C   UNL     1      -8.864   1.581 131.582  0.00  0.00    +0.000 A 
ATOM      3 CL   UNL     1      -8.974  -0.085 131.145  0.00  0.00    +0.000 Cl
ATOM      4  C   UNL     1      -9.903   2.414 131.164  0.00  0.00    +0.000 A 
ATOM      5  C   UNL     1      -9.873   3.798 131.437  0.00  0.00    +0.000 A 
ATOM      6  N   UNL     1     -10.931   4.588 131.084  0.00  0.00    +0.000 N 
ATOM      7  C   UNL     1     -10.862   6.059 130.859  0.00  0.00    +0.000 C 
ATOM      8  N   UNL     1     -10.405   6.554 132.132  0.00  0.00    +0.000 NA
ATOM      9  S   UNL     1      -8.829   6.080 132.450  0.00  0.00    +0.000 S 
ATOM     10  O   UNL     1      -7.993   6.708 131.427  0.00  0.00    +0.000 OA
ATOM     11  O   UNL     1      -8.631   6.273 133.849  0.00  0.00    +0.000 OA
ATOM     12  C   UNL     1      -8.809   4.343 132.116  0.00  0.00    +0.000 A 
ATOM     13  C   UNL     1      -7.787   3.532 132.576  0.00  0.00    +0.000 A 
ATOM     14  H   UNL     1     -11.645   4.020 130.653  0.00  0.00    +0.000 HD
ATOM     15  H   UNL     1     -10.998   6.291 132.918  0.00  0.00    +0.000 HD
ENDROOT
BRANCH   7  16
ATOM     16  C   UNL     1     -12.301   6.739 130.516  0.00  0.00    +0.000 C 
ATOM     17  C   UNL     1     -12.700   6.015 129.259  0.00  0.00    +0.000 C 
ATOM     18  C   UNL     1     -12.024   6.993 128.267  0.00  0.00    +0.000 C 
ATOM     19  C   UNL     1     -11.105   8.126 129.173  0.00  0.00    +0.000 C 
ATOM     20  C   UNL     1     -12.299   8.301 130.035  0.00  0.00    +0.000 C 
ATOM     21  C   UNL     1     -13.027   8.871 128.787  0.00  0.00    +0.000 C 
ATOM     22  C   UNL     1     -13.004   7.980 127.783  0.00  0.00    +0.000 C 
ENDBRANCH   7  16
BRANCH   1  23
ATOM     23  S   UNL     1      -6.480   1.166 132.895  0.00  0.00    +0.000 S 
ATOM     24  O   UNL     1      -5.641   0.776 131.791  0.00  0.00    +0.000 OA
ATOM     25  O   UNL     1      -7.021   0.191 133.816  0.00  0.00    +0.000 OA
BRANCH  23  26
ATOM     26  N   UNL     1      -5.627   2.250 133.858  0.00  0.00    +0.000 NA
ATOM     27  H   UNL     1      -4.701   2.398 133.452  0.00  0.00    +0.000 HD
ATOM     28  H   UNL     1      -5.569   1.947 134.830  0.00  0.00    +0.000 HD
ENDBRANCH  23  26
ENDBRANCH   1  23
TORSDOF 3
ENDMDL
MODEL 2
REMARK VINA RESULT:      -7.7      3.788      7.404
REMARK  Name = Cyclothiazide
REMARK  3 active torsions:
REMARK  status: ('A' for Active; 'I' for Inactive)
REMARK    1  A    between atoms: N_1  and  S_2
REMARK    2  A    between atoms: S_2  and  C_5
REMARK    3  A    between atoms: C_11  and  C_18
REMARK                            x       y       z     vdW  Elec       q    Type
REMARK                         _______ _______ _______ _____ _____    ______ ____
ROOT
ATOM      1  C   UNL     1     -11.655   6.790 129.494  0.00  0.00    +0.000 A 
ATOM      2  C   UNL     1     -11.976   7.073 130.821  0.00  0.00    +0.000 A 
ATOM      3 CL   UNL     1     -13.225   8.154 131.324  0.00  0.00    +0.000 Cl
ATOM      4  C   UNL     1     -11.230   6.458 131.827  0.00  0.00    +0.000 A 
ATOM      5  C   UNL     1     -10.161   5.594 131.507  0.00  0.00    +0.000 A 
ATOM      6  N   UNL     1      -9.485   4.944 132.501  0.00  0.00    +0.000 N 
ATOM      7  C   UNL     1      -8.097   4.416 132.387  0.00  0.00    +0.000 C 
ATOM      8  N   UNL     1      -8.202   3.477 131.299  0.00  0.00    +0.000 NA
ATOM      9  S   UNL     1      -8.502   4.251 129.843  0.00  0.00    +0.000 S 
ATOM     10  O   UNL     1      -7.334   5.087 129.569  0.00  0.00    +0.000 OA
ATOM     11  O   UNL     1      -8.971   3.243 128.948  0.00  0.00    +0.000 OA
ATOM     12  C   UNL     1      -9.839   5.355 130.192  0.00  0.00    +0.000 A 
ATOM     13  C   UNL     1     -10.590   5.922 129.176  0.00  0.00    +0.000 A 
ATOM     14  H   UNL     1      -9.887   5.186 133.394  0.00  0.00    +0.000 HD
ATOM     15  H   UNL     1      -8.901   2.750 131.444  0.00  0.00    +0.000 HD
ENDROOT
BRANCH   7  16
ATOM     16  C   UNL     1      -7.584   3.627 133.716  0.00  0.00    +0.000 C 
ATOM     17  C   UNL     1      -8.205   4.435 134.823  0.00  0.00    +0.000 C 
ATOM     18  C   UNL     1      -7.037   5.437 134.990  0.00  0.00    +0.000 C 
ATOM     19  C   UNL     1      -5.902   5.153 133.734  0.00  0.00    +0.000 C 
ATOM     20  C   UNL     1      -5.992   3.711 134.072  0.00  0.00    +0.000 C 
ATOM     21  C   UNL     1      -5.385   4.074 135.456  0.00  0.00    +0.000 C 
ATOM     22  C   UNL     1      -6.143   4.994 136.074  0.00  0.00    +0.000 C 
ENDBRANCH   7  16
BRANCH   1  23
ATOM     23  S   UNL     1     -12.568   7.493 128.164  0.00  0.00    +0.000 S 
ATOM     24  O   UNL     1     -12.383   8.922 128.160  0.00  0.00    +0.000 OA
ATOM     25  O   UNL     1     -13.887   6.901 128.165  0.00  0.00    +0.000 OA
BRANCH  23  26
ATOM     26  N   UNL     1     -11.802   6.849 126.813  0.00  0.00    +0.000 NA
ATOM     27  H   UNL     1     -11.412   7.613 126.256  0.00  0.00    +0.000 HD
ATOM     28  H   UNL     1     -12.419   6.256 126.260  0.00  0.00    +0.000 HD
ENDBRANCH  23  26
ENDBRANCH   1  23
TORSDOF 3
ENDMDL
MODEL 3
REMARK VINA RESULT:      -7.3      7.736      9.084
REMARK  Name = Cyclothiazide
REMARK  3 active torsions:
REMARK  status: ('A' for Active; 'I' for Inactive)
REMARK    1  A    between atoms: N_1  and  S_2
REMARK    2  A    between atoms: S_2  and  C_5
REMARK    3  A    between atoms: C_11  and  C_18
REMARK                            x       y       z     vdW  Elec       q    Type
REMARK                         _______ _______ _______ _____ _____    ______ ____
ROOT
ATOM      1  C   UNL     1      -8.407   1.345 124.229  0.00  0.00    +0.000 A 
ATOM      2  C   UNL     1      -8.063   0.581 125.344  0.00  0.00    +0.000 A 
ATOM      3 CL   UNL     1      -8.921  -0.817 125.884  0.00  0.00    +0.000 Cl
ATOM      4  C   UNL     1      -6.958   0.975 126.099  0.00  0.00    +0.000 A 
ATOM      5  C   UNL     1      -6.225   2.131 125.757  0.00  0.00    +0.000 A 
ATOM      6  N   UNL     1      -5.103   2.465 126.463  0.00  0.00    +0.000 N 
ATOM      7  C   UNL     1      -4.526   3.835 126.554  0.00  0.00    +0.000 C 
ATOM      8  N   UNL     1      -4.238   4.150 125.178  0.00  0.00    +0.000 NA
ATOM      9  S   UNL     1      -5.640   4.319 124.276  0.00  0.00    +0.000 S 
ATOM     10  O   UNL     1      -6.355   5.468 124.832  0.00  0.00    +0.000 OA
ATOM     11  O   UNL     1      -5.244   4.231 122.908  0.00  0.00    +0.000 OA
ATOM     12  C   UNL     1      -6.602   2.889 124.674  0.00  0.00    +0.000 A 
ATOM     13  C   UNL     1      -7.670   2.497 123.886  0.00  0.00    +0.000 A 
ATOM     14  H   UNL     1      -4.941   1.773 127.180  0.00  0.00    +0.000 HD
ATOM     15  H   UNL     1      -3.622   3.481 124.719  0.00  0.00    +0.000 HD
ENDROOT
BRANCH   7  16
ATOM     16  C   UNL     1      -3.145   3.910 127.412  0.00  0.00    +0.000 C 
ATOM     17  C   UNL     1      -3.525   3.202 128.685  0.00  0.00    +0.000 C 
ATOM     18  C   UNL     1      -4.038   4.453 129.439  0.00  0.00    +0.000 C 
ATOM     19  C   UNL     1      -4.052   5.773 128.341  0.00  0.00    +0.000 C 
ATOM     20  C   UNL     1      -2.676   5.377 127.955  0.00  0.00    +0.000 C 
ATOM     21  C   UNL     1      -2.249   5.718 129.410  0.00  0.00    +0.000 C 
ATOM     22  C   UNL     1      -2.969   5.004 130.289  0.00  0.00    +0.000 C 
ENDBRANCH   7  16
BRANCH   1  23
ATOM     23  S   UNL     1      -9.763   0.899 123.201  0.00  0.00    +0.000 S 
ATOM     24  O   UNL     1      -9.770  -0.529 123.011  0.00  0.00    +0.000 OA
ATOM     25  O   UNL     1      -9.794   1.812 122.080  0.00  0.00    +0.000 OA
BRANCH  23  26
ATOM     26  N   UNL     1     -11.091   1.320 124.143  0.00  0.00    +0.000 NA
ATOM     27  H   UNL     1     -10.797   1.385 125.120  0.00  0.00    +0.000 HD
ATOM     28  H   UNL     1     -11.872   0.675 124.027  0.00  0.00    +0.000 HD
ENDBRANCH  23  26
ENDBRANCH   1  23
TORSDOF 3
ENDMDL
MODEL 4
REMARK VINA RESULT:      -7.3      7.613      8.486
REMARK  Name = Cyclothiazide
REMARK  3 active torsions:
REMARK  status: ('A' for Active; 'I' for Inactive)
REMARK    1  A    between atoms: N_1  and  S_2
REMARK    2  A    between atoms: S_2  and  C_5
REMARK    3  A    between atoms: C_11  and  C_18
REMARK                            x       y       z     vdW  Elec       q    Type
REMARK                         _______ _______ _______ _____ _____    ______ ____
ROOT
ATOM      1  C   UNL     1      -5.116  -2.722 131.073  0.00  0.00    +0.000 A 
ATOM      2  C   UNL     1      -5.819  -3.862 130.685  0.00  0.00    +0.000 A 
ATOM      3 CL   UNL     1      -5.652  -5.419 131.412  0.00  0.00    +0.000 Cl
ATOM      4  C   UNL     1      -6.714  -3.755 129.620  0.00  0.00    +0.000 A 
ATOM      5  C   UNL     1      -6.881  -2.531 128.938  0.00  0.00    +0.000 A 
ATOM      6  N   UNL     1      -7.812  -2.422 127.944  0.00  0.00    +0.000 N 
ATOM      7  C   UNL     1      -7.780  -1.414 126.849  0.00  0.00    +0.000 C 
ATOM      8  N   UNL     1      -7.818  -0.164 127.565  0.00  0.00    +0.000 NA
ATOM      9  S   UNL     1      -6.411   0.088 128.441  0.00  0.00    +0.000 S 
ATOM     10  O   UNL     1      -5.328   0.193 127.464  0.00  0.00    +0.000 OA
ATOM     11  O   UNL     1      -6.712   1.110 129.389  0.00  0.00    +0.000 OA
ATOM     12  C   UNL     1      -6.152  -1.428 129.316  0.00  0.00    +0.000 A 
ATOM     13  C   UNL     1      -5.288  -1.499 130.395  0.00  0.00    +0.000 A 
ATOM     14  H   UNL     1      -8.294  -3.303 127.839  0.00  0.00    +0.000 HD
ATOM     15  H   UNL     1      -8.621  -0.065 128.184  0.00  0.00    +0.000 HD
ENDROOT
BRANCH   7  16
ATOM     16  C   UNL     1      -9.064  -1.487 125.851  0.00  0.00    +0.000 C 
ATOM     17  C   UNL     1      -9.453  -2.938 125.943  0.00  0.00    +0.000 C 
ATOM     18  C   UNL     1      -8.552  -3.438 124.787  0.00  0.00    +0.000 C 
ATOM     19  C   UNL     1      -7.559  -2.134 124.278  0.00  0.00    +0.000 C 
ATOM     20  C   UNL     1      -8.786  -1.300 124.252  0.00  0.00    +0.000 C 
ATOM     21  C   UNL     1      -9.305  -2.231 123.121  0.00  0.00    +0.000 C 
ATOM     22  C   UNL     1      -9.326  -3.507 123.536  0.00  0.00    +0.000 C 
ENDBRANCH   7  16
BRANCH   1  23
ATOM     23  S   UNL     1      -3.995  -2.760 132.430  0.00  0.00    +0.000 S 
ATOM     24  O   UNL     1      -2.962  -3.730 132.170  0.00  0.00    +0.000 OA
ATOM     25  O   UNL     1      -4.770  -2.789 133.650  0.00  0.00    +0.000 OA
BRANCH  23  26
ATOM     26  N   UNL     1      -3.312  -1.225 132.383  0.00  0.00    +0.000 NA
ATOM     27  H   UNL     1      -2.352  -1.298 132.040  0.00  0.00    +0.000 HD
ATOM     28  H   UNL     1      -3.354  -0.751 133.285  0.00  0.00    +0.000 HD
ENDBRANCH  23  26
ENDBRANCH   1  23
TORSDOF 3
ENDMDL
MODEL 5
REMARK VINA RESULT:      -7.3      7.461      8.849
REMARK  Name = Cyclothiazide
REMARK  3 active torsions:
REMARK  status: ('A' for Active; 'I' for Inactive)
REMARK    1  A    between atoms: N_1  and  S_2
REMARK    2  A    between atoms: S_2  and  C_5
REMARK    3  A    between atoms: C_11  and  C_18
REMARK                            x       y       z     vdW  Elec       q    Type
REMARK                         _______ _______ _______ _____ _____    ______ ____
ROOT
ATOM      1  C   UNL     1      -7.917  -1.717 124.866  0.00  0.00    +0.000 A 
ATOM      2  C   UNL     1      -6.535  -1.855 124.741  0.00  0.00    +0.000 A 
ATOM      3 CL   UNL     1      -5.722  -3.328 124.357  0.00  0.00    +0.000 Cl
ATOM      4  C   UNL     1      -5.737  -0.731 124.959  0.00  0.00    +0.000 A 
ATOM      5  C   UNL     1      -6.315   0.505 125.322  0.00  0.00    +0.000 A 
ATOM      6  N   UNL     1      -5.528   1.613 125.462  0.00  0.00    +0.000 N 
ATOM      7  C   UNL     1      -5.875   2.811 126.275  0.00  0.00    +0.000 C 
ATOM      8  N   UNL     1      -7.097   3.268 125.664  0.00  0.00    +0.000 NA
ATOM      9  S   UNL     1      -8.352   2.185 125.911  0.00  0.00    +0.000 S 
ATOM     10  O   UNL     1      -8.590   2.148 127.353  0.00  0.00    +0.000 OA
ATOM     11  O   UNL     1      -9.361   2.524 124.960  0.00  0.00    +0.000 OA
ATOM     12  C   UNL     1      -7.677   0.610 125.473  0.00  0.00    +0.000 A 
ATOM     13  C   UNL     1      -8.492  -0.480 125.223  0.00  0.00    +0.000 A 
ATOM     14  H   UNL     1      -4.569   1.372 125.258  0.00  0.00    +0.000 HD
ATOM     15  H   UNL     1      -7.015   3.464 124.667  0.00  0.00    +0.000 HD
ENDROOT
BRANCH   7  16
ATOM     16  C   UNL     1      -4.769   4.004 126.194  0.00  0.00    +0.000 C 
ATOM     17  C   UNL     1      -3.477   3.246 126.344  0.00  0.00    +0.000 C 
ATOM     18  C   UNL     1      -3.408   3.315 127.890  0.00  0.00    +0.000 C 
ATOM     19  C   UNL     1      -4.878   3.994 128.463  0.00  0.00    +0.000 C 
ATOM     20  C   UNL     1      -4.705   5.056 127.442  0.00  0.00    +0.000 C 
ATOM     21  C   UNL     1      -3.424   5.483 128.210  0.00  0.00    +0.000 C 
ATOM     22  C   UNL     1      -2.570   4.452 128.308  0.00  0.00    +0.000 C 
ENDBRANCH   7  16
BRANCH   1  23
ATOM     23  S   UNL     1      -8.999  -3.074 124.574  0.00  0.00    +0.000 S 
ATOM     24  O   UNL     1      -8.283  -4.308 124.774  0.00  0.00    +0.000 OA
ATOM     25  O   UNL     1      -9.727  -2.810 123.352  0.00  0.00    +0.000 OA
BRANCH  23  26
ATOM     26  N   UNL     1     -10.134  -2.908 125.802  0.00  0.00    +0.000 NA
ATOM     27  H   UNL     1     -10.564  -3.818 125.983  0.00  0.00    +0.000 HD
ATOM     28  H   UNL     1     -10.833  -2.195 125.595  0.00  0.00    +0.000 HD
ENDBRANCH  23  26
ENDBRANCH   1  23
TORSDOF 3
ENDMDL
MODEL 6
REMARK VINA RESULT:      -7.1      7.007      8.677
REMARK  Name = Cyclothiazide
REMARK  3 active torsions:
REMARK  status: ('A' for Active; 'I' for Inactive)
REMARK    1  A    between atoms: N_1  and  S_2
REMARK    2  A    between atoms: S_2  and  C_5
REMARK    3  A    between atoms: C_11  and  C_18
REMARK                            x       y       z     vdW  Elec       q    Type
REMARK                         _______ _______ _______ _____ _____    ______ ____
ROOT
ATOM      1  C   UNL     1      -4.962   3.872 127.626  0.00  0.00    +0.000 A 
ATOM      2  C   UNL     1      -4.798   2.602 128.177  0.00  0.00    +0.000 A 
ATOM      3 CL   UNL     1      -3.630   2.192 129.380  0.00  0.00    +0.000 Cl
ATOM      4  C   UNL     1      -5.619   1.572 127.716  0.00  0.00    +0.000 A 
ATOM      5  C   UNL     1      -6.572   1.807 126.702  0.00  0.00    +0.000 A 
ATOM      6  N   UNL     1      -7.418   0.807 126.312  0.00  0.00    +0.000 N 
ATOM      7  C   UNL     1      -8.105   0.734 124.992  0.00  0.00    +0.000 C 
ATOM      8  N   UNL     1      -8.887   1.944 124.974  0.00  0.00    +0.000 NA
ATOM      9  S   UNL     1      -7.914   3.306 124.893  0.00  0.00    +0.000 S 
ATOM     10  O   UNL     1      -7.212   3.238 123.612  0.00  0.00    +0.000 OA
ATOM     11  O   UNL     1      -8.739   4.406 125.275  0.00  0.00    +0.000 OA
ATOM     12  C   UNL     1      -6.693   3.060 126.148  0.00  0.00    +0.000 A 
ATOM     13  C   UNL     1      -5.918   4.107 126.616  0.00  0.00    +0.000 A 
ATOM     14  H   UNL     1      -7.231  -0.021 126.858  0.00  0.00    +0.000 HD
ATOM     15  H   UNL     1      -9.528   2.036 125.761  0.00  0.00    +0.000 HD
ENDROOT
BRANCH   7  16
ATOM     16  C   UNL     1      -9.105  -0.542 124.843  0.00  0.00    +0.000 C 
ATOM     17  C   UNL     1      -8.475  -1.548 125.767  0.00  0.00    +0.000 C 
ATOM     18  C   UNL     1      -7.533  -2.188 124.718  0.00  0.00    +0.000 C 
ATOM     19  C   UNL     1      -7.631  -1.265 123.274  0.00  0.00    +0.000 C 
ATOM     20  C   UNL     1      -9.106  -1.333 123.413  0.00  0.00    +0.000 C 
ATOM     21  C   UNL     1      -8.981  -2.869 123.221  0.00  0.00    +0.000 C 
ATOM     22  C   UNL     1      -8.159  -3.392 124.145  0.00  0.00    +0.000 C 
ENDBRANCH   7  16
BRANCH   1  23
ATOM     23  S   UNL     1      -3.994   5.236 128.174  0.00  0.00    +0.000 S 
ATOM     24  O   UNL     1      -3.992   5.273 129.614  0.00  0.00    +0.000 OA
ATOM     25  O   UNL     1      -4.363   6.392 127.388  0.00  0.00    +0.000 OA
BRANCH  23  26
ATOM     26  N   UNL     1      -2.451   4.825 127.646  0.00  0.00    +0.000 NA
ATOM     27  H   UNL     1      -2.530   4.146 126.886  0.00  0.00    +0.000 HD
ATOM     28  H   UNL     1      -1.860   4.479 128.401  0.00  0.00    +0.000 HD
ENDBRANCH  23  26
ENDBRANCH   1  23
TORSDOF 3
ENDMDL
MODEL 7
REMARK VINA RESULT:      -7.0      6.336      9.658
REMARK  Name = Cyclothiazide
REMARK  3 active torsions:
REMARK  status: ('A' for Active; 'I' for Inactive)
REMARK    1  A    between atoms: N_1  and  S_2
REMARK    2  A    between atoms: S_2  and  C_5
REMARK    3  A    between atoms: C_11  and  C_18
REMARK                            x       y       z     vdW  Elec       q    Type
REMARK                         _______ _______ _______ _____ _____    ______ ____
ROOT
ATOM      1  C   UNL     1      -7.798   2.806 126.512  0.00  0.00    +0.000 A 
ATOM      2  C   UNL     1      -7.536   2.952 127.873  0.00  0.00    +0.000 A 
ATOM      3 CL   UNL     1      -7.226   4.455 128.663  0.00  0.00    +0.000 Cl
ATOM      4  C   UNL     1      -7.501   1.803 128.665  0.00  0.00    +0.000 A 
ATOM      5  C   UNL     1      -7.698   0.527 128.096  0.00  0.00    +0.000 A 
ATOM      6  N   UNL     1      -7.732  -0.581 128.894  0.00  0.00    +0.000 N 
ATOM      7  C   UNL     1      -7.449  -1.971 128.440  0.00  0.00    +0.000 C 
ATOM      8  N   UNL     1      -8.448  -2.184 127.425  0.00  0.00    +0.000 NA
ATOM      9  S   UNL     1      -8.180  -1.216 126.083  0.00  0.00    +0.000 S 
ATOM     10  O   UNL     1      -6.902  -1.641 125.514  0.00  0.00    +0.000 OA
ATOM     11  O   UNL     1      -9.402  -1.212 125.347  0.00  0.00    +0.000 OA
ATOM     12  C   UNL     1      -7.921   0.404 126.745  0.00  0.00    +0.000 A 
ATOM     13  C   UNL     1      -8.001   1.531 125.945  0.00  0.00    +0.000 A 
ATOM     14  H   UNL     1      -7.612  -0.304 129.857  0.00  0.00    +0.000 HD
ATOM     15  H   UNL     1      -9.405  -2.050 127.749  0.00  0.00    +0.000 HD
ENDROOT
BRANCH   7  16
ATOM     16  C   UNL     1      -7.635  -3.093 129.605  0.00  0.00    +0.000 C 
ATOM     17  C   UNL     1      -7.483  -2.275 130.859  0.00  0.00    +0.000 C 
ATOM     18  C   UNL     1      -5.947  -2.426 130.986  0.00  0.00    +0.000 C 
ATOM     19  C   UNL     1      -5.367  -3.217 129.577  0.00  0.00    +0.000 C 
ATOM     20  C   UNL     1      -6.453  -4.209 129.770  0.00  0.00    +0.000 C 
ATOM     21  C   UNL     1      -5.753  -4.607 131.099  0.00  0.00    +0.000 C 
ATOM     22  C   UNL     1      -5.623  -3.536 131.899  0.00  0.00    +0.000 C 
ENDBRANCH   7  16
BRANCH   1  23
ATOM     23  S   UNL     1      -7.896   4.204 125.447  0.00  0.00    +0.000 S 
ATOM     24  O   UNL     1      -6.582   4.767 125.275  0.00  0.00    +0.000 OA
ATOM     25  O   UNL     1      -9.016   5.013 125.875  0.00  0.00    +0.000 OA
BRANCH  23  26
ATOM     26  N   UNL     1      -8.382   3.521 123.990  0.00  0.00    +0.000 NA
ATOM     27  H   UNL     1      -9.384   3.322 124.034  0.00  0.00    +0.000 HD
ATOM     28  H   UNL     1      -7.843   2.691 123.749  0.00  0.00    +0.000 HD
ENDBRANCH  23  26
ENDBRANCH   1  23
TORSDOF 3
ENDMDL
MODEL 8
REMARK VINA RESULT:      -6.9      2.678      3.068
REMARK  Name = Cyclothiazide
REMARK  3 active torsions:
REMARK  status: ('A' for Active; 'I' for Inactive)
REMARK    1  A    between atoms: N_1  and  S_2
REMARK    2  A    between atoms: S_2  and  C_5
REMARK    3  A    between atoms: C_11  and  C_18
REMARK                            x       y       z     vdW  Elec       q    Type
REMARK                         _______ _______ _______ _____ _____    ______ ____
ROOT
ATOM      1  C   UNL     1      -7.256   0.772 130.065  0.00  0.00    +0.000 A 
ATOM      2  C   UNL     1      -8.246   0.777 131.047  0.00  0.00    +0.000 A 
ATOM      3 CL   UNL     1      -8.676  -0.583 132.020  0.00  0.00    +0.000 Cl
ATOM      4  C   UNL     1      -8.962   1.956 131.257  0.00  0.00    +0.000 A 
ATOM      5  C   UNL     1      -8.708   3.103 130.476  0.00  0.00    +0.000 A 
ATOM      6  N   UNL     1      -9.366   4.271 130.741  0.00  0.00    +0.000 N 
ATOM      7  C   UNL     1      -9.577   5.374 129.762  0.00  0.00    +0.000 C 
ATOM      8  N   UNL     1      -8.232   5.750 129.411  0.00  0.00    +0.000 NA
ATOM      9  S   UNL     1      -7.457   4.537 128.551  0.00  0.00    +0.000 S 
ATOM     10  O   UNL     1      -8.194   4.383 127.298  0.00  0.00    +0.000 OA
ATOM     11  O   UNL     1      -6.064   4.838 128.608  0.00  0.00    +0.000 OA
ATOM     12  C   UNL     1      -7.751   3.067 129.490  0.00  0.00    +0.000 A 
ATOM     13  C   UNL     1      -6.999   1.922 129.290  0.00  0.00    +0.000 A 
ATOM     14  H   UNL     1      -9.983   4.137 131.528  0.00  0.00    +0.000 HD
ATOM     15  H   UNL     1      -7.654   6.018 130.206  0.00  0.00    +0.000 HD
ENDROOT
BRANCH   7  16
ATOM     16  C   UNL     1     -10.339   6.671 130.389  0.00  0.00    +0.000 C 
ATOM     17  C   UNL     1     -11.685   6.102 130.749  0.00  0.00    +0.000 C 
ATOM     18  C   UNL     1     -12.367   6.384 129.388  0.00  0.00    +0.000 C 
ATOM     19  C   UNL     1     -11.171   6.949 128.294  0.00  0.00    +0.000 C 
ATOM     20  C   UNL     1     -10.732   7.879 129.362  0.00  0.00    +0.000 C 
ATOM     21  C   UNL     1     -12.125   8.557 129.243  0.00  0.00    +0.000 C 
ATOM     22  C   UNL     1     -13.102   7.659 129.445  0.00  0.00    +0.000 C 
ENDBRANCH   7  16
BRANCH   1  23
ATOM     23  S   UNL     1      -6.281  -0.661 129.760  0.00  0.00    +0.000 S 
ATOM     24  O   UNL     1      -7.110  -1.690 129.187  0.00  0.00    +0.000 OA
ATOM     25  O   UNL     1      -5.469  -0.907 130.931  0.00  0.00    +0.000 OA
BRANCH  23  26
ATOM     26  N   UNL     1      -5.203  -0.126 128.586  0.00  0.00    +0.000 NA
ATOM     27  H   UNL     1      -4.623   0.618 128.981  0.00  0.00    +0.000 HD
ATOM     28  H   UNL     1      -5.672   0.174 127.732  0.00  0.00    +0.000 HD
ENDBRANCH  23  26
ENDBRANCH   1  23
TORSDOF 3
ENDMDL
MODEL 9
REMARK VINA RESULT:      -6.8      6.645      8.250
REMARK  Name = Cyclothiazide
REMARK  3 active torsions:
REMARK  status: ('A' for Active; 'I' for Inactive)
REMARK    1  A    between atoms: N_1  and  S_2
REMARK    2  A    between atoms: S_2  and  C_5
REMARK    3  A    between atoms: C_11  and  C_18
REMARK                            x       y       z     vdW  Elec       q    Type
REMARK                         _______ _______ _______ _____ _____    ______ ____
ROOT
ATOM      1  C   UNL     1      -7.621   0.174 125.158  0.00  0.00    +0.000 A 
ATOM      2  C   UNL     1      -6.320  -0.241 125.442  0.00  0.00    +0.000 A 
ATOM      3 CL   UNL     1      -5.717  -1.838 125.186  0.00  0.00    +0.000 Cl
ATOM      4  C   UNL     1      -5.436   0.688 125.991  0.00  0.00    +0.000 A 
ATOM      5  C   UNL     1      -5.857   2.005 126.275  0.00  0.00    +0.000 A 
ATOM      6  N   UNL     1      -4.961   2.924 126.746  0.00  0.00    +0.000 N 
ATOM      7  C   UNL     1      -5.316   4.143 127.524  0.00  0.00    +0.000 C 
ATOM      8  N   UNL     1      -6.178   4.858 126.619  0.00  0.00    +0.000 NA
ATOM      9  S   UNL     1      -7.627   4.050 126.377  0.00  0.00    +0.000 S 
ATOM     10  O   UNL     1      -8.305   4.019 127.672  0.00  0.00    +0.000 OA
ATOM     11  O   UNL     1      -8.206   4.616 125.203  0.00  0.00    +0.000 OA
ATOM     12  C   UNL     1      -7.154   2.383 126.019  0.00  0.00    +0.000 A 
ATOM     13  C   UNL     1      -8.038   1.492 125.437  0.00  0.00    +0.000 A 
ATOM     14  H   UNL     1      -4.050   2.496 126.819  0.00  0.00    +0.000 HD
ATOM     15  H   UNL     1      -5.754   5.063 125.715  0.00  0.00    +0.000 HD
ENDROOT
BRANCH   7  16
ATOM     16  C   UNL     1      -4.039   5.084 127.889  0.00  0.00    +0.000 C 
ATOM     17  C   UNL     1      -3.039   4.078 128.393  0.00  0.00    +0.000 C 
ATOM     18  C   UNL     1      -3.473   4.126 129.879  0.00  0.00    +0.000 C 
ATOM     19  C   UNL     1      -4.890   5.088 129.994  0.00  0.00    +0.000 C 
ATOM     20  C   UNL     1      -4.190   6.097 129.162  0.00  0.00    +0.000 C 
ATOM     21  C   UNL     1      -3.177   6.250 130.331  0.00  0.00    +0.000 C 
ATOM     22  C   UNL     1      -2.619   5.066 130.625  0.00  0.00    +0.000 C 
ENDBRANCH   7  16
BRANCH   1  23
ATOM     23  S   UNL     1      -8.790  -0.922 124.431  0.00  0.00    +0.000 S 
ATOM     24  O   UNL     1      -9.403  -1.720 125.462  0.00  0.00    +0.000 OA
ATOM     25  O   UNL     1      -8.173  -1.528 123.271  0.00  0.00    +0.000 OA
BRANCH  23  26
ATOM     26  N   UNL     1      -9.944   0.132 123.811  0.00  0.00    +0.000 NA
ATOM     27  H   UNL     1      -9.513   0.704 123.081  0.00  0.00    +0.000 HD
ATOM     28  H   UNL     1     -10.377   0.705 124.533  0.00  0.00    +0.000 HD
ENDBRANCH  23  26
ENDBRANCH   1  23
TORSDOF 3
ENDMDL
