MODEL 1
REMARK VINA RESULT:      -8.1      0.000      0.000
REMARK  Name = Cyclandelate
REMARK  8 active torsions:
REMARK  status: ('A' for Active; 'I' for Inactive)
REMARK    1  A    between atoms: C_1  and  C_2
REMARK    2  A    between atoms: C_4  and  O_10
REMARK    3  A    between atoms: C_6  and  C_7
REMARK    4  A    between atoms: C_6  and  C_8
REMARK    5  A    between atoms: O_10  and  C_11
REMARK    6  A    between atoms: C_11  and  C_13
REMARK    7  A    between atoms: C_13  and  O_14
REMARK    8  A    between atoms: C_13  and  C_15
REMARK                            x       y       z     vdW  Elec       q    Type
REMARK                         _______ _______ _______ _____ _____    ______ ____
ROOT
ATOM      1  C   UNL     1      -7.748   1.510 123.656  0.00  0.00    +0.000 C 
ATOM      2  O   UNL     1      -6.941   1.555 124.570  0.00  0.00    +0.000 OA
ENDROOT
BRANCH   1   3
ATOM      3  O   UNL     1      -8.063   0.345 123.009  0.00  0.00    +0.000 OA
BRANCH   3   7
ATOM      4  C   UNL     1      -8.800  -2.716 126.139  0.00  0.00    +0.000 C 
ATOM      5  C   UNL     1      -8.717  -3.017 124.638  0.00  0.00    +0.000 C 
ATOM      6  C   UNL     1      -8.980  -1.756 123.797  0.00  0.00    +0.000 C 
ATOM      7  C   UNL     1      -7.803  -0.785 123.857  0.00  0.00    +0.000 C 
ATOM      8  C   UNL     1      -6.510  -1.484 123.399  0.00  0.00    +0.000 C 
ATOM      9  C   UNL     1      -6.166  -2.711 124.251  0.00  0.00    +0.000 C 
ATOM     10  C   UNL     1      -5.746  -2.300 125.676  0.00  0.00    +0.000 C 
ATOM     11  C   UNL     1      -4.924  -3.382 123.643  0.00  0.00    +0.000 C 
ATOM     12  C   UNL     1      -7.379  -3.667 124.215  0.00  0.00    +0.000 C 
ENDBRANCH   3   7
ENDBRANCH   1   3
BRANCH   1  13
ATOM     13  C   UNL     1      -8.561   2.709 123.146  0.00  0.00    +0.000 C 
BRANCH  13  14
ATOM     14  C   UNL     1      -7.986   3.338 121.878  0.00  0.00    +0.000 A 
ATOM     15  C   UNL     1      -8.799   3.746 120.803  0.00  0.00    +0.000 A 
ATOM     16  C   UNL     1      -8.260   4.117 119.578  0.00  0.00    +0.000 A 
ATOM     17  C   UNL     1      -6.889   4.273 119.458  0.00  0.00    +0.000 A 
ATOM     18  C   UNL     1      -6.063   3.992 120.546  0.00  0.00    +0.000 A 
ATOM     19  C   UNL     1      -6.603   3.512 121.742  0.00  0.00    +0.000 A 
ENDBRANCH  13  14
BRANCH  13  20
ATOM     20  O   UNL     1      -8.564   3.684 124.201  0.00  0.00    +0.000 OA
ATOM     21  H   UNL     1      -7.759   3.512 124.724  0.00  0.00    +0.000 HD
ENDBRANCH  13  20
ENDBRANCH   1  13
TORSDOF 5
ENDMDL
MODEL 2
REMARK VINA RESULT:      -7.7      1.131      2.566
REMARK  Name = Cyclandelate
REMARK  8 active torsions:
REMARK  status: ('A' for Active; 'I' for Inactive)
REMARK    1  A    between atoms: C_1  and  C_2
REMARK    2  A    between atoms: C_4  and  O_10
REMARK    3  A    between atoms: C_6  and  C_7
REMARK    4  A    between atoms: C_6  and  C_8
REMARK    5  A    between atoms: O_10  and  C_11
REMARK    6  A    between atoms: C_11  and  C_13
REMARK    7  A    between atoms: C_13  and  O_14
REMARK    8  A    between atoms: C_13  and  C_15
REMARK                            x       y       z     vdW  Elec       q    Type
REMARK                         _______ _______ _______ _____ _____    ______ ____
ROOT
ATOM      1  C   UNL     1      -9.315   1.582 123.329  0.00  0.00    +0.000 C 
ATOM      2  O   UNL     1      -9.899   1.014 122.420  0.00  0.00    +0.000 OA
ENDROOT
BRANCH   1   3
ATOM      3  O   UNL     1      -9.005   0.960 124.508  0.00  0.00    +0.000 OA
BRANCH   3   7
ATOM      4  C   UNL     1      -6.328  -2.038 122.621  0.00  0.00    +0.000 C 
ATOM      5  C   UNL     1      -6.194  -1.549 124.068  0.00  0.00    +0.000 C 
ATOM      6  C   UNL     1      -6.882  -0.188 124.266  0.00  0.00    +0.000 C 
ATOM      7  C   UNL     1      -8.403  -0.321 124.256  0.00  0.00    +0.000 C 
ATOM      8  C   UNL     1      -8.860  -1.323 125.331  0.00  0.00    +0.000 C 
ATOM      9  C   UNL     1      -8.254  -2.717 125.138  0.00  0.00    +0.000 C 
ATOM     10  C   UNL     1      -8.827  -3.405 123.883  0.00  0.00    +0.000 C 
ATOM     11  C   UNL     1      -8.694  -3.598 126.317  0.00  0.00    +0.000 C 
ATOM     12  C   UNL     1      -6.716  -2.565 125.110  0.00  0.00    +0.000 C 
ENDBRANCH   3   7
ENDBRANCH   1   3
BRANCH   1  13
ATOM     13  C   UNL     1      -8.796   3.026 123.267  0.00  0.00    +0.000 C 
BRANCH  13  14
ATOM     14  C   UNL     1      -8.051   3.350 121.973  0.00  0.00    +0.000 A 
ATOM     15  C   UNL     1      -6.647   3.311 121.881  0.00  0.00    +0.000 A 
ATOM     16  C   UNL     1      -5.972   3.808 120.772  0.00  0.00    +0.000 A 
ATOM     17  C   UNL     1      -6.692   4.180 119.649  0.00  0.00    +0.000 A 
ATOM     18  C   UNL     1      -8.085   4.114 119.667  0.00  0.00    +0.000 A 
ATOM     19  C   UNL     1      -8.763   3.719 120.825  0.00  0.00    +0.000 A 
ENDBRANCH  13  14
BRANCH  13  20
ATOM     20  O   UNL     1      -7.906   3.193 124.382  0.00  0.00    +0.000 OA
ATOM     21  H   UNL     1      -7.858   2.321 124.817  0.00  0.00    +0.000 HD
ENDBRANCH  13  20
ENDBRANCH   1  13
TORSDOF 5
ENDMDL
MODEL 3
REMARK VINA RESULT:      -7.6      9.536     10.916
REMARK  Name = Cyclandelate
REMARK  8 active torsions:
REMARK  status: ('A' for Active; 'I' for Inactive)
REMARK    1  A    between atoms: C_1  and  C_2
REMARK    2  A    between atoms: C_4  and  O_10
REMARK    3  A    between atoms: C_6  and  C_7
REMARK    4  A    between atoms: C_6  and  C_8
REMARK    5  A    between atoms: O_10  and  C_11
REMARK    6  A    between atoms: C_11  and  C_13
REMARK    7  A    between atoms: C_13  and  O_14
REMARK    8  A    between atoms: C_13  and  C_15
REMARK                            x       y       z     vdW  Elec       q    Type
REMARK                         _______ _______ _______ _____ _____    ______ ____
ROOT
ATOM      1  C   UNL     1     -10.379   5.757 130.330  0.00  0.00    +0.000 C 
ATOM      2  O   UNL     1      -9.877   5.021 129.495  0.00  0.00    +0.000 OA
ENDROOT
BRANCH   1   3
ATOM      3  O   UNL     1      -9.636   6.610 131.101  0.00  0.00    +0.000 OA
BRANCH   3   7
ATOM      4  C   UNL     1      -5.677   4.611 131.317  0.00  0.00    +0.000 C 
ATOM      5  C   UNL     1      -6.004   5.955 131.979  0.00  0.00    +0.000 C 
ATOM      6  C   UNL     1      -7.220   6.625 131.317  0.00  0.00    +0.000 C 
ATOM      7  C   UNL     1      -8.521   5.915 131.686  0.00  0.00    +0.000 C 
ATOM      8  C   UNL     1      -8.691   5.868 133.215  0.00  0.00    +0.000 C 
ATOM      9  C   UNL     1      -7.535   5.148 133.917  0.00  0.00    +0.000 C 
ATOM     10  C   UNL     1      -7.549   3.637 133.609  0.00  0.00    +0.000 C 
ATOM     11  C   UNL     1      -7.757   5.252 135.434  0.00  0.00    +0.000 C 
ATOM     12  C   UNL     1      -6.220   5.850 133.506  0.00  0.00    +0.000 C 
ENDBRANCH   3   7
ENDBRANCH   1   3
BRANCH   1  13
ATOM     13  C   UNL     1     -11.886   5.883 130.593  0.00  0.00    +0.000 C 
BRANCH  13  14
ATOM     14  C   UNL     1     -12.554   6.994 129.784  0.00  0.00    +0.000 A 
ATOM     15  C   UNL     1     -13.292   6.734 128.613  0.00  0.00    +0.000 A 
ATOM     16  C   UNL     1     -13.714   7.758 127.773  0.00  0.00    +0.000 A 
ATOM     17  C   UNL     1     -13.575   9.074 128.182  0.00  0.00    +0.000 A 
ATOM     18  C   UNL     1     -12.954   9.358 129.398  0.00  0.00    +0.000 A 
ATOM     19  C   UNL     1     -12.432   8.329 130.187  0.00  0.00    +0.000 A 
ENDBRANCH  13  14
BRANCH  13  20
ATOM     20  O   UNL     1     -12.039   6.157 131.994  0.00  0.00    +0.000 OA
ATOM     21  H   UNL     1     -12.959   6.461 132.107  0.00  0.00    +0.000 HD
ENDBRANCH  13  20
ENDBRANCH   1  13
TORSDOF 5
ENDMDL
MODEL 4
REMARK VINA RESULT:      -7.4      4.218      6.254
REMARK  Name = Cyclandelate
REMARK  8 active torsions:
REMARK  status: ('A' for Active; 'I' for Inactive)
REMARK    1  A    between atoms: C_1  and  C_2
REMARK    2  A    between atoms: C_4  and  O_10
REMARK    3  A    between atoms: C_6  and  C_7
REMARK    4  A    between atoms: C_6  and  C_8
REMARK    5  A    between atoms: O_10  and  C_11
REMARK    6  A    between atoms: C_11  and  C_13
REMARK    7  A    between atoms: C_13  and  O_14
REMARK    8  A    between atoms: C_13  and  C_15
REMARK                            x       y       z     vdW  Elec       q    Type
REMARK                         _______ _______ _______ _____ _____    ______ ____
ROOT
ATOM      1  C   UNL     1      -9.490  -2.742 125.744  0.00  0.00    +0.000 C 
ATOM      2  O   UNL     1      -9.878  -1.588 125.667  0.00  0.00    +0.000 OA
ENDROOT
BRANCH   1   3
ATOM      3  O   UNL     1      -9.417  -3.417 126.933  0.00  0.00    +0.000 OA
BRANCH   3   7
ATOM      4  C   UNL     1      -5.241  -2.010 127.474  0.00  0.00    +0.000 C 
ATOM      5  C   UNL     1      -6.477  -1.272 128.002  0.00  0.00    +0.000 C 
ATOM      6  C   UNL     1      -7.746  -1.686 127.239  0.00  0.00    +0.000 C 
ATOM      7  C   UNL     1      -8.196  -3.095 127.619  0.00  0.00    +0.000 C 
ATOM      8  C   UNL     1      -8.419  -3.194 129.138  0.00  0.00    +0.000 C 
ATOM      9  C   UNL     1      -7.160  -2.857 129.945  0.00  0.00    +0.000 C 
ATOM     10  C   UNL     1      -6.079  -3.942 129.772  0.00  0.00    +0.000 C 
ATOM     11  C   UNL     1      -7.526  -2.887 131.437  0.00  0.00    +0.000 C 
ATOM     12  C   UNL     1      -6.692  -1.445 129.523  0.00  0.00    +0.000 C 
ENDBRANCH   3   7
ENDBRANCH   1   3
BRANCH   1  13
ATOM     13  C   UNL     1      -9.092  -3.613 124.544  0.00  0.00    +0.000 C 
BRANCH  13  14
ATOM     14  C   UNL     1      -7.711  -3.281 123.981  0.00  0.00    +0.000 A 
ATOM     15  C   UNL     1      -6.550  -3.971 124.376  0.00  0.00    +0.000 A 
ATOM     16  C   UNL     1      -5.280  -3.528 124.024  0.00  0.00    +0.000 A 
ATOM     17  C   UNL     1      -5.150  -2.495 123.112  0.00  0.00    +0.000 A 
ATOM     18  C   UNL     1      -6.290  -1.868 122.609  0.00  0.00    +0.000 A 
ATOM     19  C   UNL     1      -7.561  -2.245 123.051  0.00  0.00    +0.000 A 
ENDBRANCH  13  14
BRANCH  13  20
ATOM     20  O   UNL     1     -10.085  -3.395 123.529  0.00  0.00    +0.000 OA
ATOM     21  H   UNL     1     -10.886  -3.102 124.000  0.00  0.00    +0.000 HD
ENDBRANCH  13  20
ENDBRANCH   1  13
TORSDOF 5
ENDMDL
MODEL 5
REMARK VINA RESULT:      -7.4      2.049      3.226
REMARK  Name = Cyclandelate
REMARK  8 active torsions:
REMARK  status: ('A' for Active; 'I' for Inactive)
REMARK    1  A    between atoms: C_1  and  C_2
REMARK    2  A    between atoms: C_4  and  O_10
REMARK    3  A    between atoms: C_6  and  C_7
REMARK    4  A    between atoms: C_6  and  C_8
REMARK    5  A    between atoms: O_10  and  C_11
REMARK    6  A    between atoms: C_11  and  C_13
REMARK    7  A    between atoms: C_13  and  O_14
REMARK    8  A    between atoms: C_13  and  C_15
REMARK                            x       y       z     vdW  Elec       q    Type
REMARK                         _______ _______ _______ _____ _____    ______ ____
ROOT
ATOM      1  C   UNL     1      -8.530   1.309 123.957  0.00  0.00    +0.000 C 
ATOM      2  O   UNL     1      -9.373   1.433 124.831  0.00  0.00    +0.000 OA
ENDROOT
BRANCH   1   3
ATOM      3  O   UNL     1      -8.435   0.186 123.181  0.00  0.00    +0.000 OA
BRANCH   3   7
ATOM      4  C   UNL     1      -8.751  -3.090 126.161  0.00  0.00    +0.000 C 
ATOM      5  C   UNL     1      -8.634  -3.307 124.648  0.00  0.00    +0.000 C 
ATOM      6  C   UNL     1      -9.064  -2.053 123.867  0.00  0.00    +0.000 C 
ATOM      7  C   UNL     1      -8.025  -0.940 123.975  0.00  0.00    +0.000 C 
ATOM      8  C   UNL     1      -6.653  -1.439 123.489  0.00  0.00    +0.000 C 
ATOM      9  C   UNL     1      -6.147  -2.648 124.283  0.00  0.00    +0.000 C 
ATOM     10  C   UNL     1      -5.781  -2.253 125.728  0.00  0.00    +0.000 C 
ATOM     11  C   UNL     1      -4.830  -3.120 123.648  0.00  0.00    +0.000 C 
ATOM     12  C   UNL     1      -7.224  -3.754 124.199  0.00  0.00    +0.000 C 
ENDBRANCH   3   7
ENDBRANCH   1   3
BRANCH   1  13
ATOM     13  C   UNL     1      -7.515   2.390 123.561  0.00  0.00    +0.000 C 
BRANCH  13  14
ATOM     14  C   UNL     1      -6.410   2.595 124.597  0.00  0.00    +0.000 A 
ATOM     15  C   UNL     1      -5.720   3.815 124.732  0.00  0.00    +0.000 A 
ATOM     16  C   UNL     1      -4.582   3.928 125.522  0.00  0.00    +0.000 A 
ATOM     17  C   UNL     1      -4.220   2.876 126.347  0.00  0.00    +0.000 A 
ATOM     18  C   UNL     1      -4.959   1.693 126.324  0.00  0.00    +0.000 A 
ATOM     19  C   UNL     1      -6.036   1.545 125.445  0.00  0.00    +0.000 A 
ENDBRANCH  13  14
BRANCH  13  20
ATOM     20  O   UNL     1      -8.253   3.613 123.406  0.00  0.00    +0.000 OA
ATOM     21  H   UNL     1      -7.822   4.260 123.994  0.00  0.00    +0.000 HD
ENDBRANCH  13  20
ENDBRANCH   1  13
TORSDOF 5
ENDMDL
MODEL 6
REMARK VINA RESULT:      -7.3      1.520      2.900
REMARK  Name = Cyclandelate
REMARK  8 active torsions:
REMARK  status: ('A' for Active; 'I' for Inactive)
REMARK    1  A    between atoms: C_1  and  C_2
REMARK    2  A    between atoms: C_4  and  O_10
REMARK    3  A    between atoms: C_6  and  C_7
REMARK    4  A    between atoms: C_6  and  C_8
REMARK    5  A    between atoms: O_10  and  C_11
REMARK    6  A    between atoms: C_11  and  C_13
REMARK    7  A    between atoms: C_13  and  O_14
REMARK    8  A    between atoms: C_13  and  C_15
REMARK                            x       y       z     vdW  Elec       q    Type
REMARK                         _______ _______ _______ _____ _____    ______ ____
ROOT
ATOM      1  C   UNL     1      -8.098   1.972 124.764  0.00  0.00    +0.000 C 
ATOM      2  O   UNL     1      -8.930   2.602 125.397  0.00  0.00    +0.000 OA
ENDROOT
BRANCH   1   3
ATOM      3  O   UNL     1      -7.230   1.096 125.358  0.00  0.00    +0.000 OA
BRANCH   3   7
ATOM      4  C   UNL     1      -6.013  -2.163 122.599  0.00  0.00    +0.000 C 
ATOM      5  C   UNL     1      -5.919  -2.244 124.127  0.00  0.00    +0.000 C 
ATOM      6  C   UNL     1      -5.902  -0.844 124.763  0.00  0.00    +0.000 C 
ATOM      7  C   UNL     1      -7.275  -0.180 124.697  0.00  0.00    +0.000 C 
ATOM      8  C   UNL     1      -8.333  -1.071 125.371  0.00  0.00    +0.000 C 
ATOM      9  C   UNL     1      -8.438  -2.457 124.727  0.00  0.00    +0.000 C 
ATOM     10  C   UNL     1      -9.039  -2.371 123.310  0.00  0.00    +0.000 C 
ATOM     11  C   UNL     1      -9.443  -3.288 125.541  0.00  0.00    +0.000 C 
ATOM     12  C   UNL     1      -7.035  -3.104 124.765  0.00  0.00    +0.000 C 
ENDBRANCH   3   7
ENDBRANCH   1   3
BRANCH   1  13
ATOM     13  C   UNL     1      -7.943   2.017 123.237  0.00  0.00    +0.000 C 
BRANCH  13  14
ATOM     14  C   UNL     1      -6.758   2.861 122.770  0.00  0.00    +0.000 A 
ATOM     15  C   UNL     1      -6.013   3.668 123.651  0.00  0.00    +0.000 A 
ATOM     16  C   UNL     1      -5.081   4.588 123.188  0.00  0.00    +0.000 A 
ATOM     17  C   UNL     1      -4.733   4.588 121.848  0.00  0.00    +0.000 A 
ATOM     18  C   UNL     1      -5.370   3.713 120.968  0.00  0.00    +0.000 A 
ATOM     19  C   UNL     1      -6.387   2.866 121.420  0.00  0.00    +0.000 A 
ENDBRANCH  13  14
BRANCH  13  20
ATOM     20  O   UNL     1      -9.159   2.574 122.715  0.00  0.00    +0.000 OA
ATOM     21  H   UNL     1      -9.856   1.920 122.907  0.00  0.00    +0.000 HD
ENDBRANCH  13  20
ENDBRANCH   1  13
TORSDOF 5
ENDMDL
MODEL 7
REMARK VINA RESULT:      -7.3      7.812      9.071
REMARK  Name = Cyclandelate
REMARK  8 active torsions:
REMARK  status: ('A' for Active; 'I' for Inactive)
REMARK    1  A    between atoms: C_1  and  C_2
REMARK    2  A    between atoms: C_4  and  O_10
REMARK    3  A    between atoms: C_6  and  C_7
REMARK    4  A    between atoms: C_6  and  C_8
REMARK    5  A    between atoms: O_10  and  C_11
REMARK    6  A    between atoms: C_11  and  C_13
REMARK    7  A    between atoms: C_13  and  O_14
REMARK    8  A    between atoms: C_13  and  C_15
REMARK                            x       y       z     vdW  Elec       q    Type
REMARK                         _______ _______ _______ _____ _____    ______ ____
ROOT
ATOM      1  C   UNL     1     -10.618   5.314 130.204  0.00  0.00    +0.000 C 
ATOM      2  O   UNL     1      -9.624   6.011 130.334  0.00  0.00    +0.000 OA
ENDROOT
BRANCH   1   3
ATOM      3  O   UNL     1     -10.566   4.048 129.686  0.00  0.00    +0.000 OA
BRANCH   3   7
ATOM      4  C   UNL     1      -8.257   2.421 133.111  0.00  0.00    +0.000 C 
ATOM      5  C   UNL     1      -9.240   1.603 132.265  0.00  0.00    +0.000 C 
ATOM      6  C   UNL     1     -10.243   2.512 131.534  0.00  0.00    +0.000 C 
ATOM      7  C   UNL     1      -9.583   3.262 130.379  0.00  0.00    +0.000 C 
ATOM      8  C   UNL     1      -8.934   2.270 129.398  0.00  0.00    +0.000 C 
ATOM      9  C   UNL     1      -7.874   1.385 130.064  0.00  0.00    +0.000 C 
ATOM     10  C   UNL     1      -6.631   2.206 130.461  0.00  0.00    +0.000 C 
ATOM     11  C   UNL     1      -7.373   0.373 129.022  0.00  0.00    +0.000 C 
ATOM     12  C   UNL     1      -8.543   0.661 131.255  0.00  0.00    +0.000 C 
ENDBRANCH   3   7
ENDBRANCH   1   3
BRANCH   1  13
ATOM     13  C   UNL     1     -12.032   5.716 130.646  0.00  0.00    +0.000 C 
BRANCH  13  14
ATOM     14  C   UNL     1     -12.599   6.902 129.866  0.00  0.00    +0.000 A 
ATOM     15  C   UNL     1     -13.271   6.746 128.640  0.00  0.00    +0.000 A 
ATOM     16  C   UNL     1     -13.594   7.835 127.839  0.00  0.00    +0.000 A 
ATOM     17  C   UNL     1     -13.425   9.117 128.335  0.00  0.00    +0.000 A 
ATOM     18  C   UNL     1     -12.872   9.301 129.601  0.00  0.00    +0.000 A 
ATOM     19  C   UNL     1     -12.446   8.205 130.357  0.00  0.00    +0.000 A 
ENDBRANCH  13  14
BRANCH  13  20
ATOM     20  O   UNL     1     -11.947   6.059 132.038  0.00  0.00    +0.000 OA
ATOM     21  H   UNL     1     -12.779   6.522 132.249  0.00  0.00    +0.000 HD
ENDBRANCH  13  20
ENDBRANCH   1  13
TORSDOF 5
ENDMDL
MODEL 8
REMARK VINA RESULT:      -7.0      1.390      2.268
REMARK  Name = Cyclandelate
REMARK  8 active torsions:
REMARK  status: ('A' for Active; 'I' for Inactive)
REMARK    1  A    between atoms: C_1  and  C_2
REMARK    2  A    between atoms: C_4  and  O_10
REMARK    3  A    between atoms: C_6  and  C_7
REMARK    4  A    between atoms: C_6  and  C_8
REMARK    5  A    between atoms: O_10  and  C_11
REMARK    6  A    between atoms: C_11  and  C_13
REMARK    7  A    between atoms: C_13  and  O_14
REMARK    8  A    between atoms: C_13  and  C_15
REMARK                            x       y       z     vdW  Elec       q    Type
REMARK                         _______ _______ _______ _____ _____    ______ ____
ROOT
ATOM      1  C   UNL     1      -7.361   1.534 123.792  0.00  0.00    +0.000 C 
ATOM      2  O   UNL     1      -6.687   0.789 123.099  0.00  0.00    +0.000 OA
ENDROOT
BRANCH   1   3
ATOM      3  O   UNL     1      -8.349   1.076 124.622  0.00  0.00    +0.000 OA
BRANCH   3   7
ATOM      4  C   UNL     1      -6.824  -2.350 126.999  0.00  0.00    +0.000 C 
ATOM      5  C   UNL     1      -8.307  -1.987 126.859  0.00  0.00    +0.000 C 
ATOM      6  C   UNL     1      -8.488  -0.517 126.445  0.00  0.00    +0.000 C 
ATOM      7  C   UNL     1      -8.104  -0.293 124.984  0.00  0.00    +0.000 C 
ATOM      8  C   UNL     1      -8.921  -1.221 124.068  0.00  0.00    +0.000 C 
ATOM      9  C   UNL     1      -8.721  -2.705 124.396  0.00  0.00    +0.000 C 
ATOM     10  C   UNL     1      -7.297  -3.170 124.031  0.00  0.00    +0.000 C 
ATOM     11  C   UNL     1      -9.656  -3.524 123.494  0.00  0.00    +0.000 C 
ATOM     12  C   UNL     1      -9.075  -2.911 125.886  0.00  0.00    +0.000 C 
ENDBRANCH   3   7
ENDBRANCH   1   3
BRANCH   1  13
ATOM     13  C   UNL     1      -7.168   3.055 123.886  0.00  0.00    +0.000 C 
BRANCH  13  14
ATOM     14  C   UNL     1      -6.546   3.667 122.632  0.00  0.00    +0.000 A 
ATOM     15  C   UNL     1      -7.171   3.605 121.372  0.00  0.00    +0.000 A 
ATOM     16  C   UNL     1      -6.508   3.973 120.208  0.00  0.00    +0.000 A 
ATOM     17  C   UNL     1      -5.273   4.592 120.296  0.00  0.00    +0.000 A 
ATOM     18  C   UNL     1      -4.679   4.778 121.544  0.00  0.00    +0.000 A 
ATOM     19  C   UNL     1      -5.301   4.305 122.703  0.00  0.00    +0.000 A 
ENDBRANCH  13  14
BRANCH  13  20
ATOM     20  O   UNL     1      -6.306   3.293 125.009  0.00  0.00    +0.000 OA
ATOM     21  H   UNL     1      -6.669   2.760 125.741  0.00  0.00    +0.000 HD
ENDBRANCH  13  20
ENDBRANCH   1  13
TORSDOF 5
ENDMDL
MODEL 9
REMARK VINA RESULT:      -6.9      1.531      2.280
REMARK  Name = Cyclandelate
REMARK  8 active torsions:
REMARK  status: ('A' for Active; 'I' for Inactive)
REMARK    1  A    between atoms: C_1  and  C_2
REMARK    2  A    between atoms: C_4  and  O_10
REMARK    3  A    between atoms: C_6  and  C_7
REMARK    4  A    between atoms: C_6  and  C_8
REMARK    5  A    between atoms: O_10  and  C_11
REMARK    6  A    between atoms: C_11  and  C_13
REMARK    7  A    between atoms: C_13  and  O_14
REMARK    8  A    between atoms: C_13  and  C_15
REMARK                            x       y       z     vdW  Elec       q    Type
REMARK                         _______ _______ _______ _____ _____    ______ ____
ROOT
ATOM      1  C   UNL     1      -8.502   1.494 125.335  0.00  0.00    +0.000 C 
ATOM      2  O   UNL     1      -9.359   0.928 125.993  0.00  0.00    +0.000 OA
ENDROOT
BRANCH   1   3
ATOM      3  O   UNL     1      -7.292   0.919 125.052  0.00  0.00    +0.000 OA
BRANCH   3   7
ATOM      4  C   UNL     1      -9.426  -2.607 123.402  0.00  0.00    +0.000 C 
ATOM      5  C   UNL     1      -8.405  -1.772 122.621  0.00  0.00    +0.000 C 
ATOM      6  C   UNL     1      -8.243  -0.370 123.231  0.00  0.00    +0.000 C 
ATOM      7  C   UNL     1      -7.476  -0.416 124.550  0.00  0.00    +0.000 C 
ATOM      8  C   UNL     1      -6.104  -1.082 124.349  0.00  0.00    +0.000 C 
ATOM      9  C   UNL     1      -6.212  -2.511 123.806  0.00  0.00    +0.000 C 
ATOM     10  C   UNL     1      -6.809  -3.464 124.860  0.00  0.00    +0.000 C 
ATOM     11  C   UNL     1      -4.791  -3.034 123.548  0.00  0.00    +0.000 C 
ATOM     12  C   UNL     1      -7.024  -2.457 122.491  0.00  0.00    +0.000 C 
ENDBRANCH   3   7
ENDBRANCH   1   3
BRANCH   1  13
ATOM     13  C   UNL     1      -8.666   2.875 124.686  0.00  0.00    +0.000 C 
BRANCH  13  14
ATOM     14  C   UNL     1      -7.515   3.252 123.755  0.00  0.00    +0.000 A 
ATOM     15  C   UNL     1      -6.325   3.837 124.227  0.00  0.00    +0.000 A 
ATOM     16  C   UNL     1      -5.377   4.368 123.360  0.00  0.00    +0.000 A 
ATOM     17  C   UNL     1      -5.507   4.154 121.998  0.00  0.00    +0.000 A 
ATOM     18  C   UNL     1      -6.619   3.469 121.508  0.00  0.00    +0.000 A 
ATOM     19  C   UNL     1      -7.625   3.035 122.376  0.00  0.00    +0.000 A 
ENDBRANCH  13  14
BRANCH  13  20
ATOM     20  O   UNL     1      -8.742   3.828 125.759  0.00  0.00    +0.000 OA
ATOM     21  H   UNL     1      -8.283   3.416 126.513  0.00  0.00    +0.000 HD
ENDBRANCH  13  20
ENDBRANCH   1  13
TORSDOF 5
ENDMDL
