MODEL 1
REMARK VINA RESULT:      -7.1      0.000      0.000
REMARK  Name = Cyclobenzaprine
REMARK  5 active torsions:
REMARK  status: ('A' for Active; 'I' for Inactive)
REMARK    1  A    between atoms: C_1  and  N_2
REMARK    2  A    between atoms: N_2  and  C_3
REMARK    3  A    between atoms: N_2  and  C_4
REMARK    4  A    between atoms: C_4  and  C_5
REMARK    5  A    between atoms: C_5  and  C_6
REMARK                            x       y       z     vdW  Elec       q    Type
REMARK                         _______ _______ _______ _____ _____    ______ ____
ROOT
ATOM      1  C   UNL     1      -5.837  -0.445 127.545  0.00  0.00    +0.000 C 
ATOM      2  C   UNL     1      -6.106  -1.770 127.500  0.00  0.00    +0.000 C 
ATOM      3  C   UNL     1      -6.811  -2.306 126.320  0.00  0.00    +0.000 A 
ATOM      4  C   UNL     1      -6.248  -2.103 125.049  0.00  0.00    +0.000 A 
ATOM      5  C   UNL     1      -6.857  -2.627 123.913  0.00  0.00    +0.000 A 
ATOM      6  C   UNL     1      -8.030  -3.363 124.040  0.00  0.00    +0.000 A 
ATOM      7  C   UNL     1      -8.594  -3.577 125.302  0.00  0.00    +0.000 A 
ATOM      8  C   UNL     1      -7.986  -3.068 126.462  0.00  0.00    +0.000 A 
ATOM      9  C   UNL     1      -8.666  -3.307 127.751  0.00  0.00    +0.000 C 
ATOM     10  C   UNL     1      -8.114  -3.441 128.972  0.00  0.00    +0.000 C 
ATOM     11  C   UNL     1      -6.681  -3.420 129.315  0.00  0.00    +0.000 A 
ATOM     12  C   UNL     1      -6.258  -4.178 130.420  0.00  0.00    +0.000 A 
ATOM     13  C   UNL     1      -4.911  -4.229 130.789  0.00  0.00    +0.000 A 
ATOM     14  C   UNL     1      -3.961  -3.530 130.054  0.00  0.00    +0.000 A 
ATOM     15  C   UNL     1      -4.366  -2.758 128.971  0.00  0.00    +0.000 A 
ATOM     16  C   UNL     1      -5.725  -2.662 128.618  0.00  0.00    +0.000 A 
ENDROOT
BRANCH   1  17
ATOM     17  C   UNL     1      -5.199   0.260 128.709  0.00  0.00    +0.000 C 
BRANCH  17  18
ATOM     18  C   UNL     1      -6.146   1.219 129.437  0.00  0.00    +0.000 C 
BRANCH  18  20
ATOM     19  C   UNL     1      -7.807  -0.061 130.610  0.00  0.00    +0.000 C 
ATOM     20  N   UNL     1      -6.558   0.690 130.754  0.00  0.00    +0.000 NA
ATOM     21  C   UNL     1      -5.532  -0.183 131.334  0.00  0.00    +0.000 C 
ENDBRANCH  18  20
ENDBRANCH  17  18
ENDBRANCH   1  17
TORSDOF 3
ENDMDL
MODEL 2
REMARK VINA RESULT:      -7.0      1.455      1.992
REMARK  Name = Cyclobenzaprine
REMARK  5 active torsions:
REMARK  status: ('A' for Active; 'I' for Inactive)
REMARK    1  A    between atoms: C_1  and  N_2
REMARK    2  A    between atoms: N_2  and  C_3
REMARK    3  A    between atoms: N_2  and  C_4
REMARK    4  A    between atoms: C_4  and  C_5
REMARK    5  A    between atoms: C_5  and  C_6
REMARK                            x       y       z     vdW  Elec       q    Type
REMARK                         _______ _______ _______ _____ _____    ______ ____
ROOT
ATOM      1  C   UNL     1      -5.868  -0.439 127.488  0.00  0.00    +0.000 C 
ATOM      2  C   UNL     1      -6.138  -1.764 127.461  0.00  0.00    +0.000 C 
ATOM      3  C   UNL     1      -6.863  -2.311 126.299  0.00  0.00    +0.000 A 
ATOM      4  C   UNL     1      -6.323  -2.121 125.016  0.00  0.00    +0.000 A 
ATOM      5  C   UNL     1      -6.952  -2.657 123.897  0.00  0.00    +0.000 A 
ATOM      6  C   UNL     1      -8.123  -3.391 124.052  0.00  0.00    +0.000 A 
ATOM      7  C   UNL     1      -8.665  -3.591 125.326  0.00  0.00    +0.000 A 
ATOM      8  C   UNL     1      -8.037  -3.071 126.469  0.00  0.00    +0.000 A 
ATOM      9  C   UNL     1      -8.694  -3.296 127.772  0.00  0.00    +0.000 C 
ATOM     10  C   UNL     1      -8.121  -3.418 128.985  0.00  0.00    +0.000 C 
ATOM     11  C   UNL     1      -6.682  -3.395 129.302  0.00  0.00    +0.000 A 
ATOM     12  C   UNL     1      -6.241  -4.142 130.408  0.00  0.00    +0.000 A 
ATOM     13  C   UNL     1      -4.887  -4.190 130.754  0.00  0.00    +0.000 A 
ATOM     14  C   UNL     1      -3.950  -3.500 129.995  0.00  0.00    +0.000 A 
ATOM     15  C   UNL     1      -4.373  -2.739 128.911  0.00  0.00    +0.000 A 
ATOM     16  C   UNL     1      -5.738  -2.645 128.581  0.00  0.00    +0.000 A 
ENDROOT
BRANCH   1  17
ATOM     17  C   UNL     1      -5.209   0.278 128.634  0.00  0.00    +0.000 C 
BRANCH  17  18
ATOM     18  C   UNL     1      -5.110   1.793 128.432  0.00  0.00    +0.000 C 
BRANCH  18  20
ATOM     19  C   UNL     1      -6.041   3.207 126.727  0.00  0.00    +0.000 C 
ATOM     20  N   UNL     1      -5.060   2.154 127.000  0.00  0.00    +0.000 NA
ATOM     21  C   UNL     1      -3.727   2.620 126.603  0.00  0.00    +0.000 C 
ENDBRANCH  18  20
ENDBRANCH  17  18
ENDBRANCH   1  17
TORSDOF 3
ENDMDL
MODEL 3
REMARK VINA RESULT:      -6.8      1.836      2.233
REMARK  Name = Cyclobenzaprine
REMARK  5 active torsions:
REMARK  status: ('A' for Active; 'I' for Inactive)
REMARK    1  A    between atoms: C_1  and  N_2
REMARK    2  A    between atoms: N_2  and  C_3
REMARK    3  A    between atoms: N_2  and  C_4
REMARK    4  A    between atoms: C_4  and  C_5
REMARK    5  A    between atoms: C_5  and  C_6
REMARK                            x       y       z     vdW  Elec       q    Type
REMARK                         _______ _______ _______ _____ _____    ______ ____
ROOT
ATOM      1  C   UNL     1      -8.030   0.176 127.362  0.00  0.00    +0.000 C 
ATOM      2  C   UNL     1      -7.683  -1.111 127.128  0.00  0.00    +0.000 C 
ATOM      3  C   UNL     1      -8.051  -1.714 125.833  0.00  0.00    +0.000 A 
ATOM      4  C   UNL     1      -7.608  -1.097 124.651  0.00  0.00    +0.000 A 
ATOM      5  C   UNL     1      -7.895  -1.655 123.410  0.00  0.00    +0.000 A 
ATOM      6  C   UNL     1      -8.623  -2.838 123.341  0.00  0.00    +0.000 A 
ATOM      7  C   UNL     1      -9.063  -3.463 124.512  0.00  0.00    +0.000 A 
ATOM      8  C   UNL     1      -8.770  -2.924 125.775  0.00  0.00    +0.000 A 
ATOM      9  C   UNL     1      -9.302  -3.626 126.959  0.00  0.00    +0.000 C 
ATOM     10  C   UNL     1      -8.776  -3.690 128.197  0.00  0.00    +0.000 C 
ATOM     11  C   UNL     1      -7.509  -3.100 128.664  0.00  0.00    +0.000 A 
ATOM     12  C   UNL     1      -6.819  -3.756 129.697  0.00  0.00    +0.000 A 
ATOM     13  C   UNL     1      -5.598  -3.271 130.173  0.00  0.00    +0.000 A 
ATOM     14  C   UNL     1      -5.039  -2.127 129.617  0.00  0.00    +0.000 A 
ATOM     15  C   UNL     1      -5.719  -1.454 128.609  0.00  0.00    +0.000 A 
ATOM     16  C   UNL     1      -6.971  -1.906 128.154  0.00  0.00    +0.000 A 
ENDROOT
BRANCH   1  17
ATOM     17  C   UNL     1      -7.797   0.903 128.657  0.00  0.00    +0.000 C 
BRANCH  17  18
ATOM     18  C   UNL     1      -8.530   2.245 128.746  0.00  0.00    +0.000 C 
BRANCH  18  20
ATOM     19  C   UNL     1      -7.669   3.701 130.452  0.00  0.00    +0.000 C 
ATOM     20  N   UNL     1      -8.687   2.694 130.145  0.00  0.00    +0.000 NA
ATOM     21  C   UNL     1     -10.018   3.259 130.389  0.00  0.00    +0.000 C 
ENDBRANCH  18  20
ENDBRANCH  17  18
ENDBRANCH   1  17
TORSDOF 3
ENDMDL
MODEL 4
REMARK VINA RESULT:      -6.5      2.149      5.843
REMARK  Name = Cyclobenzaprine
REMARK  5 active torsions:
REMARK  status: ('A' for Active; 'I' for Inactive)
REMARK    1  A    between atoms: C_1  and  N_2
REMARK    2  A    between atoms: N_2  and  C_3
REMARK    3  A    between atoms: N_2  and  C_4
REMARK    4  A    between atoms: C_4  and  C_5
REMARK    5  A    between atoms: C_5  and  C_6
REMARK                            x       y       z     vdW  Elec       q    Type
REMARK                         _______ _______ _______ _____ _____    ______ ____
ROOT
ATOM      1  C   UNL     1      -8.229  -3.600 128.266  0.00  0.00    +0.000 C 
ATOM      2  C   UNL     1      -7.486  -2.789 129.053  0.00  0.00    +0.000 C 
ATOM      3  C   UNL     1      -6.904  -3.347 130.288  0.00  0.00    +0.000 A 
ATOM      4  C   UNL     1      -6.065  -4.470 130.191  0.00  0.00    +0.000 A 
ATOM      5  C   UNL     1      -5.461  -5.003 131.325  0.00  0.00    +0.000 A 
ATOM      6  C   UNL     1      -5.687  -4.415 132.565  0.00  0.00    +0.000 A 
ATOM      7  C   UNL     1      -6.515  -3.293 132.670  0.00  0.00    +0.000 A 
ATOM      8  C   UNL     1      -7.122  -2.731 131.536  0.00  0.00    +0.000 A 
ATOM      9  C   UNL     1      -8.011  -1.570 131.739  0.00  0.00    +0.000 C 
ATOM     10  C   UNL     1      -8.260  -0.552 130.894  0.00  0.00    +0.000 C 
ATOM     11  C   UNL     1      -7.669  -0.328 129.562  0.00  0.00    +0.000 A 
ATOM     12  C   UNL     1      -7.520   0.998 129.123  0.00  0.00    +0.000 A 
ATOM     13  C   UNL     1      -6.943   1.289 127.883  0.00  0.00    +0.000 A 
ATOM     14  C   UNL     1      -6.497   0.259 127.065  0.00  0.00    +0.000 A 
ATOM     15  C   UNL     1      -6.657  -1.060 127.475  0.00  0.00    +0.000 A 
ATOM     16  C   UNL     1      -7.278  -1.367 128.700  0.00  0.00    +0.000 A 
ENDROOT
BRANCH   1  17
ATOM     17  C   UNL     1      -8.950  -3.160 127.022  0.00  0.00    +0.000 C 
BRANCH  17  18
ATOM     18  C   UNL     1      -8.377  -3.764 125.737  0.00  0.00    +0.000 C 
BRANCH  18  20
ATOM     19  C   UNL     1      -7.071  -2.716 124.013  0.00  0.00    +0.000 C 
ATOM     20  N   UNL     1      -8.402  -2.799 124.618  0.00  0.00    +0.000 NA
ATOM     21  C   UNL     1      -9.378  -3.181 123.592  0.00  0.00    +0.000 C 
ENDBRANCH  18  20
ENDBRANCH  17  18
ENDBRANCH   1  17
TORSDOF 3
ENDMDL
MODEL 5
REMARK VINA RESULT:      -6.5      1.429      3.922
REMARK  Name = Cyclobenzaprine
REMARK  5 active torsions:
REMARK  status: ('A' for Active; 'I' for Inactive)
REMARK    1  A    between atoms: C_1  and  N_2
REMARK    2  A    between atoms: N_2  and  C_3
REMARK    3  A    between atoms: N_2  and  C_4
REMARK    4  A    between atoms: C_4  and  C_5
REMARK    5  A    between atoms: C_5  and  C_6
REMARK                            x       y       z     vdW  Elec       q    Type
REMARK                         _______ _______ _______ _____ _____    ______ ____
ROOT
ATOM      1  C   UNL     1      -8.020  -3.256 128.124  0.00  0.00    +0.000 C 
ATOM      2  C   UNL     1      -7.807  -2.250 127.244  0.00  0.00    +0.000 C 
ATOM      3  C   UNL     1      -8.051  -2.505 125.812  0.00  0.00    +0.000 A 
ATOM      4  C   UNL     1      -9.323  -2.948 125.412  0.00  0.00    +0.000 A 
ATOM      5  C   UNL     1      -9.608  -3.160 124.068  0.00  0.00    +0.000 A 
ATOM      6  C   UNL     1      -8.626  -2.926 123.111  0.00  0.00    +0.000 A 
ATOM      7  C   UNL     1      -7.359  -2.478 123.499  0.00  0.00    +0.000 A 
ATOM      8  C   UNL     1      -7.056  -2.243 124.850  0.00  0.00    +0.000 A 
ATOM      9  C   UNL     1      -5.684  -1.807 125.178  0.00  0.00    +0.000 C 
ATOM     10  C   UNL     1      -5.278  -1.026 126.197  0.00  0.00    +0.000 C 
ATOM     11  C   UNL     1      -6.119  -0.380 127.220  0.00  0.00    +0.000 A 
ATOM     12  C   UNL     1      -5.676   0.838 127.763  0.00  0.00    +0.000 A 
ATOM     13  C   UNL     1      -6.433   1.523 128.717  0.00  0.00    +0.000 A 
ATOM     14  C   UNL     1      -7.652   1.007 129.139  0.00  0.00    +0.000 A 
ATOM     15  C   UNL     1      -8.096  -0.207 128.628  0.00  0.00    +0.000 A 
ATOM     16  C   UNL     1      -7.320  -0.929 127.701  0.00  0.00    +0.000 A 
ENDROOT
BRANCH   1  17
ATOM     17  C   UNL     1      -7.742  -3.175 129.599  0.00  0.00    +0.000 C 
BRANCH  17  18
ATOM     18  C   UNL     1      -6.420  -3.831 130.010  0.00  0.00    +0.000 C 
BRANCH  18  20
ATOM     19  C   UNL     1      -5.241  -1.845 130.675  0.00  0.00    +0.000 C 
ATOM     20  N   UNL     1      -5.262  -2.959 129.724  0.00  0.00    +0.000 NA
ATOM     21  C   UNL     1      -3.995  -3.692 129.808  0.00  0.00    +0.000 C 
ENDBRANCH  18  20
ENDBRANCH  17  18
ENDBRANCH   1  17
TORSDOF 3
ENDMDL
MODEL 6
REMARK VINA RESULT:      -6.5      2.780      5.722
REMARK  Name = Cyclobenzaprine
REMARK  5 active torsions:
REMARK  status: ('A' for Active; 'I' for Inactive)
REMARK    1  A    between atoms: C_1  and  N_2
REMARK    2  A    between atoms: N_2  and  C_3
REMARK    3  A    between atoms: N_2  and  C_4
REMARK    4  A    between atoms: C_4  and  C_5
REMARK    5  A    between atoms: C_5  and  C_6
REMARK                            x       y       z     vdW  Elec       q    Type
REMARK                         _______ _______ _______ _____ _____    ______ ____
ROOT
ATOM      1  C   UNL     1      -5.849  -0.423 127.384  0.00  0.00    +0.000 C 
ATOM      2  C   UNL     1      -5.649   0.081 126.144  0.00  0.00    +0.000 C 
ATOM      3  C   UNL     1      -5.260   1.498 126.015  0.00  0.00    +0.000 A 
ATOM      4  C   UNL     1      -4.103   1.943 126.676  0.00  0.00    +0.000 A 
ATOM      5  C   UNL     1      -3.676   3.260 126.548  0.00  0.00    +0.000 A 
ATOM      6  C   UNL     1      -4.399   4.142 125.753  0.00  0.00    +0.000 A 
ATOM      7  C   UNL     1      -5.549   3.707 125.085  0.00  0.00    +0.000 A 
ATOM      8  C   UNL     1      -5.988   2.377 125.190  0.00  0.00    +0.000 A 
ATOM      9  C   UNL     1      -7.230   2.009 124.484  0.00  0.00    +0.000 C 
ATOM     10  C   UNL     1      -7.571   0.815 123.963  0.00  0.00    +0.000 C 
ATOM     11  C   UNL     1      -6.761  -0.416 123.939  0.00  0.00    +0.000 A 
ATOM     12  C   UNL     1      -6.949  -1.306 122.868  0.00  0.00    +0.000 A 
ATOM     13  C   UNL     1      -6.197  -2.480 122.763  0.00  0.00    +0.000 A 
ATOM     14  C   UNL     1      -5.238  -2.780 123.722  0.00  0.00    +0.000 A 
ATOM     15  C   UNL     1      -5.055  -1.921 124.800  0.00  0.00    +0.000 A 
ATOM     16  C   UNL     1      -5.838  -0.760 124.941  0.00  0.00    +0.000 A 
ENDROOT
BRANCH   1  17
ATOM     17  C   UNL     1      -6.323  -1.820 127.673  0.00  0.00    +0.000 C 
BRANCH  17  18
ATOM     18  C   UNL     1      -7.849  -1.954 127.707  0.00  0.00    +0.000 C 
BRANCH  18  20
ATOM     19  C   UNL     1      -8.973  -4.055 128.008  0.00  0.00    +0.000 C 
ATOM     20  N   UNL     1      -8.290  -2.958 128.696  0.00  0.00    +0.000 NA
ATOM     21  C   UNL     1      -7.164  -3.496 129.466  0.00  0.00    +0.000 C 
ENDBRANCH  18  20
ENDBRANCH  17  18
ENDBRANCH   1  17
TORSDOF 3
ENDMDL
MODEL 7
REMARK VINA RESULT:      -6.4      2.690      5.487
REMARK  Name = Cyclobenzaprine
REMARK  5 active torsions:
REMARK  status: ('A' for Active; 'I' for Inactive)
REMARK    1  A    between atoms: C_1  and  N_2
REMARK    2  A    between atoms: N_2  and  C_3
REMARK    3  A    between atoms: N_2  and  C_4
REMARK    4  A    between atoms: C_4  and  C_5
REMARK    5  A    between atoms: C_5  and  C_6
REMARK                            x       y       z     vdW  Elec       q    Type
REMARK                         _______ _______ _______ _____ _____    ______ ____
ROOT
ATOM      1  C   UNL     1      -8.321  -0.101 127.697  0.00  0.00    +0.000 C 
ATOM      2  C   UNL     1      -7.855  -1.360 127.530  0.00  0.00    +0.000 C 
ATOM      3  C   UNL     1      -7.217  -2.033 128.677  0.00  0.00    +0.000 A 
ATOM      4  C   UNL     1      -7.948  -2.173 129.869  0.00  0.00    +0.000 A 
ATOM      5  C   UNL     1      -7.401  -2.837 130.961  0.00  0.00    +0.000 A 
ATOM      6  C   UNL     1      -6.121  -3.372 130.870  0.00  0.00    +0.000 A 
ATOM      7  C   UNL     1      -5.388  -3.244 129.685  0.00  0.00    +0.000 A 
ATOM      8  C   UNL     1      -5.928  -2.590 128.567  0.00  0.00    +0.000 A 
ATOM      9  C   UNL     1      -5.075  -2.465 127.369  0.00  0.00    +0.000 C 
ATOM     10  C   UNL     1      -5.453  -2.414 126.077  0.00  0.00    +0.000 C 
ATOM     11  C   UNL     1      -6.822  -2.509 125.540  0.00  0.00    +0.000 A 
ATOM     12  C   UNL     1      -6.990  -3.069 124.262  0.00  0.00    +0.000 A 
ATOM     13  C   UNL     1      -8.260  -3.217 123.699  0.00  0.00    +0.000 A 
ATOM     14  C   UNL     1      -9.387  -2.816 124.406  0.00  0.00    +0.000 A 
ATOM     15  C   UNL     1      -9.236  -2.240 125.663  0.00  0.00    +0.000 A 
ATOM     16  C   UNL     1      -7.959  -2.043 126.221  0.00  0.00    +0.000 A 
ENDROOT
BRANCH   1  17
ATOM     17  C   UNL     1      -8.921   0.741 126.606  0.00  0.00    +0.000 C 
BRANCH  17  18
ATOM     18  C   UNL     1      -7.890   1.571 125.836  0.00  0.00    +0.000 C 
BRANCH  18  20
ATOM     19  C   UNL     1      -9.651   1.275 124.229  0.00  0.00    +0.000 C 
ATOM     20  N   UNL     1      -8.290   1.776 124.429  0.00  0.00    +0.000 NA
ATOM     21  C   UNL     1      -8.234   3.191 124.048  0.00  0.00    +0.000 C 
ENDBRANCH  18  20
ENDBRANCH  17  18
ENDBRANCH   1  17
TORSDOF 3
ENDMDL
MODEL 8
REMARK VINA RESULT:      -6.4      6.162      8.973
REMARK  Name = Cyclobenzaprine
REMARK  5 active torsions:
REMARK  status: ('A' for Active; 'I' for Inactive)
REMARK    1  A    between atoms: C_1  and  N_2
REMARK    2  A    between atoms: N_2  and  C_3
REMARK    3  A    between atoms: N_2  and  C_4
REMARK    4  A    between atoms: C_4  and  C_5
REMARK    5  A    between atoms: C_5  and  C_6
REMARK                            x       y       z     vdW  Elec       q    Type
REMARK                         _______ _______ _______ _____ _____    ______ ____
ROOT
ATOM      1  C   UNL     1      -8.237   6.881 130.926  0.00  0.00    +0.000 C 
ATOM      2  C   UNL     1      -8.991   6.148 130.076  0.00  0.00    +0.000 C 
ATOM      3  C   UNL     1     -10.242   6.734 129.559  0.00  0.00    +0.000 A 
ATOM      4  C   UNL     1     -10.181   7.960 128.875  0.00  0.00    +0.000 A 
ATOM      5  C   UNL     1     -11.330   8.528 128.335  0.00  0.00    +0.000 A 
ATOM      6  C   UNL     1     -12.549   7.872 128.470  0.00  0.00    +0.000 A 
ATOM      7  C   UNL     1     -12.619   6.648 129.143  0.00  0.00    +0.000 A 
ATOM      8  C   UNL     1     -11.468   6.051 129.682  0.00  0.00    +0.000 A 
ATOM      9  C   UNL     1     -11.634   4.778 130.410  0.00  0.00    +0.000 C 
ATOM     10  C   UNL     1     -10.754   3.765 130.532  0.00  0.00    +0.000 C 
ATOM     11  C   UNL     1      -9.412   3.668 129.931  0.00  0.00    +0.000 A 
ATOM     12  C   UNL     1      -8.926   2.389 129.614  0.00  0.00    +0.000 A 
ATOM     13  C   UNL     1      -7.673   2.219 129.016  0.00  0.00    +0.000 A 
ATOM     14  C   UNL     1      -6.890   3.326 128.716  0.00  0.00    +0.000 A 
ATOM     15  C   UNL     1      -7.347   4.598 129.043  0.00  0.00    +0.000 A 
ATOM     16  C   UNL     1      -8.586   4.778 129.687  0.00  0.00    +0.000 A 
ENDROOT
BRANCH   1  17
ATOM     17  C   UNL     1      -6.983   6.394 131.596  0.00  0.00    +0.000 C 
BRANCH  17  18
ATOM     18  C   UNL     1      -5.708   7.056 131.064  0.00  0.00    +0.000 C 
BRANCH  18  20
ATOM     19  C   UNL     1      -3.427   7.514 131.663  0.00  0.00    +0.000 C 
ATOM     20  N   UNL     1      -4.496   6.515 131.713  0.00  0.00    +0.000 NA
ATOM     21  C   UNL     1      -4.747   6.143 133.109  0.00  0.00    +0.000 C 
ENDBRANCH  18  20
ENDBRANCH  17  18
ENDBRANCH   1  17
TORSDOF 3
ENDMDL
MODEL 9
REMARK VINA RESULT:      -6.2      6.388      8.981
REMARK  Name = Cyclobenzaprine
REMARK  5 active torsions:
REMARK  status: ('A' for Active; 'I' for Inactive)
REMARK    1  A    between atoms: C_1  and  N_2
REMARK    2  A    between atoms: N_2  and  C_3
REMARK    3  A    between atoms: N_2  and  C_4
REMARK    4  A    between atoms: C_4  and  C_5
REMARK    5  A    between atoms: C_5  and  C_6
REMARK                            x       y       z     vdW  Elec       q    Type
REMARK                         _______ _______ _______ _____ _____    ______ ____
ROOT
ATOM      1  C   UNL     1      -8.094   6.842 130.846  0.00  0.00    +0.000 C 
ATOM      2  C   UNL     1      -7.304   5.793 131.169  0.00  0.00    +0.000 C 
ATOM      3  C   UNL     1      -5.859   5.886 130.888  0.00  0.00    +0.000 A 
ATOM      4  C   UNL     1      -5.131   6.951 131.445  0.00  0.00    +0.000 A 
ATOM      5  C   UNL     1      -3.759   7.054 131.240  0.00  0.00    +0.000 A 
ATOM      6  C   UNL     1      -3.103   6.090 130.482  0.00  0.00    +0.000 A 
ATOM      7  C   UNL     1      -3.818   5.023 129.930  0.00  0.00    +0.000 A 
ATOM      8  C   UNL     1      -5.201   4.893 130.138  0.00  0.00    +0.000 A 
ATOM      9  C   UNL     1      -5.886   3.757 129.489  0.00  0.00    +0.000 C 
ATOM     10  C   UNL     1      -6.977   3.090 129.912  0.00  0.00    +0.000 C 
ATOM     11  C   UNL     1      -7.736   3.311 131.156  0.00  0.00    +0.000 A 
ATOM     12  C   UNL     1      -8.378   2.205 131.739  0.00  0.00    +0.000 A 
ATOM     13  C   UNL     1      -9.094   2.332 132.933  0.00  0.00    +0.000 A 
ATOM     14  C   UNL     1      -9.171   3.563 133.571  0.00  0.00    +0.000 A 
ATOM     15  C   UNL     1      -8.559   4.672 132.996  0.00  0.00    +0.000 A 
ATOM     16  C   UNL     1      -7.876   4.566 131.771  0.00  0.00    +0.000 A 
ENDROOT
BRANCH   1  17
ATOM     17  C   UNL     1      -9.589   6.867 130.998  0.00  0.00    +0.000 C 
BRANCH  17  18
ATOM     18  C   UNL     1     -10.332   7.151 129.688  0.00  0.00    +0.000 C 
BRANCH  18  20
ATOM     19  C   UNL     1     -11.272   5.058 130.402  0.00  0.00    +0.000 C 
ATOM     20  N   UNL     1     -11.235   6.042 129.318  0.00  0.00    +0.000 NA
ATOM     21  C   UNL     1     -12.597   6.516 129.048  0.00  0.00    +0.000 C 
ENDBRANCH  18  20
ENDBRANCH  17  18
ENDBRANCH   1  17
TORSDOF 3
ENDMDL
