MODEL 1
REMARK VINA RESULT:      -6.9      0.000      0.000
REMARK  Name = Cycloguanil
REMARK  3 active torsions:
REMARK  status: ('A' for Active; 'I' for Inactive)
REMARK    1  A    between atoms: C_1  and  C_2
REMARK    2  A    between atoms: C_2  and  C_3
REMARK    3  A    between atoms: N_10  and  C_11
REMARK                            x       y       z     vdW  Elec       q    Type
REMARK                         _______ _______ _______ _____ _____    ______ ____
ROOT
ATOM      1  C   UNL     1      -7.126   0.340 123.357  0.00  0.00    +0.000 C 
ATOM      2  C   UNL     1      -8.300   1.201 123.860  0.00  0.00    +0.000 C 
ATOM      3  C   UNL     1      -9.627   0.859 123.161  0.00  0.00    +0.000 C 
ATOM      4  N   UNL     1      -8.534   0.748 125.222  0.00  0.00    +0.000 NA
ATOM      5  C   UNL     1      -8.514   1.614 126.172  0.00  0.00    +0.000 C 
ATOM      6  N   UNL     1      -8.819   1.139 127.396  0.00  0.00    +0.000 N 
ATOM      7  N   UNL     1      -8.206   2.929 126.019  0.00  0.00    +0.000 NA
ATOM      8  C   UNL     1      -7.932   3.371 124.829  0.00  0.00    +0.000 C 
ATOM      9  N   UNL     1      -7.595   4.676 124.676  0.00  0.00    +0.000 N 
ATOM     10  N   UNL     1      -7.976   2.623 123.683  0.00  0.00    +0.000 N 
ATOM     11  H   UNL     1      -9.070   0.165 127.476  0.00  0.00    +0.000 HD
ATOM     12  H   UNL     1      -8.853   1.745 128.199  0.00  0.00    +0.000 HD
ATOM     13  H   UNL     1      -7.621   5.293 125.474  0.00  0.00    +0.000 HD
ATOM     14  H   UNL     1      -7.449   5.074 123.761  0.00  0.00    +0.000 HD
ENDROOT
BRANCH  10  15
ATOM     15  C   UNL     1      -7.672   3.065 122.371  0.00  0.00    +0.000 A 
ATOM     16  C   UNL     1      -6.339   3.219 121.953  0.00  0.00    +0.000 A 
ATOM     17  C   UNL     1      -6.004   3.851 120.757  0.00  0.00    +0.000 A 
ATOM     18  C   UNL     1      -7.012   4.226 119.885  0.00  0.00    +0.000 A 
ATOM     19 CL   UNL     1      -6.598   4.959 118.386  0.00  0.00    +0.000 Cl
ATOM     20  C   UNL     1      -8.345   3.985 120.214  0.00  0.00    +0.000 A 
ATOM     21  C   UNL     1      -8.675   3.426 121.459  0.00  0.00    +0.000 A 
ENDBRANCH  10  15
TORSDOF 1
ENDMDL
MODEL 2
REMARK VINA RESULT:      -6.4      5.101      7.357
REMARK  Name = Cycloguanil
REMARK  3 active torsions:
REMARK  status: ('A' for Active; 'I' for Inactive)
REMARK    1  A    between atoms: C_1  and  C_2
REMARK    2  A    between atoms: C_2  and  C_3
REMARK    3  A    between atoms: N_10  and  C_11
REMARK                            x       y       z     vdW  Elec       q    Type
REMARK                         _______ _______ _______ _____ _____    ______ ____
ROOT
ATOM      1  C   UNL     1      -9.388  -3.294 124.213  0.00  0.00    +0.000 C 
ATOM      2  C   UNL     1      -8.603  -1.975 124.087  0.00  0.00    +0.000 C 
ATOM      3  C   UNL     1      -7.180  -2.182 123.543  0.00  0.00    +0.000 C 
ATOM      4  N   UNL     1      -9.255  -1.258 123.003  0.00  0.00    +0.000 NA
ATOM      5  C   UNL     1      -9.690  -0.068 123.223  0.00  0.00    +0.000 C 
ATOM      6  N   UNL     1     -10.210   0.567 122.155  0.00  0.00    +0.000 N 
ATOM      7  N   UNL     1      -9.666   0.557 124.430  0.00  0.00    +0.000 NA
ATOM      8  C   UNL     1      -9.146  -0.065 125.445  0.00  0.00    +0.000 C 
ATOM      9  N   UNL     1      -9.145   0.544 126.657  0.00  0.00    +0.000 N 
ATOM     10  N   UNL     1      -8.562  -1.302 125.394  0.00  0.00    +0.000 N 
ATOM     11  H   UNL     1     -10.190   0.089 121.265  0.00  0.00    +0.000 HD
ATOM     12  H   UNL     1     -10.554   1.510 122.222  0.00  0.00    +0.000 HD
ATOM     13  H   UNL     1      -9.493   1.488 126.739  0.00  0.00    +0.000 HD
ATOM     14  H   UNL     1      -8.685   0.127 127.451  0.00  0.00    +0.000 HD
ENDROOT
BRANCH  10  15
ATOM     15  C   UNL     1      -7.997  -2.017 126.478  0.00  0.00    +0.000 A 
ATOM     16  C   UNL     1      -8.755  -2.960 127.194  0.00  0.00    +0.000 A 
ATOM     17  C   UNL     1      -8.308  -3.520 128.389  0.00  0.00    +0.000 A 
ATOM     18  C   UNL     1      -7.024  -3.244 128.826  0.00  0.00    +0.000 A 
ATOM     19 CL   UNL     1      -6.453  -3.974 130.274  0.00  0.00    +0.000 Cl
ATOM     20  C   UNL     1      -6.199  -2.402 128.082  0.00  0.00    +0.000 A 
ATOM     21  C   UNL     1      -6.689  -1.776 126.925  0.00  0.00    +0.000 A 
ENDBRANCH  10  15
TORSDOF 1
ENDMDL
MODEL 3
REMARK VINA RESULT:      -6.3      8.493      9.465
REMARK  Name = Cycloguanil
REMARK  3 active torsions:
REMARK  status: ('A' for Active; 'I' for Inactive)
REMARK    1  A    between atoms: C_1  and  C_2
REMARK    2  A    between atoms: C_2  and  C_3
REMARK    3  A    between atoms: N_10  and  C_11
REMARK                            x       y       z     vdW  Elec       q    Type
REMARK                         _______ _______ _______ _____ _____    ______ ____
ROOT
ATOM      1  C   UNL     1      -8.961   6.002 133.351  0.00  0.00    +0.000 C 
ATOM      2  C   UNL     1      -8.608   5.172 132.103  0.00  0.00    +0.000 C 
ATOM      3  C   UNL     1      -7.501   5.820 131.254  0.00  0.00    +0.000 C 
ATOM      4  N   UNL     1      -7.954   3.982 132.622  0.00  0.00    +0.000 NA
ATOM      5  C   UNL     1      -8.421   2.829 132.295  0.00  0.00    +0.000 C 
ATOM      6  N   UNL     1      -7.720   1.770 132.745  0.00  0.00    +0.000 N 
ATOM      7  N   UNL     1      -9.545   2.626 131.558  0.00  0.00    +0.000 NA
ATOM      8  C   UNL     1     -10.199   3.660 131.119  0.00  0.00    +0.000 C 
ATOM      9  N   UNL     1     -11.336   3.462 130.408  0.00  0.00    +0.000 N 
ATOM     10  N   UNL     1      -9.819   4.963 131.295  0.00  0.00    +0.000 N 
ATOM     11  H   UNL     1      -6.874   1.951 133.267  0.00  0.00    +0.000 HD
ATOM     12  H   UNL     1      -7.992   0.828 132.521  0.00  0.00    +0.000 HD
ATOM     13  H   UNL     1     -11.624   2.522 130.181  0.00  0.00    +0.000 HD
ATOM     14  H   UNL     1     -11.830   4.234 129.987  0.00  0.00    +0.000 HD
ENDROOT
BRANCH  10  15
ATOM     15  C   UNL     1     -10.510   6.115 130.844  0.00  0.00    +0.000 A 
ATOM     16  C   UNL     1     -11.693   6.538 131.473  0.00  0.00    +0.000 A 
ATOM     17  C   UNL     1     -12.509   7.528 130.931  0.00  0.00    +0.000 A 
ATOM     18  C   UNL     1     -12.085   8.213 129.805  0.00  0.00    +0.000 A 
ATOM     19 CL   UNL     1     -13.067   9.470 129.164  0.00  0.00    +0.000 Cl
ATOM     20  C   UNL     1     -10.860   7.899 129.217  0.00  0.00    +0.000 A 
ATOM     21  C   UNL     1     -10.085   6.843 129.722  0.00  0.00    +0.000 A 
ENDBRANCH  10  15
TORSDOF 1
ENDMDL
MODEL 4
REMARK VINA RESULT:      -6.2      7.725      9.241
REMARK  Name = Cycloguanil
REMARK  3 active torsions:
REMARK  status: ('A' for Active; 'I' for Inactive)
REMARK    1  A    between atoms: C_1  and  C_2
REMARK    2  A    between atoms: C_2  and  C_3
REMARK    3  A    between atoms: N_10  and  C_11
REMARK                            x       y       z     vdW  Elec       q    Type
REMARK                         _______ _______ _______ _____ _____    ______ ____
ROOT
ATOM      1  C   UNL     1      -8.762   4.279 129.534  0.00  0.00    +0.000 C 
ATOM      2  C   UNL     1      -9.530   3.874 130.805  0.00  0.00    +0.000 C 
ATOM      3  C   UNL     1     -10.864   3.174 130.493  0.00  0.00    +0.000 C 
ATOM      4  N   UNL     1      -8.741   2.803 131.390  0.00  0.00    +0.000 NA
ATOM      5  C   UNL     1      -8.348   2.921 132.609  0.00  0.00    +0.000 C 
ATOM      6  N   UNL     1      -7.691   1.857 133.112  0.00  0.00    +0.000 N 
ATOM      7  N   UNL     1      -8.542   4.019 133.386  0.00  0.00    +0.000 NA
ATOM      8  C   UNL     1      -9.193   5.028 132.888  0.00  0.00    +0.000 C 
ATOM      9  N   UNL     1      -9.365   6.137 133.650  0.00  0.00    +0.000 N 
ATOM     10  N   UNL     1      -9.756   5.062 131.641  0.00  0.00    +0.000 N 
ATOM     11  H   UNL     1      -7.584   1.045 132.523  0.00  0.00    +0.000 HD
ATOM     12  H   UNL     1      -7.365   1.845 134.064  0.00  0.00    +0.000 HD
ATOM     13  H   UNL     1      -9.038   6.140 134.605  0.00  0.00    +0.000 HD
ATOM     14  H   UNL     1      -9.926   6.910 133.328  0.00  0.00    +0.000 HD
ENDROOT
BRANCH  10  15
ATOM     15  C   UNL     1     -10.460   6.145 131.059  0.00  0.00    +0.000 A 
ATOM     16  C   UNL     1     -11.808   6.383 131.376  0.00  0.00    +0.000 A 
ATOM     17  C   UNL     1     -12.588   7.296 130.670  0.00  0.00    +0.000 A 
ATOM     18  C   UNL     1     -11.991   8.093 129.708  0.00  0.00    +0.000 A 
ATOM     19 CL   UNL     1     -12.941   9.256 128.871  0.00  0.00    +0.000 Cl
ATOM     20  C   UNL     1     -10.628   7.966 129.444  0.00  0.00    +0.000 A 
ATOM     21  C   UNL     1      -9.870   6.985 130.102  0.00  0.00    +0.000 A 
ENDBRANCH  10  15
TORSDOF 1
ENDMDL
MODEL 5
REMARK VINA RESULT:      -6.2      7.172      9.147
REMARK  Name = Cycloguanil
REMARK  3 active torsions:
REMARK  status: ('A' for Active; 'I' for Inactive)
REMARK    1  A    between atoms: C_1  and  C_2
REMARK    2  A    between atoms: C_2  and  C_3
REMARK    3  A    between atoms: N_10  and  C_11
REMARK                            x       y       z     vdW  Elec       q    Type
REMARK                         _______ _______ _______ _____ _____    ______ ____
ROOT
ATOM      1  C   UNL     1      -3.606  -3.701 128.994  0.00  0.00    +0.000 C 
ATOM      2  C   UNL     1      -4.368  -3.409 130.300  0.00  0.00    +0.000 C 
ATOM      3  C   UNL     1      -5.004  -4.670 130.909  0.00  0.00    +0.000 C 
ATOM      4  N   UNL     1      -3.334  -3.079 131.267  0.00  0.00    +0.000 NA
ATOM      5  C   UNL     1      -3.409  -1.957 131.892  0.00  0.00    +0.000 C 
ATOM      6  N   UNL     1      -2.464  -1.751 132.830  0.00  0.00    +0.000 N 
ATOM      7  N   UNL     1      -4.346  -1.000 131.662  0.00  0.00    +0.000 NA
ATOM      8  C   UNL     1      -5.259  -1.224 130.765  0.00  0.00    +0.000 C 
ATOM      9  N   UNL     1      -6.179  -0.260 130.511  0.00  0.00    +0.000 N 
ATOM     10  N   UNL     1      -5.393  -2.385 130.052  0.00  0.00    +0.000 N 
ATOM     11  H   UNL     1      -1.797  -2.490 133.000  0.00  0.00    +0.000 HD
ATOM     12  H   UNL     1      -2.454  -0.914 133.389  0.00  0.00    +0.000 HD
ATOM     13  H   UNL     1      -6.177   0.586 131.060  0.00  0.00    +0.000 HD
ATOM     14  H   UNL     1      -6.946  -0.424 129.878  0.00  0.00    +0.000 HD
ENDROOT
BRANCH  10  15
ATOM     15  C   UNL     1      -6.364  -2.662 129.058  0.00  0.00    +0.000 A 
ATOM     16  C   UNL     1      -6.194  -2.213 127.738  0.00  0.00    +0.000 A 
ATOM     17  C   UNL     1      -7.216  -2.277 126.793  0.00  0.00    +0.000 A 
ATOM     18  C   UNL     1      -8.399  -2.919 127.119  0.00  0.00    +0.000 A 
ATOM     19 CL   UNL     1      -9.642  -3.043 125.939  0.00  0.00    +0.000 Cl
ATOM     20  C   UNL     1      -8.563  -3.478 128.385  0.00  0.00    +0.000 A 
ATOM     21  C   UNL     1      -7.559  -3.334 129.357  0.00  0.00    +0.000 A 
ENDBRANCH  10  15
TORSDOF 1
ENDMDL
MODEL 6
REMARK VINA RESULT:      -6.0      3.980      5.247
REMARK  Name = Cycloguanil
REMARK  3 active torsions:
REMARK  status: ('A' for Active; 'I' for Inactive)
REMARK    1  A    between atoms: C_1  and  C_2
REMARK    2  A    between atoms: C_2  and  C_3
REMARK    3  A    between atoms: N_10  and  C_11
REMARK                            x       y       z     vdW  Elec       q    Type
REMARK                         _______ _______ _______ _____ _____    ______ ____
ROOT
ATOM      1  C   UNL     1      -9.502   0.249 125.517  0.00  0.00    +0.000 C 
ATOM      2  C   UNL     1      -8.611  -1.003 125.406  0.00  0.00    +0.000 C 
ATOM      3  C   UNL     1      -8.136  -1.515 126.776  0.00  0.00    +0.000 C 
ATOM      4  N   UNL     1      -9.509  -2.059 124.968  0.00  0.00    +0.000 NA
ATOM      5  C   UNL     1      -9.217  -2.715 123.901  0.00  0.00    +0.000 C 
ATOM      6  N   UNL     1     -10.048  -3.731 123.598  0.00  0.00    +0.000 N 
ATOM      7  N   UNL     1      -8.162  -2.446 123.088  0.00  0.00    +0.000 NA
ATOM      8  C   UNL     1      -7.361  -1.472 123.405  0.00  0.00    +0.000 C 
ATOM      9  N   UNL     1      -6.324  -1.182 122.582  0.00  0.00    +0.000 N 
ATOM     10  N   UNL     1      -7.461  -0.711 124.539  0.00  0.00    +0.000 N 
ATOM     11  H   UNL     1     -10.808  -3.926 124.234  0.00  0.00    +0.000 HD
ATOM     12  H   UNL     1      -9.888  -4.317 122.796  0.00  0.00    +0.000 HD
ATOM     13  H   UNL     1      -6.156  -1.758 121.771  0.00  0.00    +0.000 HD
ATOM     14  H   UNL     1      -5.639  -0.485 122.831  0.00  0.00    +0.000 HD
ENDROOT
BRANCH  10  15
ATOM     15  C   UNL     1      -6.618   0.365 124.913  0.00  0.00    +0.000 A 
ATOM     16  C   UNL     1      -5.574   0.175 125.834  0.00  0.00    +0.000 A 
ATOM     17  C   UNL     1      -4.867   1.242 126.386  0.00  0.00    +0.000 A 
ATOM     18  C   UNL     1      -5.107   2.524 125.922  0.00  0.00    +0.000 A 
ATOM     19 CL   UNL     1      -4.200   3.835 126.565  0.00  0.00    +0.000 Cl
ATOM     20  C   UNL     1      -6.057   2.739 124.924  0.00  0.00    +0.000 A 
ATOM     21  C   UNL     1      -6.822   1.668 124.436  0.00  0.00    +0.000 A 
ENDBRANCH  10  15
TORSDOF 1
ENDMDL
MODEL 7
REMARK VINA RESULT:      -5.7      3.542      5.341
REMARK  Name = Cycloguanil
REMARK  3 active torsions:
REMARK  status: ('A' for Active; 'I' for Inactive)
REMARK    1  A    between atoms: C_1  and  C_2
REMARK    2  A    between atoms: C_2  and  C_3
REMARK    3  A    between atoms: N_10  and  C_11
REMARK                            x       y       z     vdW  Elec       q    Type
REMARK                         _______ _______ _______ _____ _____    ______ ____
ROOT
ATOM      1  C   UNL     1      -8.376   2.537 125.119  0.00  0.00    +0.000 C 
ATOM      2  C   UNL     1      -6.918   2.310 124.679  0.00  0.00    +0.000 C 
ATOM      3  C   UNL     1      -6.743   2.372 123.152  0.00  0.00    +0.000 C 
ATOM      4  N   UNL     1      -6.206   3.495 125.127  0.00  0.00    +0.000 NA
ATOM      5  C   UNL     1      -5.177   3.348 125.885  0.00  0.00    +0.000 C 
ATOM      6  N   UNL     1      -4.519   4.482 126.196  0.00  0.00    +0.000 N 
ATOM      7  N   UNL     1      -4.739   2.160 126.378  0.00  0.00    +0.000 NA
ATOM      8  C   UNL     1      -5.377   1.076 126.053  0.00  0.00    +0.000 C 
ATOM      9  N   UNL     1      -4.960  -0.108 126.566  0.00  0.00    +0.000 N 
ATOM     10  N   UNL     1      -6.445   1.018 125.198  0.00  0.00    +0.000 N 
ATOM     11  H   UNL     1      -4.850   5.347 125.794  0.00  0.00    +0.000 HD
ATOM     12  H   UNL     1      -3.688   4.466 126.763  0.00  0.00    +0.000 HD
ATOM     13  H   UNL     1      -4.132  -0.137 127.141  0.00  0.00    +0.000 HD
ATOM     14  H   UNL     1      -5.381  -0.979 126.280  0.00  0.00    +0.000 HD
ENDROOT
BRANCH  10  15
ATOM     15  C   UNL     1      -7.173  -0.139 124.830  0.00  0.00    +0.000 A 
ATOM     16  C   UNL     1      -6.916  -0.798 123.616  0.00  0.00    +0.000 A 
ATOM     17  C   UNL     1      -7.748  -1.801 123.124  0.00  0.00    +0.000 A 
ATOM     18  C   UNL     1      -8.792  -2.260 123.909  0.00  0.00    +0.000 A 
ATOM     19 CL   UNL     1      -9.788  -3.533 123.324  0.00  0.00    +0.000 Cl
ATOM     20  C   UNL     1      -9.010  -1.709 125.171  0.00  0.00    +0.000 A 
ATOM     21  C   UNL     1      -8.218  -0.641 125.622  0.00  0.00    +0.000 A 
ENDBRANCH  10  15
TORSDOF 1
ENDMDL
MODEL 8
REMARK VINA RESULT:      -5.7      5.019      7.465
REMARK  Name = Cycloguanil
REMARK  3 active torsions:
REMARK  status: ('A' for Active; 'I' for Inactive)
REMARK    1  A    between atoms: C_1  and  C_2
REMARK    2  A    between atoms: C_2  and  C_3
REMARK    3  A    between atoms: N_10  and  C_11
REMARK                            x       y       z     vdW  Elec       q    Type
REMARK                         _______ _______ _______ _____ _____    ______ ____
ROOT
ATOM      1  C   UNL     1      -6.771   0.523 125.211  0.00  0.00    +0.000 C 
ATOM      2  C   UNL     1      -8.210  -0.018 125.289  0.00  0.00    +0.000 C 
ATOM      3  C   UNL     1      -9.018   0.608 126.439  0.00  0.00    +0.000 C 
ATOM      4  N   UNL     1      -8.872   0.516 124.110  0.00  0.00    +0.000 NA
ATOM      5  C   UNL     1      -9.442  -0.302 123.298  0.00  0.00    +0.000 C 
ATOM      6  N   UNL     1     -10.104   0.267 122.271  0.00  0.00    +0.000 N 
ATOM      7  N   UNL     1      -9.407  -1.656 123.406  0.00  0.00    +0.000 NA
ATOM      8  C   UNL     1      -8.778  -2.185 124.413  0.00  0.00    +0.000 C 
ATOM      9  N   UNL     1      -8.716  -3.536 124.510  0.00  0.00    +0.000 N 
ATOM     10  N   UNL     1      -8.177  -1.482 125.422  0.00  0.00    +0.000 N 
ATOM     11  H   UNL     1     -10.136   1.275 122.230  0.00  0.00    +0.000 HD
ATOM     12  H   UNL     1     -10.601  -0.289 121.596  0.00  0.00    +0.000 HD
ATOM     13  H   UNL     1      -9.206  -4.106 123.836  0.00  0.00    +0.000 HD
ATOM     14  H   UNL     1      -8.302  -3.984 125.313  0.00  0.00    +0.000 HD
ENDROOT
BRANCH  10  15
ATOM     15  C   UNL     1      -7.471  -2.021 126.526  0.00  0.00    +0.000 A 
ATOM     16  C   UNL     1      -8.157  -2.500 127.656  0.00  0.00    +0.000 A 
ATOM     17  C   UNL     1      -7.499  -2.834 128.837  0.00  0.00    +0.000 A 
ATOM     18  C   UNL     1      -6.115  -2.821 128.868  0.00  0.00    +0.000 A 
ATOM     19 CL   UNL     1      -5.301  -3.282 130.310  0.00  0.00    +0.000 Cl
ATOM     20  C   UNL     1      -5.395  -2.461 127.730  0.00  0.00    +0.000 A 
ATOM     21  C   UNL     1      -6.069  -2.045 126.571  0.00  0.00    +0.000 A 
ENDBRANCH  10  15
TORSDOF 1
ENDMDL
MODEL 9
REMARK VINA RESULT:      -5.6      3.755      5.467
REMARK  Name = Cycloguanil
REMARK  3 active torsions:
REMARK  status: ('A' for Active; 'I' for Inactive)
REMARK    1  A    between atoms: C_1  and  C_2
REMARK    2  A    between atoms: C_2  and  C_3
REMARK    3  A    between atoms: N_10  and  C_11
REMARK                            x       y       z     vdW  Elec       q    Type
REMARK                         _______ _______ _______ _____ _____    ______ ____
ROOT
ATOM      1  C   UNL     1      -5.902   1.444 125.965  0.00  0.00    +0.000 C 
ATOM      2  C   UNL     1      -7.367   1.910 126.047  0.00  0.00    +0.000 C 
ATOM      3  C   UNL     1      -8.037   1.529 127.378  0.00  0.00    +0.000 C 
ATOM      4  N   UNL     1      -7.291   3.360 126.135  0.00  0.00    +0.000 NA
ATOM      5  C   UNL     1      -7.934   4.065 125.273  0.00  0.00    +0.000 C 
ATOM      6  N   UNL     1      -7.884   5.398 125.462  0.00  0.00    +0.000 N 
ATOM      7  N   UNL     1      -8.625   3.562 124.217  0.00  0.00    +0.000 NA
ATOM      8  C   UNL     1      -8.675   2.273 124.061  0.00  0.00    +0.000 C 
ATOM      9  N   UNL     1      -9.340   1.767 122.993  0.00  0.00    +0.000 N 
ATOM     10  N   UNL     1      -8.122   1.356 124.914  0.00  0.00    +0.000 N 
ATOM     11  H   UNL     1      -7.386   5.743 126.269  0.00  0.00    +0.000 HD
ATOM     12  H   UNL     1      -8.375   6.032 124.854  0.00  0.00    +0.000 HD
ATOM     13  H   UNL     1      -9.832   2.392 122.372  0.00  0.00    +0.000 HD
ATOM     14  H   UNL     1      -9.465   0.773 122.878  0.00  0.00    +0.000 HD
ENDROOT
BRANCH  10  15
ATOM     15  C   UNL     1      -8.144  -0.054 124.772  0.00  0.00    +0.000 A 
ATOM     16  C   UNL     1      -9.082  -0.834 125.469  0.00  0.00    +0.000 A 
ATOM     17  C   UNL     1      -8.998  -2.224 125.523  0.00  0.00    +0.000 A 
ATOM     18  C   UNL     1      -8.040  -2.874 124.764  0.00  0.00    +0.000 A 
ATOM     19 CL   UNL     1      -7.968  -4.591 124.790  0.00  0.00    +0.000 Cl
ATOM     20  C   UNL     1      -7.163  -2.138 123.969  0.00  0.00    +0.000 A 
ATOM     21  C   UNL     1      -7.201  -0.735 123.987  0.00  0.00    +0.000 A 
ENDBRANCH  10  15
TORSDOF 1
ENDMDL
