MODEL 1
REMARK VINA RESULT:      -6.8      0.000      0.000
REMARK  Name = Cyclopentolate
REMARK  10 active torsions:
REMARK  status: ('A' for Active; 'I' for Inactive)
REMARK    1  A    between atoms: C_1  and  N_2
REMARK    2  A    between atoms: N_2  and  C_3
REMARK    3  A    between atoms: N_2  and  C_4
REMARK    4  A    between atoms: C_4  and  C_5
REMARK    5  A    between atoms: C_5  and  O_6
REMARK    6  A    between atoms: O_6  and  C_7
REMARK    7  A    between atoms: C_7  and  C_9
REMARK    8  A    between atoms: C_9  and  C_10
REMARK    9  A    between atoms: C_9  and  C_16
REMARK   10  A    between atoms: C_16  and  O_17
REMARK                            x       y       z     vdW  Elec       q    Type
REMARK                         _______ _______ _______ _____ _____    ______ ____
ROOT
ATOM      1  C   UNL     1      -7.903  -1.490 125.192  0.00  0.00    +0.000 C 
ENDROOT
BRANCH   1   2
ATOM      2  C   UNL     1      -8.235  -2.053 126.592  0.00  0.00    +0.000 A 
ATOM      3  C   UNL     1      -7.723  -1.460 127.761  0.00  0.00    +0.000 A 
ATOM      4  C   UNL     1      -7.710  -2.155 128.971  0.00  0.00    +0.000 A 
ATOM      5  C   UNL     1      -8.381  -3.366 129.083  0.00  0.00    +0.000 A 
ATOM      6  C   UNL     1      -9.007  -3.910 127.973  0.00  0.00    +0.000 A 
ATOM      7  C   UNL     1      -8.912  -3.273 126.741  0.00  0.00    +0.000 A 
ENDBRANCH   1   2
BRANCH   1   8
ATOM      8  C   UNL     1      -6.946  -2.471 124.403  0.00  0.00    +0.000 C 
ATOM      9  C   UNL     1      -5.678  -2.872 125.184  0.00  0.00    +0.000 C 
ATOM     10  C   UNL     1      -4.743  -3.472 124.136  0.00  0.00    +0.000 C 
ATOM     11  C   UNL     1      -5.165  -2.875 122.806  0.00  0.00    +0.000 C 
ATOM     12  C   UNL     1      -6.299  -1.913 123.126  0.00  0.00    +0.000 C 
BRANCH   8  13
ATOM     13  O   UNL     1      -7.633  -3.670 123.993  0.00  0.00    +0.000 OA
ATOM     14  H   UNL     1      -7.067  -4.442 124.161  0.00  0.00    +0.000 HD
ENDBRANCH   8  13
ENDBRANCH   1   8
BRANCH   1  15
ATOM     15  C   UNL     1      -9.166  -1.188 124.358  0.00  0.00    +0.000 C 
ATOM     16  O   UNL     1      -9.719  -1.959 123.576  0.00  0.00    +0.000 OA
BRANCH  15  17
ATOM     17  O   UNL     1      -9.666   0.066 124.590  0.00  0.00    +0.000 OA
BRANCH  17  18
ATOM     18  C   UNL     1      -8.758   1.076 124.114  0.00  0.00    +0.000 C 
BRANCH  18  19
ATOM     19  C   UNL     1      -9.329   1.789 122.885  0.00  0.00    +0.000 C 
BRANCH  19  21
ATOM     20  C   UNL     1      -7.345   3.127 123.159  0.00  0.00    +0.000 C 
ATOM     21  N   UNL     1      -8.721   3.114 122.655  0.00  0.00    +0.000 NA
ATOM     22  C   UNL     1      -8.715   3.460 121.230  0.00  0.00    +0.000 C 
ENDBRANCH  19  21
ENDBRANCH  18  19
ENDBRANCH  17  18
ENDBRANCH  15  17
ENDBRANCH   1  15
TORSDOF 8
ENDMDL
MODEL 2
REMARK VINA RESULT:      -5.9      3.554      5.713
REMARK  Name = Cyclopentolate
REMARK  10 active torsions:
REMARK  status: ('A' for Active; 'I' for Inactive)
REMARK    1  A    between atoms: C_1  and  N_2
REMARK    2  A    between atoms: N_2  and  C_3
REMARK    3  A    between atoms: N_2  and  C_4
REMARK    4  A    between atoms: C_4  and  C_5
REMARK    5  A    between atoms: C_5  and  O_6
REMARK    6  A    between atoms: O_6  and  C_7
REMARK    7  A    between atoms: C_7  and  C_9
REMARK    8  A    between atoms: C_9  and  C_10
REMARK    9  A    between atoms: C_9  and  C_16
REMARK   10  A    between atoms: C_16  and  O_17
REMARK                            x       y       z     vdW  Elec       q    Type
REMARK                         _______ _______ _______ _____ _____    ______ ____
ROOT
ATOM      1  C   UNL     1      -7.318   1.669 124.092  0.00  0.00    +0.000 C 
ENDROOT
BRANCH   1   2
ATOM      2  C   UNL     1      -7.674   0.286 123.501  0.00  0.00    +0.000 A 
ATOM      3  C   UNL     1      -8.967  -0.254 123.627  0.00  0.00    +0.000 A 
ATOM      4  C   UNL     1      -9.196  -1.617 123.432  0.00  0.00    +0.000 A 
ATOM      5  C   UNL     1      -8.189  -2.424 122.919  0.00  0.00    +0.000 A 
ATOM      6  C   UNL     1      -6.939  -1.885 122.663  0.00  0.00    +0.000 A 
ATOM      7  C   UNL     1      -6.681  -0.554 122.975  0.00  0.00    +0.000 A 
ENDBRANCH   1   2
BRANCH   1   8
ATOM      8  C   UNL     1      -7.586   2.817 123.038  0.00  0.00    +0.000 C 
ATOM      9  C   UNL     1      -8.830   2.581 122.156  0.00  0.00    +0.000 C 
ATOM     10  C   UNL     1      -8.681   3.561 120.995  0.00  0.00    +0.000 C 
ATOM     11  C   UNL     1      -7.196   3.854 120.879  0.00  0.00    +0.000 C 
ATOM     12  C   UNL     1      -6.523   3.000 121.943  0.00  0.00    +0.000 C 
BRANCH   8  13
ATOM     13  O   UNL     1      -7.709   4.105 123.673  0.00  0.00    +0.000 OA
ATOM     14  H   UNL     1      -8.508   4.552 123.348  0.00  0.00    +0.000 HD
ENDBRANCH   8  13
ENDBRANCH   1   8
BRANCH   1  15
ATOM     15  C   UNL     1      -8.067   1.963 125.408  0.00  0.00    +0.000 C 
ATOM     16  O   UNL     1      -9.191   2.452 125.508  0.00  0.00    +0.000 OA
BRANCH  15  17
ATOM     17  O   UNL     1      -7.354   1.593 126.517  0.00  0.00    +0.000 OA
BRANCH  17  18
ATOM     18  C   UNL     1      -6.663   2.720 127.083  0.00  0.00    +0.000 C 
BRANCH  18  19
ATOM     19  C   UNL     1      -5.196   2.380 127.360  0.00  0.00    +0.000 C 
BRANCH  19  21
ATOM     20  C   UNL     1      -4.770   3.968 125.599  0.00  0.00    +0.000 C 
ATOM     21  N   UNL     1      -4.303   2.735 126.239  0.00  0.00    +0.000 NA
ATOM     22  C   UNL     1      -2.922   2.924 126.696  0.00  0.00    +0.000 C 
ENDBRANCH  19  21
ENDBRANCH  18  19
ENDBRANCH  17  18
ENDBRANCH  15  17
ENDBRANCH   1  15
TORSDOF 8
ENDMDL
MODEL 3
REMARK VINA RESULT:      -5.9      7.485      9.538
REMARK  Name = Cyclopentolate
REMARK  10 active torsions:
REMARK  status: ('A' for Active; 'I' for Inactive)
REMARK    1  A    between atoms: C_1  and  N_2
REMARK    2  A    between atoms: N_2  and  C_3
REMARK    3  A    between atoms: N_2  and  C_4
REMARK    4  A    between atoms: C_4  and  C_5
REMARK    5  A    between atoms: C_5  and  O_6
REMARK    6  A    between atoms: O_6  and  C_7
REMARK    7  A    between atoms: C_7  and  C_9
REMARK    8  A    between atoms: C_9  and  C_10
REMARK    9  A    between atoms: C_9  and  C_16
REMARK   10  A    between atoms: C_16  and  O_17
REMARK                            x       y       z     vdW  Elec       q    Type
REMARK                         _______ _______ _______ _____ _____    ______ ____
ROOT
ATOM      1  C   UNL     1     -10.000   4.923 130.722  0.00  0.00    +0.000 C 
ENDROOT
BRANCH   1   2
ATOM      2  C   UNL     1      -9.342   4.948 132.119  0.00  0.00    +0.000 A 
ATOM      3  C   UNL     1      -8.413   5.944 132.475  0.00  0.00    +0.000 A 
ATOM      4  C   UNL     1      -7.559   5.771 133.564  0.00  0.00    +0.000 A 
ATOM      5  C   UNL     1      -7.746   4.702 134.431  0.00  0.00    +0.000 A 
ATOM      6  C   UNL     1      -8.742   3.775 134.173  0.00  0.00    +0.000 A 
ATOM      7  C   UNL     1      -9.511   3.885 133.019  0.00  0.00    +0.000 A 
ENDBRANCH   1   2
BRANCH   1   8
ATOM      8  C   UNL     1     -10.935   6.181 130.516  0.00  0.00    +0.000 C 
ATOM      9  C   UNL     1     -11.768   6.553 131.760  0.00  0.00    +0.000 C 
ATOM     10  C   UNL     1     -12.846   7.503 131.243  0.00  0.00    +0.000 C 
ATOM     11  C   UNL     1     -13.013   7.186 129.767  0.00  0.00    +0.000 C 
ATOM     12  C   UNL     1     -12.063   6.032 129.483  0.00  0.00    +0.000 C 
BRANCH   8  13
ATOM     13  O   UNL     1     -10.185   7.340 130.101  0.00  0.00    +0.000 OA
ATOM     14  H   UNL     1      -9.644   7.659 130.842  0.00  0.00    +0.000 HD
ENDBRANCH   8  13
ENDBRANCH   1   8
BRANCH   1  15
ATOM     15  C   UNL     1      -8.966   4.831 129.580  0.00  0.00    +0.000 C 
ATOM     16  O   UNL     1      -8.196   5.722 129.227  0.00  0.00    +0.000 OA
BRANCH  15  17
ATOM     17  O   UNL     1      -8.956   3.603 128.973  0.00  0.00    +0.000 OA
BRANCH  17  18
ATOM     18  C   UNL     1      -7.758   3.424 128.197  0.00  0.00    +0.000 C 
BRANCH  18  19
ATOM     19  C   UNL     1      -8.047   2.627 126.922  0.00  0.00    +0.000 C 
BRANCH  19  21
ATOM     20  C   UNL     1      -7.958   4.720 125.733  0.00  0.00    +0.000 C 
ATOM     21  N   UNL     1      -8.668   3.444 125.861  0.00  0.00    +0.000 NA
ATOM     22  C   UNL     1      -8.645   2.750 124.569  0.00  0.00    +0.000 C 
ENDBRANCH  19  21
ENDBRANCH  18  19
ENDBRANCH  17  18
ENDBRANCH  15  17
ENDBRANCH   1  15
TORSDOF 8
ENDMDL
MODEL 4
REMARK VINA RESULT:      -5.8      1.900      2.502
REMARK  Name = Cyclopentolate
REMARK  10 active torsions:
REMARK  status: ('A' for Active; 'I' for Inactive)
REMARK    1  A    between atoms: C_1  and  N_2
REMARK    2  A    between atoms: N_2  and  C_3
REMARK    3  A    between atoms: N_2  and  C_4
REMARK    4  A    between atoms: C_4  and  C_5
REMARK    5  A    between atoms: C_5  and  O_6
REMARK    6  A    between atoms: O_6  and  C_7
REMARK    7  A    between atoms: C_7  and  C_9
REMARK    8  A    between atoms: C_9  and  C_10
REMARK    9  A    between atoms: C_9  and  C_16
REMARK   10  A    between atoms: C_16  and  O_17
REMARK                            x       y       z     vdW  Elec       q    Type
REMARK                         _______ _______ _______ _____ _____    ______ ____
ROOT
ATOM      1  C   UNL     1      -7.386  -1.337 126.080  0.00  0.00    +0.000 C 
ENDROOT
BRANCH   1   2
ATOM      2  C   UNL     1      -7.806  -1.858 127.473  0.00  0.00    +0.000 A 
ATOM      3  C   UNL     1      -7.521  -1.132 128.644  0.00  0.00    +0.000 A 
ATOM      4  C   UNL     1      -7.561  -1.747 129.896  0.00  0.00    +0.000 A 
ATOM      5  C   UNL     1      -8.073  -3.032 130.022  0.00  0.00    +0.000 A 
ATOM      6  C   UNL     1      -8.483  -3.722 128.893  0.00  0.00    +0.000 A 
ATOM      7  C   UNL     1      -8.327  -3.150 127.636  0.00  0.00    +0.000 A 
ENDBRANCH   1   2
BRANCH   1   8
ATOM      8  C   UNL     1      -8.503  -1.644 125.004  0.00  0.00    +0.000 C 
ATOM      9  C   UNL     1      -8.623  -3.136 124.633  0.00  0.00    +0.000 C 
ATOM     10  C   UNL     1      -9.443  -3.158 123.346  0.00  0.00    +0.000 C 
ATOM     11  C   UNL     1      -9.248  -1.797 122.700  0.00  0.00    +0.000 C 
ATOM     12  C   UNL     1      -8.285  -1.045 123.605  0.00  0.00    +0.000 C 
BRANCH   8  13
ATOM     13  O   UNL     1      -9.796  -1.169 125.427  0.00  0.00    +0.000 OA
ATOM     14  H   UNL     1     -10.449  -1.340 124.728  0.00  0.00    +0.000 HD
ENDBRANCH   8  13
ENDBRANCH   1   8
BRANCH   1  15
ATOM     15  C   UNL     1      -7.047   0.169 126.087  0.00  0.00    +0.000 C 
ATOM     16  O   UNL     1      -5.938   0.663 125.891  0.00  0.00    +0.000 OA
BRANCH  15  17
ATOM     17  O   UNL     1      -8.144   0.957 126.314  0.00  0.00    +0.000 OA
BRANCH  17  18
ATOM     18  C   UNL     1      -7.959   2.268 125.753  0.00  0.00    +0.000 C 
BRANCH  18  19
ATOM     19  C   UNL     1      -8.921   2.504 124.586  0.00  0.00    +0.000 C 
BRANCH  19  21
ATOM     20  C   UNL     1      -6.874   3.305 123.600  0.00  0.00    +0.000 C 
ATOM     21  N   UNL     1      -8.336   3.341 123.519  0.00  0.00    +0.000 NA
ATOM     22  C   UNL     1      -8.756   2.883 122.190  0.00  0.00    +0.000 C 
ENDBRANCH  19  21
ENDBRANCH  18  19
ENDBRANCH  17  18
ENDBRANCH  15  17
ENDBRANCH   1  15
TORSDOF 8
ENDMDL
MODEL 5
REMARK VINA RESULT:      -5.8      3.611      6.005
REMARK  Name = Cyclopentolate
REMARK  10 active torsions:
REMARK  status: ('A' for Active; 'I' for Inactive)
REMARK    1  A    between atoms: C_1  and  N_2
REMARK    2  A    between atoms: N_2  and  C_3
REMARK    3  A    between atoms: N_2  and  C_4
REMARK    4  A    between atoms: C_4  and  C_5
REMARK    5  A    between atoms: C_5  and  O_6
REMARK    6  A    between atoms: O_6  and  C_7
REMARK    7  A    between atoms: C_7  and  C_9
REMARK    8  A    between atoms: C_9  and  C_10
REMARK    9  A    between atoms: C_9  and  C_16
REMARK   10  A    between atoms: C_16  and  O_17
REMARK                            x       y       z     vdW  Elec       q    Type
REMARK                         _______ _______ _______ _____ _____    ______ ____
ROOT
ATOM      1  C   UNL     1      -7.336   1.761 124.048  0.00  0.00    +0.000 C 
ENDROOT
BRANCH   1   2
ATOM      2  C   UNL     1      -7.695   0.398 123.414  0.00  0.00    +0.000 A 
ATOM      3  C   UNL     1      -9.032  -0.024 123.292  0.00  0.00    +0.000 A 
ATOM      4  C   UNL     1      -9.343  -1.366 123.072  0.00  0.00    +0.000 A 
ATOM      5  C   UNL     1      -8.334  -2.272 122.773  0.00  0.00    +0.000 A 
ATOM      6  C   UNL     1      -7.014  -1.851 122.759  0.00  0.00    +0.000 A 
ATOM      7  C   UNL     1      -6.701  -0.540 123.100  0.00  0.00    +0.000 A 
ENDBRANCH   1   2
BRANCH   1   8
ATOM      8  C   UNL     1      -7.383   2.914 122.967  0.00  0.00    +0.000 C 
ATOM      9  C   UNL     1      -8.642   2.888 122.076  0.00  0.00    +0.000 C 
ATOM     10  C   UNL     1      -8.309   3.797 120.896  0.00  0.00    +0.000 C 
ATOM     11  C   UNL     1      -6.794   3.812 120.791  0.00  0.00    +0.000 C 
ATOM     12  C   UNL     1      -6.296   2.875 121.881  0.00  0.00    +0.000 C 
BRANCH   8  13
ATOM     13  O   UNL     1      -7.274   4.217 123.572  0.00  0.00    +0.000 OA
ATOM     14  H   UNL     1      -6.853   4.135 124.445  0.00  0.00    +0.000 HD
ENDBRANCH   8  13
ENDBRANCH   1   8
BRANCH   1  15
ATOM     15  C   UNL     1      -8.238   2.115 125.249  0.00  0.00    +0.000 C 
ATOM     16  O   UNL     1      -9.160   2.927 125.247  0.00  0.00    +0.000 OA
BRANCH  15  17
ATOM     17  O   UNL     1      -7.930   1.393 126.372  0.00  0.00    +0.000 OA
BRANCH  17  18
ATOM     18  C   UNL     1      -7.632   2.266 127.476  0.00  0.00    +0.000 C 
BRANCH  18  19
ATOM     19  C   UNL     1      -8.625   2.055 128.622  0.00  0.00    +0.000 C 
BRANCH  19  21
ATOM     20  C   UNL     1      -8.328   4.412 129.021  0.00  0.00    +0.000 C 
ATOM     21  N   UNL     1      -8.543   3.108 129.654  0.00  0.00    +0.000 NA
ATOM     22  C   UNL     1      -9.766   3.162 130.461  0.00  0.00    +0.000 C 
ENDBRANCH  19  21
ENDBRANCH  18  19
ENDBRANCH  17  18
ENDBRANCH  15  17
ENDBRANCH   1  15
TORSDOF 8
ENDMDL
MODEL 6
REMARK VINA RESULT:      -5.8      2.267      3.857
REMARK  Name = Cyclopentolate
REMARK  10 active torsions:
REMARK  status: ('A' for Active; 'I' for Inactive)
REMARK    1  A    between atoms: C_1  and  N_2
REMARK    2  A    between atoms: N_2  and  C_3
REMARK    3  A    between atoms: N_2  and  C_4
REMARK    4  A    between atoms: C_4  and  C_5
REMARK    5  A    between atoms: C_5  and  O_6
REMARK    6  A    between atoms: O_6  and  C_7
REMARK    7  A    between atoms: C_7  and  C_9
REMARK    8  A    between atoms: C_9  and  C_10
REMARK    9  A    between atoms: C_9  and  C_16
REMARK   10  A    between atoms: C_16  and  O_17
REMARK                            x       y       z     vdW  Elec       q    Type
REMARK                         _______ _______ _______ _____ _____    ______ ____
ROOT
ATOM      1  C   UNL     1      -8.289  -0.512 126.658  0.00  0.00    +0.000 C 
ENDROOT
BRANCH   1   2
ATOM      2  C   UNL     1      -8.338  -1.438 125.423  0.00  0.00    +0.000 A 
ATOM      3  C   UNL     1      -7.765  -1.056 124.196  0.00  0.00    +0.000 A 
ATOM      4  C   UNL     1      -8.116  -1.700 123.009  0.00  0.00    +0.000 A 
ATOM      5  C   UNL     1      -8.885  -2.856 123.048  0.00  0.00    +0.000 A 
ATOM      6  C   UNL     1      -9.356  -3.328 124.262  0.00  0.00    +0.000 A 
ATOM      7  C   UNL     1      -9.105  -2.613 125.428  0.00  0.00    +0.000 A 
ENDBRANCH   1   2
BRANCH   1   8
ATOM      8  C   UNL     1      -7.246  -1.045 127.721  0.00  0.00    +0.000 C 
ATOM      9  C   UNL     1      -5.996  -1.700 127.099  0.00  0.00    +0.000 C 
ATOM     10  C   UNL     1      -5.343  -2.468 128.244  0.00  0.00    +0.000 C 
ATOM     11  C   UNL     1      -6.450  -2.760 129.241  0.00  0.00    +0.000 C 
ATOM     12  C   UNL     1      -7.720  -2.195 128.623  0.00  0.00    +0.000 C 
BRANCH   8  13
ATOM     13  O   UNL     1      -6.821  -0.002 128.620  0.00  0.00    +0.000 OA
ATOM     14  H   UNL     1      -7.380   0.783 128.494  0.00  0.00    +0.000 HD
ENDBRANCH   8  13
ENDBRANCH   1   8
BRANCH   1  15
ATOM     15  C   UNL     1      -7.977   0.954 126.290  0.00  0.00    +0.000 C 
ATOM     16  O   UNL     1      -6.867   1.484 126.304  0.00  0.00    +0.000 OA
BRANCH  15  17
ATOM     17  O   UNL     1      -9.090   1.650 125.899  0.00  0.00    +0.000 OA
BRANCH  17  18
ATOM     18  C   UNL     1      -8.746   2.682 124.958  0.00  0.00    +0.000 C 
BRANCH  18  19
ATOM     19  C   UNL     1      -9.155   2.286 123.538  0.00  0.00    +0.000 C 
BRANCH  19  21
ATOM     20  C   UNL     1      -8.643   3.381 121.454  0.00  0.00    +0.000 C 
ATOM     21  N   UNL     1      -8.102   2.558 122.539  0.00  0.00    +0.000 NA
ATOM     22  C   UNL     1      -6.958   3.250 123.142  0.00  0.00    +0.000 C 
ENDBRANCH  19  21
ENDBRANCH  18  19
ENDBRANCH  17  18
ENDBRANCH  15  17
ENDBRANCH   1  15
TORSDOF 8
ENDMDL
MODEL 7
REMARK VINA RESULT:      -5.7      2.097      2.642
REMARK  Name = Cyclopentolate
REMARK  10 active torsions:
REMARK  status: ('A' for Active; 'I' for Inactive)
REMARK    1  A    between atoms: C_1  and  N_2
REMARK    2  A    between atoms: N_2  and  C_3
REMARK    3  A    between atoms: N_2  and  C_4
REMARK    4  A    between atoms: C_4  and  C_5
REMARK    5  A    between atoms: C_5  and  O_6
REMARK    6  A    between atoms: O_6  and  C_7
REMARK    7  A    between atoms: C_7  and  C_9
REMARK    8  A    between atoms: C_9  and  C_10
REMARK    9  A    between atoms: C_9  and  C_16
REMARK   10  A    between atoms: C_16  and  O_17
REMARK                            x       y       z     vdW  Elec       q    Type
REMARK                         _______ _______ _______ _____ _____    ______ ____
ROOT
ATOM      1  C   UNL     1      -6.765  -1.200 126.532  0.00  0.00    +0.000 C 
ENDROOT
BRANCH   1   2
ATOM      2  C   UNL     1      -6.532  -2.242 127.649  0.00  0.00    +0.000 A 
ATOM      3  C   UNL     1      -7.604  -2.943 128.234  0.00  0.00    +0.000 A 
ATOM      4  C   UNL     1      -7.452  -3.592 129.459  0.00  0.00    +0.000 A 
ATOM      5  C   UNL     1      -6.190  -3.723 130.025  0.00  0.00    +0.000 A 
ATOM      6  C   UNL     1      -5.094  -3.150 129.399  0.00  0.00    +0.000 A 
ATOM      7  C   UNL     1      -5.270  -2.400 128.242  0.00  0.00    +0.000 A 
ENDBRANCH   1   2
BRANCH   1   8
ATOM      8  C   UNL     1      -6.724  -1.884 125.107  0.00  0.00    +0.000 C 
ATOM      9  C   UNL     1      -5.480  -2.764 124.869  0.00  0.00    +0.000 C 
ATOM     10  C   UNL     1      -5.443  -2.993 123.360  0.00  0.00    +0.000 C 
ATOM     11  C   UNL     1      -6.197  -1.831 122.739  0.00  0.00    +0.000 C 
ATOM     12  C   UNL     1      -6.609  -0.939 123.901  0.00  0.00    +0.000 C 
BRANCH   8  13
ATOM     13  O   UNL     1      -7.903  -2.676 124.863  0.00  0.00    +0.000 OA
ATOM     14  H   UNL     1      -8.575  -2.473 125.534  0.00  0.00    +0.000 HD
ENDBRANCH   8  13
ENDBRANCH   1   8
BRANCH   1  15
ATOM     15  C   UNL     1      -8.082  -0.418 126.715  0.00  0.00    +0.000 C 
ATOM     16  O   UNL     1      -9.084  -0.513 126.009  0.00  0.00    +0.000 OA
BRANCH  15  17
ATOM     17  O   UNL     1      -8.056   0.417 127.800  0.00  0.00    +0.000 OA
BRANCH  17  18
ATOM     18  C   UNL     1      -8.704   1.666 127.503  0.00  0.00    +0.000 C 
BRANCH  18  19
ATOM     19  C   UNL     1      -7.804   2.556 126.642  0.00  0.00    +0.000 C 
BRANCH  19  21
ATOM     20  C   UNL     1      -7.949   4.747 125.649  0.00  0.00    +0.000 C 
ATOM     21  N   UNL     1      -8.565   3.419 125.716  0.00  0.00    +0.000 NA
ATOM     22  C   UNL     1      -8.615   2.843 124.368  0.00  0.00    +0.000 C 
ENDBRANCH  19  21
ENDBRANCH  18  19
ENDBRANCH  17  18
ENDBRANCH  15  17
ENDBRANCH   1  15
TORSDOF 8
ENDMDL
MODEL 8
REMARK VINA RESULT:      -5.7      7.770     10.116
REMARK  Name = Cyclopentolate
REMARK  10 active torsions:
REMARK  status: ('A' for Active; 'I' for Inactive)
REMARK    1  A    between atoms: C_1  and  N_2
REMARK    2  A    between atoms: N_2  and  C_3
REMARK    3  A    between atoms: N_2  and  C_4
REMARK    4  A    between atoms: C_4  and  C_5
REMARK    5  A    between atoms: C_5  and  O_6
REMARK    6  A    between atoms: O_6  and  C_7
REMARK    7  A    between atoms: C_7  and  C_9
REMARK    8  A    between atoms: C_9  and  C_10
REMARK    9  A    between atoms: C_9  and  C_16
REMARK   10  A    between atoms: C_16  and  O_17
REMARK                            x       y       z     vdW  Elec       q    Type
REMARK                         _______ _______ _______ _____ _____    ______ ____
ROOT
ATOM      1  C   UNL     1      -9.331   5.671 130.953  0.00  0.00    +0.000 C 
ENDROOT
BRANCH   1   2
ATOM      2  C   UNL     1     -10.480   6.676 130.717  0.00  0.00    +0.000 A 
ATOM      3  C   UNL     1     -11.686   6.593 131.437  0.00  0.00    +0.000 A 
ATOM      4  C   UNL     1     -12.836   7.242 130.986  0.00  0.00    +0.000 A 
ATOM      5  C   UNL     1     -12.758   8.139 129.928  0.00  0.00    +0.000 A 
ATOM      6  C   UNL     1     -11.548   8.335 129.282  0.00  0.00    +0.000 A 
ATOM      7  C   UNL     1     -10.433   7.595 129.657  0.00  0.00    +0.000 A 
ENDBRANCH   1   2
BRANCH   1   8
ATOM      8  C   UNL     1      -9.020   5.523 132.496  0.00  0.00    +0.000 C 
ATOM      9  C   UNL     1      -7.524   5.644 132.850  0.00  0.00    +0.000 C 
ATOM     10  C   UNL     1      -7.409   5.096 134.270  0.00  0.00    +0.000 C 
ATOM     11  C   UNL     1      -8.589   4.159 134.456  0.00  0.00    +0.000 C 
ATOM     12  C   UNL     1      -9.326   4.154 133.125  0.00  0.00    +0.000 C 
BRANCH   8  13
ATOM     13  O   UNL     1      -9.758   6.480 133.282  0.00  0.00    +0.000 OA
ATOM     14  H   UNL     1      -9.192   7.245 133.477  0.00  0.00    +0.000 HD
ENDBRANCH   8  13
ENDBRANCH   1   8
BRANCH   1  15
ATOM     15  C   UNL     1      -9.613   4.288 130.328  0.00  0.00    +0.000 C 
ATOM     16  O   UNL     1     -10.720   3.829 130.054  0.00  0.00    +0.000 OA
BRANCH  15  17
ATOM     17  O   UNL     1      -8.468   3.584 130.063  0.00  0.00    +0.000 OA
BRANCH  17  18
ATOM     18  C   UNL     1      -8.758   2.189 129.867  0.00  0.00    +0.000 C 
BRANCH  18  19
ATOM     19  C   UNL     1      -8.051   1.653 128.619  0.00  0.00    +0.000 C 
BRANCH  19  21
ATOM     20  C   UNL     1      -7.757   3.035 126.668  0.00  0.00    +0.000 C 
ATOM     21  N   UNL     1      -8.669   2.123 127.363  0.00  0.00    +0.000 NA
ATOM     22  C   UNL     1      -8.997   1.002 126.476  0.00  0.00    +0.000 C 
ENDBRANCH  19  21
ENDBRANCH  18  19
ENDBRANCH  17  18
ENDBRANCH  15  17
ENDBRANCH   1  15
TORSDOF 8
ENDMDL
MODEL 9
REMARK VINA RESULT:      -5.7      7.949     10.234
REMARK  Name = Cyclopentolate
REMARK  10 active torsions:
REMARK  status: ('A' for Active; 'I' for Inactive)
REMARK    1  A    between atoms: C_1  and  N_2
REMARK    2  A    between atoms: N_2  and  C_3
REMARK    3  A    between atoms: N_2  and  C_4
REMARK    4  A    between atoms: C_4  and  C_5
REMARK    5  A    between atoms: C_5  and  O_6
REMARK    6  A    between atoms: O_6  and  C_7
REMARK    7  A    between atoms: C_7  and  C_9
REMARK    8  A    between atoms: C_9  and  C_10
REMARK    9  A    between atoms: C_9  and  C_16
REMARK   10  A    between atoms: C_16  and  O_17
REMARK                            x       y       z     vdW  Elec       q    Type
REMARK                         _______ _______ _______ _____ _____    ______ ____
ROOT
ATOM      1  C   UNL     1      -9.003   6.373 130.863  0.00  0.00    +0.000 C 
ENDROOT
BRANCH   1   2
ATOM      2  C   UNL     1     -10.336   7.053 130.476  0.00  0.00    +0.000 A 
ATOM      3  C   UNL     1     -11.549   6.695 131.093  0.00  0.00    +0.000 A 
ATOM      4  C   UNL     1     -12.773   7.024 130.512  0.00  0.00    +0.000 A 
ATOM      5  C   UNL     1     -12.816   7.880 129.419  0.00  0.00    +0.000 A 
ATOM      6  C   UNL     1     -11.635   8.353 128.870  0.00  0.00    +0.000 A 
ATOM      7  C   UNL     1     -10.414   7.924 129.378  0.00  0.00    +0.000 A 
ENDBRANCH   1   2
BRANCH   1   8
ATOM      8  C   UNL     1      -9.081   5.773 132.323  0.00  0.00    +0.000 C 
ATOM      9  C   UNL     1      -7.723   5.725 133.055  0.00  0.00    +0.000 C 
ATOM     10  C   UNL     1      -7.946   4.785 134.237  0.00  0.00    +0.000 C 
ATOM     11  C   UNL     1      -9.103   3.884 133.846  0.00  0.00    +0.000 C 
ATOM     12  C   UNL     1      -9.487   4.295 132.432  0.00  0.00    +0.000 C 
BRANCH   8  13
ATOM     13  O   UNL     1     -10.022   6.491 133.145  0.00  0.00    +0.000 OA
ATOM     14  H   UNL     1     -10.392   7.235 132.641  0.00  0.00    +0.000 HD
ENDBRANCH   8  13
ENDBRANCH   1   8
BRANCH   1  15
ATOM     15  C   UNL     1      -8.580   5.283 129.856  0.00  0.00    +0.000 C 
ATOM     16  O   UNL     1      -9.330   4.496 129.283  0.00  0.00    +0.000 OA
BRANCH  15  17
ATOM     17  O   UNL     1      -7.230   5.277 129.619  0.00  0.00    +0.000 OA
BRANCH  17  18
ATOM     18  C   UNL     1      -6.706   3.939 129.671  0.00  0.00    +0.000 C 
BRANCH  18  19
ATOM     19  C   UNL     1      -5.972   3.589 128.374  0.00  0.00    +0.000 C 
BRANCH  19  21
ATOM     20  C   UNL     1      -4.353   5.150 127.511  0.00  0.00    +0.000 C 
ATOM     21  N   UNL     1      -5.765   4.759 127.497  0.00  0.00    +0.000 NA
ATOM     22  C   UNL     1      -6.170   4.470 126.117  0.00  0.00    +0.000 C 
ENDBRANCH  19  21
ENDBRANCH  18  19
ENDBRANCH  17  18
ENDBRANCH  15  17
ENDBRANCH   1  15
TORSDOF 8
ENDMDL
