MODEL 1
REMARK VINA RESULT:      -8.0      0.000      0.000
REMARK  Name = Cyclacillin
REMARK  7 active torsions:
REMARK  status: ('A' for Active; 'I' for Inactive)
REMARK    1  A    between atoms: C_4  and  C_5
REMARK    2  A    between atoms: C_4  and  C_6
REMARK    3  A    between atoms: CA_7  and  C_22
REMARK    4  A    between atoms: CA_11  and  N_12
REMARK    5  A    between atoms: C_13  and  C_15
REMARK    6  A    between atoms: C_15  and  N_16
REMARK    7  A    between atoms: C_22  and  O_23
REMARK                            x       y       z     vdW  Elec       q    Type
REMARK                         _______ _______ _______ _____ _____    ______ ____
ROOT
ATOM      1  C   UNL     1      -8.539   1.574 125.987  0.00  0.00    +0.000 C 
ATOM      2  S   UNL     1      -6.812   0.959 126.107  0.00  0.00    +0.000 S 
ATOM      3  C   UNL     1      -6.169   2.712 126.273  0.00  0.00    +0.000 C 
ATOM      4  C   UNL     1      -4.692   2.695 125.862  0.00  0.00    +0.000 C 
ATOM      5  C   UNL     1      -6.354   3.086 127.756  0.00  0.00    +0.000 C 
ATOM      6  CA  UNL     1      -7.049   3.496 125.273  0.00  0.00    +0.000 C 
ATOM      7  N   UNL     1      -8.390   2.874 125.312  0.00  0.00    +0.000 N 
ATOM      8  C   UNL     1      -9.005   2.441 124.164  0.00  0.00    +0.000 C 
ATOM      9  O   UNL     1      -8.975   2.881 123.028  0.00  0.00    +0.000 OA
ATOM     10  CA  UNL     1      -9.440   1.107 124.820  0.00  0.00    +0.000 C 
ENDROOT
BRANCH  10  11
ATOM     11  N   UNL     1      -9.008  -0.125 124.136  0.00  0.00    +0.000 N 
ATOM     12  C   UNL     1      -9.171  -1.384 124.660  0.00  0.00    +0.000 C 
ATOM     13  O   UNL     1      -9.675  -1.558 125.771  0.00  0.00    +0.000 OA
ATOM     14  H   UNL     1      -8.867  -0.027 123.144  0.00  0.00    +0.000 HD
BRANCH  12  15
ATOM     15  C   UNL     1      -8.711  -2.590 123.762  0.00  0.00    +0.000 C 
ATOM     16  C   UNL     1      -8.040  -2.054 122.488  0.00  0.00    +0.000 C 
ATOM     17  C   UNL     1      -6.680  -1.429 122.789  0.00  0.00    +0.000 C 
ATOM     18  C   UNL     1      -5.764  -2.401 123.538  0.00  0.00    +0.000 C 
ATOM     19  C   UNL     1      -6.379  -3.076 124.767  0.00  0.00    +0.000 C 
ATOM     20  C   UNL     1      -7.791  -3.592 124.490  0.00  0.00    +0.000 C 
BRANCH  15  21
ATOM     21  N   UNL     1      -9.935  -3.346 123.375  0.00  0.00    +0.000 NA
ATOM     22  H   UNL     1     -10.462  -3.545 124.232  0.00  0.00    +0.000 HD
ATOM     23  H   UNL     1      -9.647  -4.277 123.064  0.00  0.00    +0.000 HD
ENDBRANCH  15  21
ENDBRANCH  12  15
ENDBRANCH  10  11
BRANCH   6  24
ATOM     24  C   UNL     1      -7.176   5.029 125.401  0.00  0.00    +0.000 C 
ATOM     25  OXT UNL     1      -6.200   5.771 125.411  0.00  0.00    +0.000 OA
BRANCH  24  26
ATOM     26  O   UNL     1      -8.398   5.583 125.533  0.00  0.00    +0.000 OA
ATOM     27  H   UNL     1      -9.192   5.032 125.597  0.00  0.00    +0.000 HD
ENDBRANCH  24  26
ENDBRANCH   6  24
TORSDOF 5
ENDMDL
MODEL 2
REMARK VINA RESULT:      -7.3      7.442      9.536
REMARK  Name = Cyclacillin
REMARK  7 active torsions:
REMARK  status: ('A' for Active; 'I' for Inactive)
REMARK    1  A    between atoms: C_4  and  C_5
REMARK    2  A    between atoms: C_4  and  C_6
REMARK    3  A    between atoms: CA_7  and  C_22
REMARK    4  A    between atoms: CA_11  and  N_12
REMARK    5  A    between atoms: C_13  and  C_15
REMARK    6  A    between atoms: C_15  and  N_16
REMARK    7  A    between atoms: C_22  and  O_23
REMARK                            x       y       z     vdW  Elec       q    Type
REMARK                         _______ _______ _______ _____ _____    ______ ____
ROOT
ATOM      1  C   UNL     1      -9.913   4.249 130.584  0.00  0.00    +0.000 C 
ATOM      2  S   UNL     1      -8.691   4.743 129.304  0.00  0.00    +0.000 S 
ATOM      3  C   UNL     1      -7.274   4.207 130.409  0.00  0.00    +0.000 C 
ATOM      4  C   UNL     1      -6.019   4.947 129.931  0.00  0.00    +0.000 C 
ATOM      5  C   UNL     1      -7.155   2.683 130.224  0.00  0.00    +0.000 C 
ATOM      6  CA  UNL     1      -7.736   4.675 131.808  0.00  0.00    +0.000 C 
ATOM      7  N   UNL     1      -9.204   4.506 131.848  0.00  0.00    +0.000 N 
ATOM      8  C   UNL     1     -10.028   5.548 132.193  0.00  0.00    +0.000 C 
ATOM      9  O   UNL     1      -9.869   6.466 132.978  0.00  0.00    +0.000 OA
ATOM     10  CA  UNL     1     -11.005   5.249 131.029  0.00  0.00    +0.000 C 
ENDROOT
BRANCH  10  11
ATOM     11  N   UNL     1     -11.267   6.361 130.098  0.00  0.00    +0.000 N 
ATOM     12  C   UNL     1     -12.353   7.197 130.197  0.00  0.00    +0.000 C 
ATOM     13  O   UNL     1     -13.204   7.045 131.074  0.00  0.00    +0.000 OA
ATOM     14  H   UNL     1     -10.464   6.669 129.574  0.00  0.00    +0.000 HD
BRANCH  12  15
ATOM     15  C   UNL     1     -12.438   8.373 129.156  0.00  0.00    +0.000 C 
ATOM     16  C   UNL     1     -11.049   8.621 128.548  0.00  0.00    +0.000 C 
ATOM     17  C   UNL     1     -10.633   7.486 127.614  0.00  0.00    +0.000 C 
ATOM     18  C   UNL     1     -11.684   7.233 126.528  0.00  0.00    +0.000 C 
ATOM     19  C   UNL     1     -13.125   7.080 127.026  0.00  0.00    +0.000 C 
ATOM     20  C   UNL     1     -13.492   8.151 128.053  0.00  0.00    +0.000 C 
BRANCH  15  21
ATOM     21  N   UNL     1     -12.858   9.593 129.900  0.00  0.00    +0.000 NA
ATOM     22  H   UNL     1     -12.227  10.355 129.630  0.00  0.00    +0.000 HD
ATOM     23  H   UNL     1     -12.635   9.453 130.890  0.00  0.00    +0.000 HD
ENDBRANCH  15  21
ENDBRANCH  12  15
ENDBRANCH  10  11
BRANCH   6  24
ATOM     24  C   UNL     1      -7.100   4.056 133.072  0.00  0.00    +0.000 C 
ATOM     25  OXT UNL     1      -5.968   4.341 133.446  0.00  0.00    +0.000 OA
BRANCH  24  26
ATOM     26  O   UNL     1      -7.797   3.148 133.785  0.00  0.00    +0.000 OA
ATOM     27  H   UNL     1      -7.550   2.211 133.780  0.00  0.00    +0.000 HD
ENDBRANCH  24  26
ENDBRANCH   6  24
TORSDOF 5
ENDMDL
MODEL 3
REMARK VINA RESULT:      -7.2      4.384      5.366
REMARK  Name = Cyclacillin
REMARK  7 active torsions:
REMARK  status: ('A' for Active; 'I' for Inactive)
REMARK    1  A    between atoms: C_4  and  C_5
REMARK    2  A    between atoms: C_4  and  C_6
REMARK    3  A    between atoms: CA_7  and  C_22
REMARK    4  A    between atoms: CA_11  and  N_12
REMARK    5  A    between atoms: C_13  and  C_15
REMARK    6  A    between atoms: C_15  and  N_16
REMARK    7  A    between atoms: C_22  and  O_23
REMARK                            x       y       z     vdW  Elec       q    Type
REMARK                         _______ _______ _______ _____ _____    ______ ____
ROOT
ATOM      1  C   UNL     1      -7.906  -1.613 128.912  0.00  0.00    +0.000 C 
ATOM      2  S   UNL     1      -7.635  -3.423 129.076  0.00  0.00    +0.000 S 
ATOM      3  C   UNL     1      -6.449  -3.146 130.501  0.00  0.00    +0.000 C 
ATOM      4  C   UNL     1      -5.561  -4.392 130.602  0.00  0.00    +0.000 C 
ATOM      5  C   UNL     1      -7.332  -2.960 131.749  0.00  0.00    +0.000 C 
ATOM      6  CA  UNL     1      -5.659  -1.896 130.051  0.00  0.00    +0.000 C 
ATOM      7  N   UNL     1      -6.610  -1.039 129.310  0.00  0.00    +0.000 N 
ATOM      8  C   UNL     1      -6.325  -0.594 128.044  0.00  0.00    +0.000 C 
ATOM      9  O   UNL     1      -5.266  -0.286 127.525  0.00  0.00    +0.000 OA
ATOM     10  CA  UNL     1      -7.747  -0.935 127.532  0.00  0.00    +0.000 C 
ENDROOT
BRANCH  10  11
ATOM     11  N   UNL     1      -7.821  -1.836 126.368  0.00  0.00    +0.000 N 
ATOM     12  C   UNL     1      -8.644  -1.621 125.290  0.00  0.00    +0.000 C 
ATOM     13  O   UNL     1      -9.406  -0.653 125.245  0.00  0.00    +0.000 OA
ATOM     14  H   UNL     1      -7.029  -2.448 126.259  0.00  0.00    +0.000 HD
BRANCH  12  15
ATOM     15  C   UNL     1      -8.544  -2.651 124.106  0.00  0.00    +0.000 C 
ATOM     16  C   UNL     1      -8.210  -1.906 122.805  0.00  0.00    +0.000 C 
ATOM     17  C   UNL     1      -6.776  -1.383 122.808  0.00  0.00    +0.000 C 
ATOM     18  C   UNL     1      -5.767  -2.502 123.088  0.00  0.00    +0.000 C 
ATOM     19  C   UNL     1      -6.071  -3.375 124.308  0.00  0.00    +0.000 C 
ATOM     20  C   UNL     1      -7.540  -3.794 124.361  0.00  0.00    +0.000 C 
BRANCH  15  21
ATOM     21  N   UNL     1      -9.882  -3.290 123.961  0.00  0.00    +0.000 NA
ATOM     22  H   UNL     1      -9.738  -4.231 123.581  0.00  0.00    +0.000 HD
ATOM     23  H   UNL     1     -10.380  -2.813 123.204  0.00  0.00    +0.000 HD
ENDBRANCH  15  21
ENDBRANCH  12  15
ENDBRANCH  10  11
BRANCH   6  24
ATOM     24  C   UNL     1      -4.895  -1.054 131.096  0.00  0.00    +0.000 C 
ATOM     25  OXT UNL     1      -3.804  -1.390 131.540  0.00  0.00    +0.000 OA
BRANCH  24  26
ATOM     26  O   UNL     1      -5.451   0.082 131.564  0.00  0.00    +0.000 OA
ATOM     27  H   UNL     1      -4.967   0.665 132.166  0.00  0.00    +0.000 HD
ENDBRANCH  24  26
ENDBRANCH   6  24
TORSDOF 5
ENDMDL
MODEL 4
REMARK VINA RESULT:      -7.2      1.689      2.151
REMARK  Name = Cyclacillin
REMARK  7 active torsions:
REMARK  status: ('A' for Active; 'I' for Inactive)
REMARK    1  A    between atoms: C_4  and  C_5
REMARK    2  A    between atoms: C_4  and  C_6
REMARK    3  A    between atoms: CA_7  and  C_22
REMARK    4  A    between atoms: CA_11  and  N_12
REMARK    5  A    between atoms: C_13  and  C_15
REMARK    6  A    between atoms: C_15  and  N_16
REMARK    7  A    between atoms: C_22  and  O_23
REMARK                            x       y       z     vdW  Elec       q    Type
REMARK                         _______ _______ _______ _____ _____    ______ ____
ROOT
ATOM      1  C   UNL     1      -6.989   1.114 127.439  0.00  0.00    +0.000 C 
ATOM      2  S   UNL     1      -5.352   0.696 126.717  0.00  0.00    +0.000 S 
ATOM      3  C   UNL     1      -4.625   2.298 127.362  0.00  0.00    +0.000 C 
ATOM      4  C   UNL     1      -3.385   2.609 126.516  0.00  0.00    +0.000 C 
ATOM      5  C   UNL     1      -4.269   2.031 128.837  0.00  0.00    +0.000 C 
ATOM      6  CA  UNL     1      -5.768   3.313 127.125  0.00  0.00    +0.000 C 
ATOM      7  N   UNL     1      -7.034   2.583 127.349  0.00  0.00    +0.000 N 
ATOM      8  C   UNL     1      -8.025   2.576 126.400  0.00  0.00    +0.000 C 
ATOM      9  O   UNL     1      -8.375   3.431 125.605  0.00  0.00    +0.000 OA
ATOM     10  CA  UNL     1      -8.256   1.052 126.555  0.00  0.00    +0.000 C 
ENDROOT
BRANCH  10  11
ATOM     11  N   UNL     1      -8.136   0.248 125.326  0.00  0.00    +0.000 N 
ATOM     12  C   UNL     1      -8.886  -0.875 125.075  0.00  0.00    +0.000 C 
ATOM     13  O   UNL     1      -9.703  -1.300 125.894  0.00  0.00    +0.000 OA
ATOM     14  H   UNL     1      -7.703   0.724 124.552  0.00  0.00    +0.000 HD
BRANCH  12  15
ATOM     15  C   UNL     1      -8.673  -1.572 123.681  0.00  0.00    +0.000 C 
ATOM     16  C   UNL     1      -7.263  -1.256 123.160  0.00  0.00    +0.000 C 
ATOM     17  C   UNL     1      -6.189  -1.977 123.971  0.00  0.00    +0.000 C 
ATOM     18  C   UNL     1      -6.440  -3.487 124.026  0.00  0.00    +0.000 C 
ATOM     19  C   UNL     1      -7.856  -3.907 124.431  0.00  0.00    +0.000 C 
ATOM     20  C   UNL     1      -8.925  -3.093 123.702  0.00  0.00    +0.000 C 
BRANCH  15  21
ATOM     21  N   UNL     1      -9.671  -0.992 122.740  0.00  0.00    +0.000 NA
ATOM     22  H   UNL     1     -10.224  -1.766 122.356  0.00  0.00    +0.000 HD
ATOM     23  H   UNL     1      -9.168  -0.644 121.919  0.00  0.00    +0.000 HD
ENDBRANCH  15  21
ENDBRANCH  12  15
ENDBRANCH  10  11
BRANCH   6  24
ATOM     24  C   UNL     1      -5.783   4.646 127.904  0.00  0.00    +0.000 C 
ATOM     25  OXT UNL     1      -6.567   4.862 128.821  0.00  0.00    +0.000 OA
BRANCH  24  26
ATOM     26  O   UNL     1      -4.923   5.624 127.557  0.00  0.00    +0.000 OA
ATOM     27  H   UNL     1      -4.770   6.385 128.136  0.00  0.00    +0.000 HD
ENDBRANCH  24  26
ENDBRANCH   6  24
TORSDOF 5
ENDMDL
MODEL 5
REMARK VINA RESULT:      -7.0      3.647      7.293
REMARK  Name = Cyclacillin
REMARK  7 active torsions:
REMARK  status: ('A' for Active; 'I' for Inactive)
REMARK    1  A    between atoms: C_4  and  C_5
REMARK    2  A    between atoms: C_4  and  C_6
REMARK    3  A    between atoms: CA_7  and  C_22
REMARK    4  A    between atoms: CA_11  and  N_12
REMARK    5  A    between atoms: C_13  and  C_15
REMARK    6  A    between atoms: C_15  and  N_16
REMARK    7  A    between atoms: C_22  and  O_23
REMARK                            x       y       z     vdW  Elec       q    Type
REMARK                         _______ _______ _______ _____ _____    ______ ____
ROOT
ATOM      1  C   UNL     1      -7.217   2.845 126.995  0.00  0.00    +0.000 C 
ATOM      2  S   UNL     1      -8.409   1.447 126.968  0.00  0.00    +0.000 S 
ATOM      3  C   UNL     1      -8.355   1.400 125.095  0.00  0.00    +0.000 C 
ATOM      4  C   UNL     1      -9.637   0.706 124.620  0.00  0.00    +0.000 C 
ATOM      5  C   UNL     1      -7.092   0.595 124.734  0.00  0.00    +0.000 C 
ATOM      6  CA  UNL     1      -8.322   2.898 124.715  0.00  0.00    +0.000 C 
ATOM      7  N   UNL     1      -7.529   3.582 125.760  0.00  0.00    +0.000 N 
ATOM      8  C   UNL     1      -8.032   4.665 126.435  0.00  0.00    +0.000 C 
ATOM      9  O   UNL     1      -8.774   5.560 126.069  0.00  0.00    +0.000 OA
ATOM     10  CA  UNL     1      -7.549   4.121 127.803  0.00  0.00    +0.000 C 
ENDROOT
BRANCH  10  11
ATOM     11  N   UNL     1      -8.582   3.966 128.842  0.00  0.00    +0.000 N 
ATOM     12  C   UNL     1      -8.875   4.931 129.775  0.00  0.00    +0.000 C 
ATOM     13  O   UNL     1      -8.257   5.996 129.814  0.00  0.00    +0.000 OA
ATOM     14  H   UNL     1      -9.267   3.253 128.651  0.00  0.00    +0.000 HD
BRANCH  12  15
ATOM     15  C   UNL     1     -10.054   4.622 130.768  0.00  0.00    +0.000 C 
ATOM     16  C   UNL     1      -9.821   3.256 131.431  0.00  0.00    +0.000 C 
ATOM     17  C   UNL     1      -8.661   3.303 132.422  0.00  0.00    +0.000 C 
ATOM     18  C   UNL     1      -8.854   4.407 133.467  0.00  0.00    +0.000 C 
ATOM     19  C   UNL     1      -9.199   5.791 132.909  0.00  0.00    +0.000 C 
ATOM     20  C   UNL     1     -10.278   5.719 131.828  0.00  0.00    +0.000 C 
BRANCH  15  21
ATOM     21  N   UNL     1     -11.305   4.553 129.961  0.00  0.00    +0.000 NA
ATOM     22  H   UNL     1     -11.804   5.441 130.086  0.00  0.00    +0.000 HD
ATOM     23  H   UNL     1     -11.931   3.876 130.405  0.00  0.00    +0.000 HD
ENDBRANCH  15  21
ENDBRANCH  12  15
ENDBRANCH  10  11
BRANCH   6  24
ATOM     24  C   UNL     1      -7.828   3.324 123.315  0.00  0.00    +0.000 C 
ATOM     25  OXT UNL     1      -6.652   3.576 123.083  0.00  0.00    +0.000 OA
BRANCH  24  26
ATOM     26  O   UNL     1      -8.718   3.448 122.310  0.00  0.00    +0.000 OA
ATOM     27  H   UNL     1      -9.418   2.792 122.177  0.00  0.00    +0.000 HD
ENDBRANCH  24  26
ENDBRANCH   6  24
TORSDOF 5
ENDMDL
MODEL 6
REMARK VINA RESULT:      -6.9      4.663      6.932
REMARK  Name = Cyclacillin
REMARK  7 active torsions:
REMARK  status: ('A' for Active; 'I' for Inactive)
REMARK    1  A    between atoms: C_4  and  C_5
REMARK    2  A    between atoms: C_4  and  C_6
REMARK    3  A    between atoms: CA_7  and  C_22
REMARK    4  A    between atoms: CA_11  and  N_12
REMARK    5  A    between atoms: C_13  and  C_15
REMARK    6  A    between atoms: C_15  and  N_16
REMARK    7  A    between atoms: C_22  and  O_23
REMARK                            x       y       z     vdW  Elec       q    Type
REMARK                         _______ _______ _______ _____ _____    ______ ____
ROOT
ATOM      1  C   UNL     1      -7.183  -0.947 126.593  0.00  0.00    +0.000 C 
ATOM      2  S   UNL     1      -5.632  -1.327 125.683  0.00  0.00    +0.000 S 
ATOM      3  C   UNL     1      -6.600  -1.659 124.113  0.00  0.00    +0.000 C 
ATOM      4  C   UNL     1      -5.722  -2.539 123.215  0.00  0.00    +0.000 C 
ATOM      5  C   UNL     1      -6.866  -0.276 123.487  0.00  0.00    +0.000 C 
ATOM      6  CA  UNL     1      -7.849  -2.408 124.632  0.00  0.00    +0.000 C 
ATOM      7  N   UNL     1      -8.177  -1.821 125.949  0.00  0.00    +0.000 N 
ATOM      8  C   UNL     1      -8.322  -2.613 127.060  0.00  0.00    +0.000 C 
ATOM      9  O   UNL     1      -8.757  -3.744 127.184  0.00  0.00    +0.000 OA
ATOM     10  CA  UNL     1      -7.478  -1.653 127.936  0.00  0.00    +0.000 C 
ENDROOT
BRANCH  10  11
ATOM     11  N   UNL     1      -6.311  -2.247 128.613  0.00  0.00    +0.000 N 
ATOM     12  C   UNL     1      -5.667  -1.660 129.675  0.00  0.00    +0.000 C 
ATOM     13  O   UNL     1      -6.021  -0.566 130.117  0.00  0.00    +0.000 OA
ATOM     14  H   UNL     1      -6.195  -3.235 128.461  0.00  0.00    +0.000 HD
BRANCH  12  15
ATOM     15  C   UNL     1      -4.480  -2.468 130.317  0.00  0.00    +0.000 C 
ATOM     16  C   UNL     1      -4.488  -2.269 131.840  0.00  0.00    +0.000 C 
ATOM     17  C   UNL     1      -5.666  -2.985 132.495  0.00  0.00    +0.000 C 
ATOM     18  C   UNL     1      -5.701  -4.472 132.125  0.00  0.00    +0.000 C 
ATOM     19  C   UNL     1      -5.589  -4.783 130.630  0.00  0.00    +0.000 C 
ATOM     20  C   UNL     1      -4.484  -3.968 129.957  0.00  0.00    +0.000 C 
BRANCH  15  21
ATOM     21  N   UNL     1      -3.215  -1.906 129.768  0.00  0.00    +0.000 NA
ATOM     22  H   UNL     1      -2.585  -2.691 129.571  0.00  0.00    +0.000 HD
ATOM     23  H   UNL     1      -2.733  -1.413 130.524  0.00  0.00    +0.000 HD
ENDBRANCH  15  21
ENDBRANCH  12  15
ENDBRANCH  10  11
BRANCH   6  24
ATOM     24  C   UNL     1      -9.118  -2.480 123.756  0.00  0.00    +0.000 C 
ATOM     25  OXT UNL     1      -9.527  -3.531 123.275  0.00  0.00    +0.000 OA
BRANCH  24  26
ATOM     26  O   UNL     1      -9.798  -1.348 123.483  0.00  0.00    +0.000 OA
ATOM     27  H   UNL     1     -10.674  -1.377 123.073  0.00  0.00    +0.000 HD
ENDBRANCH  24  26
ENDBRANCH   6  24
TORSDOF 5
ENDMDL
MODEL 7
REMARK VINA RESULT:      -6.8      4.100      5.936
REMARK  Name = Cyclacillin
REMARK  7 active torsions:
REMARK  status: ('A' for Active; 'I' for Inactive)
REMARK    1  A    between atoms: C_4  and  C_5
REMARK    2  A    between atoms: C_4  and  C_6
REMARK    3  A    between atoms: CA_7  and  C_22
REMARK    4  A    between atoms: CA_11  and  N_12
REMARK    5  A    between atoms: C_13  and  C_15
REMARK    6  A    between atoms: C_15  and  N_16
REMARK    7  A    between atoms: C_22  and  O_23
REMARK                            x       y       z     vdW  Elec       q    Type
REMARK                         _______ _______ _______ _____ _____    ______ ____
ROOT
ATOM      1  C   UNL     1      -6.864  -0.625 125.935  0.00  0.00    +0.000 C 
ATOM      2  S   UNL     1      -7.410  -2.373 125.791  0.00  0.00    +0.000 S 
ATOM      3  C   UNL     1      -8.256  -2.006 124.160  0.00  0.00    +0.000 C 
ATOM      4  C   UNL     1      -9.313  -3.096 123.940  0.00  0.00    +0.000 C 
ATOM      5  C   UNL     1      -7.145  -2.054 123.094  0.00  0.00    +0.000 C 
ATOM      6  CA  UNL     1      -8.886  -0.616 124.406  0.00  0.00    +0.000 C 
ATOM      7  N   UNL     1      -7.949   0.123 125.279  0.00  0.00    +0.000 N 
ATOM      8  C   UNL     1      -8.375   0.695 126.452  0.00  0.00    +0.000 C 
ATOM      9  O   UNL     1      -9.441   1.206 126.750  0.00  0.00    +0.000 OA
ATOM     10  CA  UNL     1      -7.148   0.164 127.234  0.00  0.00    +0.000 C 
ENDROOT
BRANCH  10  11
ATOM     11  N   UNL     1      -7.441  -0.655 128.424  0.00  0.00    +0.000 N 
ATOM     12  C   UNL     1      -6.590  -0.770 129.497  0.00  0.00    +0.000 C 
ATOM     13  O   UNL     1      -5.497  -0.202 129.515  0.00  0.00    +0.000 OA
ATOM     14  H   UNL     1      -8.414  -0.882 128.550  0.00  0.00    +0.000 HD
BRANCH  12  15
ATOM     15  C   UNL     1      -7.094  -1.633 130.711  0.00  0.00    +0.000 C 
ATOM     16  C   UNL     1      -7.837  -2.871 130.186  0.00  0.00    +0.000 C 
ATOM     17  C   UNL     1      -6.880  -3.872 129.543  0.00  0.00    +0.000 C 
ATOM     18  C   UNL     1      -5.746  -4.262 130.496  0.00  0.00    +0.000 C 
ATOM     19  C   UNL     1      -5.009  -3.094 131.159  0.00  0.00    +0.000 C 
ATOM     20  C   UNL     1      -5.976  -2.037 131.693  0.00  0.00    +0.000 C 
BRANCH  15  21
ATOM     21  N   UNL     1      -8.051  -0.794 131.484  0.00  0.00    +0.000 NA
ATOM     22  H   UNL     1      -7.506  -0.096 132.001  0.00  0.00    +0.000 HD
ATOM     23  H   UNL     1      -8.448  -1.372 132.230  0.00  0.00    +0.000 HD
ENDBRANCH  15  21
ENDBRANCH  12  15
ENDBRANCH  10  11
BRANCH   6  24
ATOM     24  C   UNL     1      -9.293   0.264 123.204  0.00  0.00    +0.000 C 
ATOM     25  OXT UNL     1      -8.718   1.312 122.933  0.00  0.00    +0.000 OA
BRANCH  24  26
ATOM     26  O   UNL     1     -10.333  -0.111 122.432  0.00  0.00    +0.000 OA
ATOM     27  H   UNL     1     -10.295  -0.920 121.901  0.00  0.00    +0.000 HD
ENDBRANCH  24  26
ENDBRANCH   6  24
TORSDOF 5
ENDMDL
MODEL 8
REMARK VINA RESULT:      -6.7      1.695      6.392
REMARK  Name = Cyclacillin
REMARK  7 active torsions:
REMARK  status: ('A' for Active; 'I' for Inactive)
REMARK    1  A    between atoms: C_4  and  C_5
REMARK    2  A    between atoms: C_4  and  C_6
REMARK    3  A    between atoms: CA_7  and  C_22
REMARK    4  A    between atoms: CA_11  and  N_12
REMARK    5  A    between atoms: C_13  and  C_15
REMARK    6  A    between atoms: C_15  and  N_16
REMARK    7  A    between atoms: C_22  and  O_23
REMARK                            x       y       z     vdW  Elec       q    Type
REMARK                         _______ _______ _______ _____ _____    ______ ____
ROOT
ATOM      1  C   UNL     1      -7.551   0.159 123.698  0.00  0.00    +0.000 C 
ATOM      2  S   UNL     1      -6.103  -0.054 124.810  0.00  0.00    +0.000 S 
ATOM      3  C   UNL     1      -6.438  -1.894 124.940  0.00  0.00    +0.000 C 
ATOM      4  C   UNL     1      -5.761  -2.389 126.224  0.00  0.00    +0.000 C 
ATOM      5  C   UNL     1      -5.817  -2.522 123.678  0.00  0.00    +0.000 C 
ATOM      6  CA  UNL     1      -7.980  -1.956 125.027  0.00  0.00    +0.000 C 
ATOM      7  N   UNL     1      -8.496  -0.866 124.171  0.00  0.00    +0.000 N 
ATOM      8  C   UNL     1      -9.381   0.061 124.661  0.00  0.00    +0.000 C 
ATOM      9  O   UNL     1     -10.275  -0.046 125.484  0.00  0.00    +0.000 OA
ATOM     10  CA  UNL     1      -8.610   1.239 124.016  0.00  0.00    +0.000 C 
ENDROOT
BRANCH  10  11
ATOM     11  N   UNL     1      -8.174   2.309 124.931  0.00  0.00    +0.000 N 
ATOM     12  C   UNL     1      -7.521   3.445 124.517  0.00  0.00    +0.000 C 
ATOM     13  O   UNL     1      -7.233   3.626 123.332  0.00  0.00    +0.000 OA
ATOM     14  H   UNL     1      -8.639   2.315 125.823  0.00  0.00    +0.000 HD
BRANCH  12  15
ATOM     15  C   UNL     1      -7.189   4.513 125.622  0.00  0.00    +0.000 C 
ATOM     16  C   UNL     1      -7.330   3.873 127.011  0.00  0.00    +0.000 C 
ATOM     17  C   UNL     1      -6.213   2.869 127.285  0.00  0.00    +0.000 C 
ATOM     18  C   UNL     1      -4.829   3.498 127.096  0.00  0.00    +0.000 C 
ATOM     19  C   UNL     1      -4.622   4.256 125.782  0.00  0.00    +0.000 C 
ATOM     20  C   UNL     1      -5.803   5.169 125.455  0.00  0.00    +0.000 C 
BRANCH  15  21
ATOM     21  N   UNL     1      -8.191   5.607 125.496  0.00  0.00    +0.000 NA
ATOM     22  H   UNL     1      -7.681   6.476 125.304  0.00  0.00    +0.000 HD
ATOM     23  H   UNL     1      -8.592   5.779 126.422  0.00  0.00    +0.000 HD
ENDBRANCH  15  21
ENDBRANCH  12  15
ENDBRANCH  10  11
BRANCH   6  24
ATOM     24  C   UNL     1      -8.713  -3.275 124.698  0.00  0.00    +0.000 C 
ATOM     25  OXT UNL     1      -8.251  -4.373 124.986  0.00  0.00    +0.000 OA
BRANCH  24  26
ATOM     26  O   UNL     1      -9.894  -3.230 124.049  0.00  0.00    +0.000 OA
ATOM     27  H   UNL     1     -10.181  -2.429 123.587  0.00  0.00    +0.000 HD
ENDBRANCH  24  26
ENDBRANCH   6  24
TORSDOF 5
ENDMDL
MODEL 9
REMARK VINA RESULT:      -6.6      4.125      7.672
REMARK  Name = Cyclacillin
REMARK  7 active torsions:
REMARK  status: ('A' for Active; 'I' for Inactive)
REMARK    1  A    between atoms: C_4  and  C_5
REMARK    2  A    between atoms: C_4  and  C_6
REMARK    3  A    between atoms: CA_7  and  C_22
REMARK    4  A    between atoms: CA_11  and  N_12
REMARK    5  A    between atoms: C_13  and  C_15
REMARK    6  A    between atoms: C_15  and  N_16
REMARK    7  A    between atoms: C_22  and  O_23
REMARK                            x       y       z     vdW  Elec       q    Type
REMARK                         _______ _______ _______ _____ _____    ______ ____
ROOT
ATOM      1  C   UNL     1      -7.014   0.555 128.406  0.00  0.00    +0.000 C 
ATOM      2  S   UNL     1      -7.530  -0.717 129.628  0.00  0.00    +0.000 S 
ATOM      3  C   UNL     1      -7.360  -2.066 128.338  0.00  0.00    +0.000 C 
ATOM      4  C   UNL     1      -8.220  -3.248 128.801  0.00  0.00    +0.000 C 
ATOM      5  C   UNL     1      -5.861  -2.420 128.299  0.00  0.00    +0.000 C 
ATOM      6  CA  UNL     1      -7.921  -1.395 127.064  0.00  0.00    +0.000 C 
ATOM      7  N   UNL     1      -7.533   0.031 127.132  0.00  0.00    +0.000 N 
ATOM      8  C   UNL     1      -8.469   1.027 127.008  0.00  0.00    +0.000 C 
ATOM      9  O   UNL     1      -9.491   1.084 126.347  0.00  0.00    +0.000 OA
ATOM     10  CA  UNL     1      -7.881   1.819 128.202  0.00  0.00    +0.000 C 
ENDROOT
BRANCH  10  11
ATOM     11  N   UNL     1      -8.815   2.133 129.298  0.00  0.00    +0.000 N 
ATOM     12  C   UNL     1      -8.896   3.366 129.900  0.00  0.00    +0.000 C 
ATOM     13  O   UNL     1      -8.155   4.293 129.569  0.00  0.00    +0.000 OA
ATOM     14  H   UNL     1      -9.595   1.502 129.379  0.00  0.00    +0.000 HD
BRANCH  12  15
ATOM     15  C   UNL     1      -9.998   3.542 131.008  0.00  0.00    +0.000 C 
ATOM     16  C   UNL     1     -10.053   2.279 131.881  0.00  0.00    +0.000 C 
ATOM     17  C   UNL     1      -8.818   2.155 132.770  0.00  0.00    +0.000 C 
ATOM     18  C   UNL     1      -8.602   3.413 133.617  0.00  0.00    +0.000 C 
ATOM     19  C   UNL     1      -8.638   4.739 132.852  0.00  0.00    +0.000 C 
ATOM     20  C   UNL     1      -9.812   4.804 131.874  0.00  0.00    +0.000 C 
BRANCH  15  21
ATOM     21  N   UNL     1     -11.305   3.698 130.311  0.00  0.00    +0.000 NA
ATOM     22  H   UNL     1     -11.719   4.583 130.621  0.00  0.00    +0.000 HD
ATOM     23  H   UNL     1     -11.951   2.999 130.689  0.00  0.00    +0.000 HD
ENDBRANCH  15  21
ENDBRANCH  12  15
ENDBRANCH  10  11
BRANCH   6  24
ATOM     24  C   UNL     1      -7.568  -1.971 125.675  0.00  0.00    +0.000 C 
ATOM     25  OXT UNL     1      -6.828  -1.389 124.890  0.00  0.00    +0.000 OA
BRANCH  24  26
ATOM     26  O   UNL     1      -8.107  -3.145 125.291  0.00  0.00    +0.000 OA
ATOM     27  H   UNL     1      -7.824  -3.582 124.474  0.00  0.00    +0.000 HD
ENDBRANCH  24  26
ENDBRANCH   6  24
TORSDOF 5
ENDMDL
