MODEL 1
REMARK VINA RESULT:      -6.9      0.000      0.000
REMARK  Name = Cyclizine
REMARK  4 active torsions:
REMARK  status: ('A' for Active; 'I' for Inactive)
REMARK    1  A    between atoms: C_1  and  N_2
REMARK    2  A    between atoms: N_5  and  C_8
REMARK    3  A    between atoms: C_8  and  C_9
REMARK    4  A    between atoms: C_8  and  C_15
REMARK                            x       y       z     vdW  Elec       q    Type
REMARK                         _______ _______ _______ _____ _____    ______ ____
ROOT
ATOM      1  C   UNL     1      -7.453   1.986 123.722  0.00  0.00    +0.000 C 
ENDROOT
BRANCH   1   6
ATOM      2  C   UNL     1      -5.426   3.966 127.670  0.00  0.00    +0.000 C 
ATOM      3  N   UNL     1      -6.669   3.617 127.001  0.00  0.00    +0.000 NA
ATOM      4  C   UNL     1      -6.793   2.162 126.801  0.00  0.00    +0.000 C 
ATOM      5  C   UNL     1      -8.125   1.803 126.092  0.00  0.00    +0.000 C 
ATOM      6  N   UNL     1      -8.354   2.516 124.798  0.00  0.00    +0.000 NA
ATOM      7  C   UNL     1      -8.183   3.954 125.099  0.00  0.00    +0.000 C 
ATOM      8  C   UNL     1      -6.798   4.292 125.703  0.00  0.00    +0.000 C 
ENDBRANCH   1   6
BRANCH   1   9
ATOM      9  C   UNL     1      -7.760   0.490 123.511  0.00  0.00    +0.000 A 
ATOM     10  C   UNL     1      -6.732  -0.463 123.509  0.00  0.00    +0.000 A 
ATOM     11  C   UNL     1      -7.009  -1.780 123.148  0.00  0.00    +0.000 A 
ATOM     12  C   UNL     1      -8.312  -2.162 122.823  0.00  0.00    +0.000 A 
ATOM     13  C   UNL     1      -9.352  -1.238 122.890  0.00  0.00    +0.000 A 
ATOM     14  C   UNL     1      -9.083   0.073 123.259  0.00  0.00    +0.000 A 
ENDBRANCH   1   9
BRANCH   1  15
ATOM     15  C   UNL     1      -7.472   2.764 122.372  0.00  0.00    +0.000 A 
ATOM     16  C   UNL     1      -8.660   3.156 121.730  0.00  0.00    +0.000 A 
ATOM     17  C   UNL     1      -8.650   3.843 120.511  0.00  0.00    +0.000 A 
ATOM     18  C   UNL     1      -7.445   4.221 119.938  0.00  0.00    +0.000 A 
ATOM     19  C   UNL     1      -6.257   3.832 120.526  0.00  0.00    +0.000 A 
ATOM     20  C   UNL     1      -6.280   3.045 121.680  0.00  0.00    +0.000 A 
ENDBRANCH   1  15
TORSDOF 3
ENDMDL
MODEL 2
REMARK VINA RESULT:      -6.8      3.301      5.838
REMARK  Name = Cyclizine
REMARK  4 active torsions:
REMARK  status: ('A' for Active; 'I' for Inactive)
REMARK    1  A    between atoms: C_1  and  N_2
REMARK    2  A    between atoms: N_5  and  C_8
REMARK    3  A    between atoms: C_8  and  C_9
REMARK    4  A    between atoms: C_8  and  C_15
REMARK                            x       y       z     vdW  Elec       q    Type
REMARK                         _______ _______ _______ _____ _____    ______ ____
ROOT
ATOM      1  C   UNL     1      -7.520  -1.489 125.543  0.00  0.00    +0.000 C 
ENDROOT
BRANCH   1   6
ATOM      2  C   UNL     1      -8.137   3.083 124.016  0.00  0.00    +0.000 C 
ATOM      3  N   UNL     1      -8.700   1.743 124.065  0.00  0.00    +0.000 NA
ATOM      4  C   UNL     1      -8.967   1.311 125.448  0.00  0.00    +0.000 C 
ATOM      5  C   UNL     1      -9.573  -0.116 125.486  0.00  0.00    +0.000 C 
ATOM      6  N   UNL     1      -8.764  -1.155 124.775  0.00  0.00    +0.000 NA
ATOM      7  C   UNL     1      -8.531  -0.618 123.417  0.00  0.00    +0.000 C 
ATOM      8  C   UNL     1      -7.824   0.759 123.416  0.00  0.00    +0.000 C 
ENDBRANCH   1   6
BRANCH   1   9
ATOM      9  C   UNL     1      -7.923  -2.093 126.902  0.00  0.00    +0.000 A 
ATOM     10  C   UNL     1      -7.422  -1.569 128.101  0.00  0.00    +0.000 A 
ATOM     11  C   UNL     1      -7.662  -2.233 129.303  0.00  0.00    +0.000 A 
ATOM     12  C   UNL     1      -8.429  -3.399 129.322  0.00  0.00    +0.000 A 
ATOM     13  C   UNL     1      -8.990  -3.889 128.144  0.00  0.00    +0.000 A 
ATOM     14  C   UNL     1      -8.763  -3.225 126.946  0.00  0.00    +0.000 A 
ENDBRANCH   1   9
BRANCH   1  15
ATOM     15  C   UNL     1      -6.487  -2.393 124.806  0.00  0.00    +0.000 A 
ATOM     16  C   UNL     1      -5.278  -1.903 124.281  0.00  0.00    +0.000 A 
ATOM     17  C   UNL     1      -4.372  -2.733 123.611  0.00  0.00    +0.000 A 
ATOM     18  C   UNL     1      -4.619  -4.095 123.515  0.00  0.00    +0.000 A 
ATOM     19  C   UNL     1      -5.809  -4.609 123.997  0.00  0.00    +0.000 A 
ATOM     20  C   UNL     1      -6.757  -3.751 124.557  0.00  0.00    +0.000 A 
ENDBRANCH   1  15
TORSDOF 3
ENDMDL
MODEL 3
REMARK VINA RESULT:      -6.6      1.040      4.390
REMARK  Name = Cyclizine
REMARK  4 active torsions:
REMARK  status: ('A' for Active; 'I' for Inactive)
REMARK    1  A    between atoms: C_1  and  N_2
REMARK    2  A    between atoms: N_5  and  C_8
REMARK    3  A    between atoms: C_8  and  C_9
REMARK    4  A    between atoms: C_8  and  C_15
REMARK                            x       y       z     vdW  Elec       q    Type
REMARK                         _______ _______ _______ _____ _____    ______ ____
ROOT
ATOM      1  C   UNL     1      -7.390   2.245 123.804  0.00  0.00    +0.000 C 
ENDROOT
BRANCH   1   6
ATOM      2  C   UNL     1      -7.848   4.150 128.251  0.00  0.00    +0.000 C 
ATOM      3  N   UNL     1      -6.933   3.820 127.171  0.00  0.00    +0.000 NA
ATOM      4  C   UNL     1      -7.249   4.562 125.938  0.00  0.00    +0.000 C 
ATOM      5  C   UNL     1      -6.262   4.206 124.796  0.00  0.00    +0.000 C 
ATOM      6  N   UNL     1      -6.157   2.744 124.497  0.00  0.00    +0.000 NA
ATOM      7  C   UNL     1      -5.865   2.092 125.792  0.00  0.00    +0.000 C 
ATOM      8  C   UNL     1      -6.932   2.380 126.877  0.00  0.00    +0.000 C 
ENDBRANCH   1   6
BRANCH   1   9
ATOM      9  C   UNL     1      -7.425   2.824 122.376  0.00  0.00    +0.000 A 
ATOM     10  C   UNL     1      -6.239   3.108 121.684  0.00  0.00    +0.000 A 
ATOM     11  C   UNL     1      -6.291   3.786 120.468  0.00  0.00    +0.000 A 
ATOM     12  C   UNL     1      -7.521   4.155 119.920  0.00  0.00    +0.000 A 
ATOM     13  C   UNL     1      -8.708   3.816 120.566  0.00  0.00    +0.000 A 
ATOM     14  C   UNL     1      -8.661   3.130 121.773  0.00  0.00    +0.000 A 
ENDBRANCH   1   9
BRANCH   1  15
ATOM     15  C   UNL     1      -7.587   0.699 123.792  0.00  0.00    +0.000 A 
ATOM     16  C   UNL     1      -6.751  -0.174 123.075  0.00  0.00    +0.000 A 
ATOM     17  C   UNL     1      -6.957  -1.559 123.070  0.00  0.00    +0.000 A 
ATOM     18  C   UNL     1      -7.965  -2.113 123.847  0.00  0.00    +0.000 A 
ATOM     19  C   UNL     1      -8.822  -1.284 124.545  0.00  0.00    +0.000 A 
ATOM     20  C   UNL     1      -8.679   0.102 124.448  0.00  0.00    +0.000 A 
ENDBRANCH   1  15
TORSDOF 3
ENDMDL
MODEL 4
REMARK VINA RESULT:      -6.4      4.256      6.925
REMARK  Name = Cyclizine
REMARK  4 active torsions:
REMARK  status: ('A' for Active; 'I' for Inactive)
REMARK    1  A    between atoms: C_1  and  N_2
REMARK    2  A    between atoms: N_5  and  C_8
REMARK    3  A    between atoms: C_8  and  C_9
REMARK    4  A    between atoms: C_8  and  C_15
REMARK                            x       y       z     vdW  Elec       q    Type
REMARK                         _______ _______ _______ _____ _____    ______ ____
ROOT
ATOM      1  C   UNL     1      -7.115  -1.448 127.714  0.00  0.00    +0.000 C 
ENDROOT
BRANCH   1   6
ATOM      2  C   UNL     1      -8.985   2.646 129.547  0.00  0.00    +0.000 C 
ATOM      3  N   UNL     1      -7.945   2.065 128.713  0.00  0.00    +0.000 NA
ATOM      4  C   UNL     1      -8.506   1.376 127.537  0.00  0.00    +0.000 C 
ATOM      5  C   UNL     1      -7.387   0.767 126.654  0.00  0.00    +0.000 C 
ATOM      6  N   UNL     1      -6.450  -0.146 127.378  0.00  0.00    +0.000 NA
ATOM      7  C   UNL     1      -5.965   0.623 128.545  0.00  0.00    +0.000 C 
ATOM      8  C   UNL     1      -7.106   1.122 129.465  0.00  0.00    +0.000 C 
ENDBRANCH   1   6
BRANCH   1   9
ATOM      9  C   UNL     1      -7.582  -2.118 126.407  0.00  0.00    +0.000 A 
ATOM     10  C   UNL     1      -8.936  -2.406 126.189  0.00  0.00    +0.000 A 
ATOM     11  C   UNL     1      -9.315  -3.162 125.081  0.00  0.00    +0.000 A 
ATOM     12  C   UNL     1      -8.355  -3.604 124.169  0.00  0.00    +0.000 A 
ATOM     13  C   UNL     1      -7.015  -3.263 124.340  0.00  0.00    +0.000 A 
ATOM     14  C   UNL     1      -6.635  -2.501 125.436  0.00  0.00    +0.000 A 
ENDBRANCH   1   9
BRANCH   1  15
ATOM     15  C   UNL     1      -6.283  -2.433 128.589  0.00  0.00    +0.000 A 
ATOM     16  C   UNL     1      -4.888  -2.567 128.476  0.00  0.00    +0.000 A 
ATOM     17  C   UNL     1      -4.165  -3.469 129.265  0.00  0.00    +0.000 A 
ATOM     18  C   UNL     1      -4.813  -4.210 130.243  0.00  0.00    +0.000 A 
ATOM     19  C   UNL     1      -6.187  -4.124 130.366  0.00  0.00    +0.000 A 
ATOM     20  C   UNL     1      -6.911  -3.308 129.493  0.00  0.00    +0.000 A 
ENDBRANCH   1  15
TORSDOF 3
ENDMDL
MODEL 5
REMARK VINA RESULT:      -6.3      3.190      5.300
REMARK  Name = Cyclizine
REMARK  4 active torsions:
REMARK  status: ('A' for Active; 'I' for Inactive)
REMARK    1  A    between atoms: C_1  and  N_2
REMARK    2  A    between atoms: N_5  and  C_8
REMARK    3  A    between atoms: C_8  and  C_9
REMARK    4  A    between atoms: C_8  and  C_15
REMARK                            x       y       z     vdW  Elec       q    Type
REMARK                         _______ _______ _______ _____ _____    ______ ____
ROOT
ATOM      1  C   UNL     1      -7.504  -0.777 126.403  0.00  0.00    +0.000 C 
ENDROOT
BRANCH   1   6
ATOM      2  C   UNL     1      -7.575   3.975 125.389  0.00  0.00    +0.000 C 
ATOM      3  N   UNL     1      -8.182   2.898 126.154  0.00  0.00    +0.000 NA
ATOM      4  C   UNL     1      -7.226   2.287 127.094  0.00  0.00    +0.000 C 
ATOM      5  C   UNL     1      -7.886   1.145 127.908  0.00  0.00    +0.000 C 
ATOM      6  N   UNL     1      -8.532   0.082 127.077  0.00  0.00    +0.000 NA
ATOM      7  C   UNL     1      -9.446   0.794 126.158  0.00  0.00    +0.000 C 
ATOM      8  C   UNL     1      -8.731   1.851 125.282  0.00  0.00    +0.000 C 
ENDBRANCH   1   6
BRANCH   1   9
ATOM      9  C   UNL     1      -6.881  -1.720 127.451  0.00  0.00    +0.000 A 
ATOM     10  C   UNL     1      -7.678  -2.352 128.415  0.00  0.00    +0.000 A 
ATOM     11  C   UNL     1      -7.078  -3.063 129.453  0.00  0.00    +0.000 A 
ATOM     12  C   UNL     1      -5.689  -3.177 129.517  0.00  0.00    +0.000 A 
ATOM     13  C   UNL     1      -4.891  -2.610 128.525  0.00  0.00    +0.000 A 
ATOM     14  C   UNL     1      -5.485  -1.911 127.482  0.00  0.00    +0.000 A 
ENDBRANCH   1   9
BRANCH   1  15
ATOM     15  C   UNL     1      -7.989  -1.564 125.149  0.00  0.00    +0.000 A 
ATOM     16  C   UNL     1      -8.955  -2.584 125.211  0.00  0.00    +0.000 A 
ATOM     17  C   UNL     1      -9.364  -3.286 124.072  0.00  0.00    +0.000 A 
ATOM     18  C   UNL     1      -8.869  -2.933 122.825  0.00  0.00    +0.000 A 
ATOM     19  C   UNL     1      -7.900  -1.953 122.727  0.00  0.00    +0.000 A 
ATOM     20  C   UNL     1      -7.414  -1.342 123.885  0.00  0.00    +0.000 A 
ENDBRANCH   1  15
TORSDOF 3
ENDMDL
MODEL 6
REMARK VINA RESULT:      -6.3      5.762      8.432
REMARK  Name = Cyclizine
REMARK  4 active torsions:
REMARK  status: ('A' for Active; 'I' for Inactive)
REMARK    1  A    between atoms: C_1  and  N_2
REMARK    2  A    between atoms: N_5  and  C_8
REMARK    3  A    between atoms: C_8  and  C_9
REMARK    4  A    between atoms: C_8  and  C_15
REMARK                            x       y       z     vdW  Elec       q    Type
REMARK                         _______ _______ _______ _____ _____    ______ ____
ROOT
ATOM      1  C   UNL     1      -7.045  -1.491 129.990  0.00  0.00    +0.000 C 
ENDROOT
BRANCH   1   6
ATOM      2  C   UNL     1      -3.761  -4.125 132.417  0.00  0.00    +0.000 C 
ATOM      3  N   UNL     1      -3.975  -3.030 131.485  0.00  0.00    +0.000 NA
ATOM      4  C   UNL     1      -4.742  -1.930 132.098  0.00  0.00    +0.000 C 
ATOM      5  C   UNL     1      -4.959  -0.767 131.097  0.00  0.00    +0.000 C 
ATOM      6  N   UNL     1      -5.592  -1.169 129.803  0.00  0.00    +0.000 NA
ATOM      7  C   UNL     1      -4.770  -2.284 129.286  0.00  0.00    +0.000 C 
ATOM      8  C   UNL     1      -4.668  -3.476 130.269  0.00  0.00    +0.000 C 
ENDBRANCH   1   6
BRANCH   1   9
ATOM      9  C   UNL     1      -7.782  -0.214 130.439  0.00  0.00    +0.000 A 
ATOM     10  C   UNL     1      -8.613  -0.222 131.568  0.00  0.00    +0.000 A 
ATOM     11  C   UNL     1      -9.400   0.892 131.857  0.00  0.00    +0.000 A 
ATOM     12  C   UNL     1      -9.338   2.027 131.047  0.00  0.00    +0.000 A 
ATOM     13  C   UNL     1      -8.464   2.069 129.963  0.00  0.00    +0.000 A 
ATOM     14  C   UNL     1      -7.670   0.967 129.678  0.00  0.00    +0.000 A 
ENDBRANCH   1   9
BRANCH   1  15
ATOM     15  C   UNL     1      -7.757  -2.158 128.775  0.00  0.00    +0.000 A 
ATOM     16  C   UNL     1      -7.825  -1.561 127.504  0.00  0.00    +0.000 A 
ATOM     17  C   UNL     1      -8.483  -2.174 126.432  0.00  0.00    +0.000 A 
ATOM     18  C   UNL     1      -9.027  -3.441 126.586  0.00  0.00    +0.000 A 
ATOM     19  C   UNL     1      -9.002  -4.049 127.827  0.00  0.00    +0.000 A 
ATOM     20  C   UNL     1      -8.448  -3.375 128.917  0.00  0.00    +0.000 A 
ENDBRANCH   1  15
TORSDOF 3
ENDMDL
MODEL 7
REMARK VINA RESULT:      -5.9      2.985      4.497
REMARK  Name = Cyclizine
REMARK  4 active torsions:
REMARK  status: ('A' for Active; 'I' for Inactive)
REMARK    1  A    between atoms: C_1  and  N_2
REMARK    2  A    between atoms: N_5  and  C_8
REMARK    3  A    between atoms: C_8  and  C_9
REMARK    4  A    between atoms: C_8  and  C_15
REMARK                            x       y       z     vdW  Elec       q    Type
REMARK                         _______ _______ _______ _____ _____    ______ ____
ROOT
ATOM      1  C   UNL     1      -6.242  -0.080 126.086  0.00  0.00    +0.000 C 
ENDROOT
BRANCH   1   6
ATOM      2  C   UNL     1      -7.308  -1.745 130.525  0.00  0.00    +0.000 C 
ATOM      3  N   UNL     1      -7.839  -1.244 129.267  0.00  0.00    +0.000 NA
ATOM      4  C   UNL     1      -7.491  -2.124 128.136  0.00  0.00    +0.000 C 
ATOM      5  C   UNL     1      -8.067  -1.582 126.803  0.00  0.00    +0.000 C 
ATOM      6  N   UNL     1      -7.684  -0.171 126.486  0.00  0.00    +0.000 NA
ATOM      7  C   UNL     1      -8.048   0.619 127.683  0.00  0.00    +0.000 C 
ATOM      8  C   UNL     1      -7.366   0.116 128.979  0.00  0.00    +0.000 C 
ENDBRANCH   1   6
BRANCH   1   9
ATOM      9  C   UNL     1      -6.017  -0.954 124.837  0.00  0.00    +0.000 A 
ATOM     10  C   UNL     1      -6.759  -0.743 123.667  0.00  0.00    +0.000 A 
ATOM     11  C   UNL     1      -6.662  -1.649 122.611  0.00  0.00    +0.000 A 
ATOM     12  C   UNL     1      -5.804  -2.746 122.702  0.00  0.00    +0.000 A 
ATOM     13  C   UNL     1      -5.012  -2.927 123.834  0.00  0.00    +0.000 A 
ATOM     14  C   UNL     1      -5.096  -2.020 124.883  0.00  0.00    +0.000 A 
ENDBRANCH   1   9
BRANCH   1  15
ATOM     15  C   UNL     1      -5.682   1.360 125.876  0.00  0.00    +0.000 A 
ATOM     16  C   UNL     1      -6.277   2.295 125.012  0.00  0.00    +0.000 A 
ATOM     17  C   UNL     1      -5.747   3.578 124.831  0.00  0.00    +0.000 A 
ATOM     18  C   UNL     1      -4.646   3.984 125.571  0.00  0.00    +0.000 A 
ATOM     19  C   UNL     1      -4.020   3.084 126.412  0.00  0.00    +0.000 A 
ATOM     20  C   UNL     1      -4.487   1.771 126.494  0.00  0.00    +0.000 A 
ENDBRANCH   1  15
TORSDOF 3
ENDMDL
MODEL 8
REMARK VINA RESULT:      -5.9     11.163     14.696
REMARK  Name = Cyclizine
REMARK  4 active torsions:
REMARK  status: ('A' for Active; 'I' for Inactive)
REMARK    1  A    between atoms: C_1  and  N_2
REMARK    2  A    between atoms: N_5  and  C_8
REMARK    3  A    between atoms: C_8  and  C_9
REMARK    4  A    between atoms: C_8  and  C_15
REMARK                            x       y       z     vdW  Elec       q    Type
REMARK                         _______ _______ _______ _____ _____    ______ ____
ROOT
ATOM      1  C   UNL     1      -1.698   9.747 133.765  0.00  0.00    +0.000 C 
ENDROOT
BRANCH   1   6
ATOM      2  C   UNL     1      -4.962   9.904 137.362  0.00  0.00    +0.000 C 
ATOM      3  N   UNL     1      -3.561   9.731 137.014  0.00  0.00    +0.000 NA
ATOM      4  C   UNL     1      -3.002  10.937 136.378  0.00  0.00    +0.000 C 
ATOM      5  C   UNL     1      -1.506  10.743 136.018  0.00  0.00    +0.000 C 
ATOM      6  N   UNL     1      -1.221   9.543 135.172  0.00  0.00    +0.000 NA
ATOM      7  C   UNL     1      -1.839   8.400 135.879  0.00  0.00    +0.000 C 
ATOM      8  C   UNL     1      -3.358   8.581 136.123  0.00  0.00    +0.000 C 
ENDBRANCH   1   6
BRANCH   1   9
ATOM      9  C   UNL     1      -0.861  10.865 133.115  0.00  0.00    +0.000 A 
ATOM     10  C   UNL     1      -1.473  11.884 132.372  0.00  0.00    +0.000 A 
ATOM     11  C   UNL     1      -0.689  12.785 131.653  0.00  0.00    +0.000 A 
ATOM     12  C   UNL     1       0.703  12.698 131.698  0.00  0.00    +0.000 A 
ATOM     13  C   UNL     1       1.321  11.732 132.489  0.00  0.00    +0.000 A 
ATOM     14  C   UNL     1       0.544  10.840 133.215  0.00  0.00    +0.000 A 
ENDBRANCH   1   9
BRANCH   1  15
ATOM     15  C   UNL     1      -1.738   8.474 132.867  0.00  0.00    +0.000 A 
ATOM     16  C   UNL     1      -0.657   7.582 132.755  0.00  0.00    +0.000 A 
ATOM     17  C   UNL     1      -0.712   6.452 131.930  0.00  0.00    +0.000 A 
ATOM     18  C   UNL     1      -1.883   6.145 131.253  0.00  0.00    +0.000 A 
ATOM     19  C   UNL     1      -2.958   7.012 131.319  0.00  0.00    +0.000 A 
ATOM     20  C   UNL     1      -2.849   8.196 132.050  0.00  0.00    +0.000 A 
ENDBRANCH   1  15
TORSDOF 3
ENDMDL
MODEL 9
REMARK VINA RESULT:      -5.8      2.112      2.807
REMARK  Name = Cyclizine
REMARK  4 active torsions:
REMARK  status: ('A' for Active; 'I' for Inactive)
REMARK    1  A    between atoms: C_1  and  N_2
REMARK    2  A    between atoms: N_5  and  C_8
REMARK    3  A    between atoms: C_8  and  C_9
REMARK    4  A    between atoms: C_8  and  C_15
REMARK                            x       y       z     vdW  Elec       q    Type
REMARK                         _______ _______ _______ _____ _____    ______ ____
ROOT
ATOM      1  C   UNL     1      -7.241   0.202 125.749  0.00  0.00    +0.000 C 
ENDROOT
BRANCH   1   6
ATOM      2  C   UNL     1      -4.113   2.251 128.853  0.00  0.00    +0.000 C 
ATOM      3  N   UNL     1      -5.473   1.779 128.650  0.00  0.00    +0.000 NA
ATOM      4  C   UNL     1      -5.517   0.329 128.386  0.00  0.00    +0.000 C 
ATOM      5  C   UNL     1      -6.972  -0.162 128.177  0.00  0.00    +0.000 C 
ATOM      6  N   UNL     1      -7.732   0.571 127.117  0.00  0.00    +0.000 NA
ATOM      7  C   UNL     1      -7.607   2.005 127.457  0.00  0.00    +0.000 C 
ATOM      8  C   UNL     1      -6.138   2.487 127.547  0.00  0.00    +0.000 C 
ENDBRANCH   1   6
BRANCH   1   9
ATOM      9  C   UNL     1      -7.604  -1.270 125.472  0.00  0.00    +0.000 A 
ATOM     10  C   UNL     1      -6.726  -2.109 124.772  0.00  0.00    +0.000 A 
ATOM     11  C   UNL     1      -7.144  -3.381 124.385  0.00  0.00    +0.000 A 
ATOM     12  C   UNL     1      -8.419  -3.836 124.722  0.00  0.00    +0.000 A 
ATOM     13  C   UNL     1      -9.274  -3.036 125.477  0.00  0.00    +0.000 A 
ATOM     14  C   UNL     1      -8.858  -1.772 125.875  0.00  0.00    +0.000 A 
ENDBRANCH   1   9
BRANCH   1  15
ATOM     15  C   UNL     1      -7.707   1.129 124.585  0.00  0.00    +0.000 A 
ATOM     16  C   UNL     1      -9.036   1.179 124.131  0.00  0.00    +0.000 A 
ATOM     17  C   UNL     1      -9.427   2.010 123.075  0.00  0.00    +0.000 A 
ATOM     18  C   UNL     1      -8.507   2.871 122.493  0.00  0.00    +0.000 A 
ATOM     19  C   UNL     1      -7.186   2.832 122.897  0.00  0.00    +0.000 A 
ATOM     20  C   UNL     1      -6.785   1.914 123.870  0.00  0.00    +0.000 A 
ENDBRANCH   1  15
TORSDOF 3
ENDMDL
