MODEL 1
REMARK VINA RESULT:      -7.0      0.000      0.000
REMARK  Name = Cycrimine
REMARK  6 active torsions:
REMARK  status: ('A' for Active; 'I' for Inactive)
REMARK    1  A    between atoms: O_1  and  C_2
REMARK    2  A    between atoms: C_2  and  C_3
REMARK    3  A    between atoms: C_2  and  C_11
REMARK    4  A    between atoms: C_2  and  C_16
REMARK    5  A    between atoms: C_3  and  C_4
REMARK    6  A    between atoms: C_4  and  N_5
REMARK                            x       y       z     vdW  Elec       q    Type
REMARK                         _______ _______ _______ _____ _____    ______ ____
ROOT
ATOM      1  C   UNL     1      -8.029  -1.587 125.901  0.00  0.00    +0.000 C 
ENDROOT
BRANCH   1   2
ATOM      2  C   UNL     1      -7.051  -1.842 124.747  0.00  0.00    +0.000 A 
ATOM      3  C   UNL     1      -7.300  -1.452 123.419  0.00  0.00    +0.000 A 
ATOM      4  C   UNL     1      -6.435  -1.839 122.390  0.00  0.00    +0.000 A 
ATOM      5  C   UNL     1      -5.320  -2.616 122.665  0.00  0.00    +0.000 A 
ATOM      6  C   UNL     1      -5.047  -3.008 123.971  0.00  0.00    +0.000 A 
ATOM      7  C   UNL     1      -5.888  -2.586 124.999  0.00  0.00    +0.000 A 
ENDBRANCH   1   2
BRANCH   1   8
ATOM      8  C   UNL     1      -7.904  -2.609 127.064  0.00  0.00    +0.000 C 
ATOM      9  C   UNL     1      -7.907  -2.016 128.479  0.00  0.00    +0.000 C 
ATOM     10  C   UNL     1      -8.224  -3.203 129.370  0.00  0.00    +0.000 C 
ATOM     11  C   UNL     1      -9.078  -4.141 128.525  0.00  0.00    +0.000 C 
ATOM     12  C   UNL     1      -9.078  -3.583 127.111  0.00  0.00    +0.000 C 
ENDBRANCH   1   8
BRANCH   1  13
ATOM     13  O   UNL     1      -9.360  -1.628 125.370  0.00  0.00    +0.000 OA
ATOM     14  H   UNL     1      -9.312  -1.445 124.418  0.00  0.00    +0.000 HD
ENDBRANCH   1  13
BRANCH   1  15
ATOM     15  C   UNL     1      -7.797  -0.188 126.486  0.00  0.00    +0.000 C 
BRANCH  15  16
ATOM     16  C   UNL     1      -8.818   0.888 126.110  0.00  0.00    +0.000 C 
BRANCH  16  17
ATOM     17  N   UNL     1      -8.355   1.889 125.134  0.00  0.00    +0.000 NA
ATOM     18  C   UNL     1      -6.903   1.880 124.934  0.00  0.00    +0.000 C 
ATOM     19  C   UNL     1      -6.463   2.963 123.974  0.00  0.00    +0.000 C 
ATOM     20  C   UNL     1      -7.167   2.793 122.639  0.00  0.00    +0.000 C 
ATOM     21  C   UNL     1      -8.678   2.725 122.832  0.00  0.00    +0.000 C 
ATOM     22  C   UNL     1      -9.057   1.665 123.856  0.00  0.00    +0.000 C 
ENDBRANCH  16  17
ENDBRANCH  15  16
ENDBRANCH   1  15
TORSDOF 6
ENDMDL
MODEL 2
REMARK VINA RESULT:      -6.9      2.604      6.533
REMARK  Name = Cycrimine
REMARK  6 active torsions:
REMARK  status: ('A' for Active; 'I' for Inactive)
REMARK    1  A    between atoms: O_1  and  C_2
REMARK    2  A    between atoms: C_2  and  C_3
REMARK    3  A    between atoms: C_2  and  C_11
REMARK    4  A    between atoms: C_2  and  C_16
REMARK    5  A    between atoms: C_3  and  C_4
REMARK    6  A    between atoms: C_4  and  N_5
REMARK                            x       y       z     vdW  Elec       q    Type
REMARK                         _______ _______ _______ _____ _____    ______ ____
ROOT
ATOM      1  C   UNL     1      -7.534   2.694 123.759  0.00  0.00    +0.000 C 
ENDROOT
BRANCH   1   2
ATOM      2  C   UNL     1      -6.393   2.690 124.784  0.00  0.00    +0.000 A 
ATOM      3  C   UNL     1      -5.571   3.803 125.034  0.00  0.00    +0.000 A 
ATOM      4  C   UNL     1      -4.459   3.693 125.877  0.00  0.00    +0.000 A 
ATOM      5  C   UNL     1      -4.151   2.481 126.476  0.00  0.00    +0.000 A 
ATOM      6  C   UNL     1      -4.952   1.368 126.252  0.00  0.00    +0.000 A 
ATOM      7  C   UNL     1      -6.081   1.492 125.446  0.00  0.00    +0.000 A 
ENDBRANCH   1   2
BRANCH   1   8
ATOM      8  C   UNL     1      -7.230   3.532 122.488  0.00  0.00    +0.000 C 
ATOM      9  C   UNL     1      -6.077   3.025 121.611  0.00  0.00    +0.000 C 
ATOM     10  C   UNL     1      -6.297   3.724 120.283  0.00  0.00    +0.000 C 
ATOM     11  C   UNL     1      -7.801   3.946 120.172  0.00  0.00    +0.000 C 
ATOM     12  C   UNL     1      -8.403   3.555 121.512  0.00  0.00    +0.000 C 
ENDBRANCH   1   8
BRANCH   1  13
ATOM     13  O   UNL     1      -8.705   3.211 124.404  0.00  0.00    +0.000 OA
ATOM     14  H   UNL     1      -9.196   2.465 124.784  0.00  0.00    +0.000 HD
ENDBRANCH   1  13
BRANCH   1  15
ATOM     15  C   UNL     1      -7.837   1.259 123.307  0.00  0.00    +0.000 C 
BRANCH  15  16
ATOM     16  C   UNL     1      -9.296   0.807 123.405  0.00  0.00    +0.000 C 
BRANCH  16  17
ATOM     17  N   UNL     1      -9.501  -0.586 123.838  0.00  0.00    +0.000 NA
ATOM     18  C   UNL     1      -8.954  -1.573 122.903  0.00  0.00    +0.000 C 
ATOM     19  C   UNL     1      -9.241  -2.989 123.353  0.00  0.00    +0.000 C 
ATOM     20  C   UNL     1      -8.669  -3.222 124.740  0.00  0.00    +0.000 C 
ATOM     21  C   UNL     1      -9.169  -2.159 125.713  0.00  0.00    +0.000 C 
ATOM     22  C   UNL     1      -8.912  -0.757 125.179  0.00  0.00    +0.000 C 
ENDBRANCH  16  17
ENDBRANCH  15  16
ENDBRANCH   1  15
TORSDOF 6
ENDMDL
MODEL 3
REMARK VINA RESULT:      -6.9      1.177      3.863
REMARK  Name = Cycrimine
REMARK  6 active torsions:
REMARK  status: ('A' for Active; 'I' for Inactive)
REMARK    1  A    between atoms: O_1  and  C_2
REMARK    2  A    between atoms: C_2  and  C_3
REMARK    3  A    between atoms: C_2  and  C_11
REMARK    4  A    between atoms: C_2  and  C_16
REMARK    5  A    between atoms: C_3  and  C_4
REMARK    6  A    between atoms: C_4  and  N_5
REMARK                            x       y       z     vdW  Elec       q    Type
REMARK                         _______ _______ _______ _____ _____    ______ ____
ROOT
ATOM      1  C   UNL     1      -7.032  -0.680 125.868  0.00  0.00    +0.000 C 
ENDROOT
BRANCH   1   2
ATOM      2  C   UNL     1      -7.587  -1.834 126.712  0.00  0.00    +0.000 A 
ATOM      3  C   UNL     1      -8.616  -2.687 126.278  0.00  0.00    +0.000 A 
ATOM      4  C   UNL     1      -9.174  -3.630 127.149  0.00  0.00    +0.000 A 
ATOM      5  C   UNL     1      -8.720  -3.734 128.456  0.00  0.00    +0.000 A 
ATOM      6  C   UNL     1      -7.698  -2.907 128.907  0.00  0.00    +0.000 A 
ATOM      7  C   UNL     1      -7.117  -1.998 128.025  0.00  0.00    +0.000 A 
ENDBRANCH   1   2
BRANCH   1   8
ATOM      8  C   UNL     1      -6.124  -1.143 124.696  0.00  0.00    +0.000 C 
ATOM      9  C   UNL     1      -5.585  -2.576 124.793  0.00  0.00    +0.000 C 
ATOM     10  C   UNL     1      -5.142  -2.894 123.377  0.00  0.00    +0.000 C 
ATOM     11  C   UNL     1      -6.048  -2.075 122.463  0.00  0.00    +0.000 C 
ATOM     12  C   UNL     1      -6.861  -1.155 123.359  0.00  0.00    +0.000 C 
ENDBRANCH   1   8
BRANCH   1  13
ATOM     13  O   UNL     1      -6.287   0.184 126.736  0.00  0.00    +0.000 OA
ATOM     14  H   UNL     1      -6.907   0.808 127.147  0.00  0.00    +0.000 HD
ENDBRANCH   1  13
BRANCH   1  15
ATOM     15  C   UNL     1      -8.186   0.134 125.268  0.00  0.00    +0.000 C 
BRANCH  15  16
ATOM     16  C   UNL     1      -8.234   1.620 125.629  0.00  0.00    +0.000 C 
BRANCH  16  17
ATOM     17  N   UNL     1      -7.934   2.551 124.529  0.00  0.00    +0.000 NA
ATOM     18  C   UNL     1      -6.502   2.666 124.237  0.00  0.00    +0.000 C 
ATOM     19  C   UNL     1      -6.232   3.678 123.145  0.00  0.00    +0.000 C 
ATOM     20  C   UNL     1      -6.986   3.297 121.883  0.00  0.00    +0.000 C 
ATOM     21  C   UNL     1      -8.468   3.099 122.181  0.00  0.00    +0.000 C 
ATOM     22  C   UNL     1      -8.676   2.122 123.329  0.00  0.00    +0.000 C 
ENDBRANCH  16  17
ENDBRANCH  15  16
ENDBRANCH   1  15
TORSDOF 6
ENDMDL
MODEL 4
REMARK VINA RESULT:      -6.8      1.025      4.066
REMARK  Name = Cycrimine
REMARK  6 active torsions:
REMARK  status: ('A' for Active; 'I' for Inactive)
REMARK    1  A    between atoms: O_1  and  C_2
REMARK    2  A    between atoms: C_2  and  C_3
REMARK    3  A    between atoms: C_2  and  C_11
REMARK    4  A    between atoms: C_2  and  C_16
REMARK    5  A    between atoms: C_3  and  C_4
REMARK    6  A    between atoms: C_4  and  N_5
REMARK                            x       y       z     vdW  Elec       q    Type
REMARK                         _______ _______ _______ _____ _____    ______ ____
ROOT
ATOM      1  C   UNL     1      -7.411  -1.084 125.717  0.00  0.00    +0.000 C 
ENDROOT
BRANCH   1   2
ATOM      2  C   UNL     1      -7.916  -1.902 126.912  0.00  0.00    +0.000 A 
ATOM      3  C   UNL     1      -7.564  -1.627 128.245  0.00  0.00    +0.000 A 
ATOM      4  C   UNL     1      -7.944  -2.494 129.276  0.00  0.00    +0.000 A 
ATOM      5  C   UNL     1      -8.670  -3.642 128.995  0.00  0.00    +0.000 A 
ATOM      6  C   UNL     1      -9.038  -3.933 127.687  0.00  0.00    +0.000 A 
ATOM      7  C   UNL     1      -8.694  -3.046 126.669  0.00  0.00    +0.000 A 
ENDBRANCH   1   2
BRANCH   1   8
ATOM      8  C   UNL     1      -6.968  -1.952 124.508  0.00  0.00    +0.000 C 
ATOM      9  C   UNL     1      -6.784  -1.206 123.180  0.00  0.00    +0.000 C 
ATOM     10  C   UNL     1      -5.950  -2.156 122.342  0.00  0.00    +0.000 C 
ATOM     11  C   UNL     1      -5.103  -2.950 123.331  0.00  0.00    +0.000 C 
ATOM     12  C   UNL     1      -5.598  -2.590 124.722  0.00  0.00    +0.000 C 
ENDBRANCH   1   8
BRANCH   1  13
ATOM     13  O   UNL     1      -6.307  -0.287 126.163  0.00  0.00    +0.000 OA
ATOM     14  H   UNL     1      -6.461  -0.047 127.091  0.00  0.00    +0.000 HD
ENDBRANCH   1  13
BRANCH   1  15
ATOM     15  C   UNL     1      -8.513  -0.135 125.228  0.00  0.00    +0.000 C 
BRANCH  15  16
ATOM     16  C   UNL     1      -8.421   1.318 125.699  0.00  0.00    +0.000 C 
BRANCH  16  17
ATOM     17  N   UNL     1      -8.078   2.302 124.659  0.00  0.00    +0.000 NA
ATOM     18  C   UNL     1      -6.637   2.409 124.411  0.00  0.00    +0.000 C 
ATOM     19  C   UNL     1      -6.323   3.473 123.383  0.00  0.00    +0.000 C 
ATOM     20  C   UNL     1      -7.048   3.174 122.083  0.00  0.00    +0.000 C 
ATOM     21  C   UNL     1      -8.541   2.985 122.331  0.00  0.00    +0.000 C 
ATOM     22  C   UNL     1      -8.794   1.951 123.419  0.00  0.00    +0.000 C 
ENDBRANCH  16  17
ENDBRANCH  15  16
ENDBRANCH   1  15
TORSDOF 6
ENDMDL
MODEL 5
REMARK VINA RESULT:      -6.7      7.658      9.583
REMARK  Name = Cycrimine
REMARK  6 active torsions:
REMARK  status: ('A' for Active; 'I' for Inactive)
REMARK    1  A    between atoms: O_1  and  C_2
REMARK    2  A    between atoms: C_2  and  C_3
REMARK    3  A    between atoms: C_2  and  C_11
REMARK    4  A    between atoms: C_2  and  C_16
REMARK    5  A    between atoms: C_3  and  C_4
REMARK    6  A    between atoms: C_4  and  N_5
REMARK                            x       y       z     vdW  Elec       q    Type
REMARK                         _______ _______ _______ _____ _____    ______ ____
ROOT
ATOM      1  C   UNL     1      -9.533   5.405 132.037  0.00  0.00    +0.000 C 
ENDROOT
BRANCH   1   2
ATOM      2  C   UNL     1      -9.385   3.938 131.613  0.00  0.00    +0.000 A 
ATOM      3  C   UNL     1      -9.451   2.861 132.514  0.00  0.00    +0.000 A 
ATOM      4  C   UNL     1      -9.168   1.558 132.088  0.00  0.00    +0.000 A 
ATOM      5  C   UNL     1      -8.815   1.312 130.769  0.00  0.00    +0.000 A 
ATOM      6  C   UNL     1      -8.751   2.359 129.857  0.00  0.00    +0.000 A 
ATOM      7  C   UNL     1      -9.074   3.648 130.275  0.00  0.00    +0.000 A 
ENDBRANCH   1   2
BRANCH   1   8
ATOM      8  C   UNL     1      -8.178   6.142 132.221  0.00  0.00    +0.000 C 
ATOM      9  C   UNL     1      -6.982   5.258 132.599  0.00  0.00    +0.000 C 
ATOM     10  C   UNL     1      -5.777   6.120 132.275  0.00  0.00    +0.000 C 
ATOM     11  C   UNL     1      -6.208   7.025 131.126  0.00  0.00    +0.000 C 
ATOM     12  C   UNL     1      -7.701   6.813 130.936  0.00  0.00    +0.000 C 
ENDBRANCH   1   8
BRANCH   1  13
ATOM     13  O   UNL     1     -10.266   5.438 133.268  0.00  0.00    +0.000 OA
ATOM     14  H   UNL     1     -10.970   4.771 133.220  0.00  0.00    +0.000 HD
ENDBRANCH   1  13
BRANCH   1  15
ATOM     15  C   UNL     1     -10.341   6.176 130.985  0.00  0.00    +0.000 C 
BRANCH  15  16
ATOM     16  C   UNL     1     -11.855   5.954 130.989  0.00  0.00    +0.000 C 
BRANCH  16  17
ATOM     17  N   UNL     1     -12.642   6.928 130.215  0.00  0.00    +0.000 NA
ATOM     18  C   UNL     1     -12.012   8.248 130.127  0.00  0.00    +0.000 C 
ATOM     19  C   UNL     1     -12.881   9.235 129.378  0.00  0.00    +0.000 C 
ATOM     20  C   UNL     1     -13.179   8.713 127.983  0.00  0.00    +0.000 C 
ATOM     21  C   UNL     1     -13.767   7.308 128.049  0.00  0.00    +0.000 C 
ATOM     22  C   UNL     1     -12.885   6.377 128.868  0.00  0.00    +0.000 C 
ENDBRANCH  16  17
ENDBRANCH  15  16
ENDBRANCH   1  15
TORSDOF 6
ENDMDL
MODEL 6
REMARK VINA RESULT:      -6.7      7.929      9.911
REMARK  Name = Cycrimine
REMARK  6 active torsions:
REMARK  status: ('A' for Active; 'I' for Inactive)
REMARK    1  A    between atoms: O_1  and  C_2
REMARK    2  A    between atoms: C_2  and  C_3
REMARK    3  A    between atoms: C_2  and  C_11
REMARK    4  A    between atoms: C_2  and  C_16
REMARK    5  A    between atoms: C_3  and  C_4
REMARK    6  A    between atoms: C_4  and  N_5
REMARK                            x       y       z     vdW  Elec       q    Type
REMARK                         _______ _______ _______ _____ _____    ______ ____
ROOT
ATOM      1  C   UNL     1      -9.116   6.002 132.010  0.00  0.00    +0.000 C 
ENDROOT
BRANCH   1   2
ATOM      2  C   UNL     1     -10.310   6.583 131.242  0.00  0.00    +0.000 A 
ATOM      3  C   UNL     1     -10.191   7.240 130.005  0.00  0.00    +0.000 A 
ATOM      4  C   UNL     1     -11.297   7.871 129.425  0.00  0.00    +0.000 A 
ATOM      5  C   UNL     1     -12.527   7.860 130.066  0.00  0.00    +0.000 A 
ATOM      6  C   UNL     1     -12.673   7.211 131.286  0.00  0.00    +0.000 A 
ATOM      7  C   UNL     1     -11.580   6.548 131.840  0.00  0.00    +0.000 A 
ENDBRANCH   1   2
BRANCH   1   8
ATOM      8  C   UNL     1      -8.980   4.460 131.880  0.00  0.00    +0.000 C 
ATOM      9  C   UNL     1      -9.208   3.658 133.168  0.00  0.00    +0.000 C 
ATOM     10  C   UNL     1      -9.458   2.244 132.677  0.00  0.00    +0.000 C 
ATOM     11  C   UNL     1     -10.090   2.389 131.296  0.00  0.00    +0.000 C 
ATOM     12  C   UNL     1     -10.015   3.863 130.931  0.00  0.00    +0.000 C 
ENDBRANCH   1   8
BRANCH   1  13
ATOM     13  O   UNL     1      -9.266   6.353 133.391  0.00  0.00    +0.000 OA
ATOM     14  H   UNL     1      -8.439   6.136 133.851  0.00  0.00    +0.000 HD
ENDBRANCH   1  13
BRANCH   1  15
ATOM     15  C   UNL     1      -7.810   6.627 131.502  0.00  0.00    +0.000 C 
BRANCH  15  16
ATOM     16  C   UNL     1      -6.869   5.705 130.724  0.00  0.00    +0.000 C 
BRANCH  16  17
ATOM     17  N   UNL     1      -5.689   6.356 130.131  0.00  0.00    +0.000 NA
ATOM     18  C   UNL     1      -4.870   7.078 131.108  0.00  0.00    +0.000 C 
ATOM     19  C   UNL     1      -3.704   7.784 130.449  0.00  0.00    +0.000 C 
ATOM     20  C   UNL     1      -2.846   6.782 129.697  0.00  0.00    +0.000 C 
ATOM     21  C   UNL     1      -3.694   5.967 128.727  0.00  0.00    +0.000 C 
ATOM     22  C   UNL     1      -4.886   5.335 129.432  0.00  0.00    +0.000 C 
ENDBRANCH  16  17
ENDBRANCH  15  16
ENDBRANCH   1  15
TORSDOF 6
ENDMDL
MODEL 7
REMARK VINA RESULT:      -6.7      3.557      6.213
REMARK  Name = Cycrimine
REMARK  6 active torsions:
REMARK  status: ('A' for Active; 'I' for Inactive)
REMARK    1  A    between atoms: O_1  and  C_2
REMARK    2  A    between atoms: C_2  and  C_3
REMARK    3  A    between atoms: C_2  and  C_11
REMARK    4  A    between atoms: C_2  and  C_16
REMARK    5  A    between atoms: C_3  and  C_4
REMARK    6  A    between atoms: C_4  and  N_5
REMARK                            x       y       z     vdW  Elec       q    Type
REMARK                         _______ _______ _______ _____ _____    ______ ____
ROOT
ATOM      1  C   UNL     1      -7.085   3.180 123.583  0.00  0.00    +0.000 C 
ENDROOT
BRANCH   1   2
ATOM      2  C   UNL     1      -6.429   3.710 122.301  0.00  0.00    +0.000 A 
ATOM      3  C   UNL     1      -5.184   4.362 122.280  0.00  0.00    +0.000 A 
ATOM      4  C   UNL     1      -4.707   4.946 121.101  0.00  0.00    +0.000 A 
ATOM      5  C   UNL     1      -5.458   4.893 119.937  0.00  0.00    +0.000 A 
ATOM      6  C   UNL     1      -6.689   4.247 119.930  0.00  0.00    +0.000 A 
ATOM      7  C   UNL     1      -7.142   3.630 121.094  0.00  0.00    +0.000 A 
ENDBRANCH   1   2
BRANCH   1   8
ATOM      8  C   UNL     1      -7.909   1.881 123.372  0.00  0.00    +0.000 C 
ATOM      9  C   UNL     1      -7.117   0.568 123.431  0.00  0.00    +0.000 C 
ATOM     10  C   UNL     1      -8.182  -0.490 123.644  0.00  0.00    +0.000 C 
ATOM     11  C   UNL     1      -9.306   0.199 124.411  0.00  0.00    +0.000 C 
ATOM     12  C   UNL     1      -8.965   1.679 124.456  0.00  0.00    +0.000 C 
ENDBRANCH   1   8
BRANCH   1  13
ATOM     13  O   UNL     1      -7.939   4.209 124.099  0.00  0.00    +0.000 OA
ATOM     14  H   UNL     1      -8.583   4.442 123.412  0.00  0.00    +0.000 HD
ENDBRANCH   1  13
BRANCH   1  15
ATOM     15  C   UNL     1      -6.012   2.882 124.637  0.00  0.00    +0.000 C 
BRANCH  15  16
ATOM     16  C   UNL     1      -6.100   3.674 125.944  0.00  0.00    +0.000 C 
BRANCH  16  17
ATOM     17  N   UNL     1      -4.906   3.616 126.804  0.00  0.00    +0.000 NA
ATOM     18  C   UNL     1      -3.648   3.734 126.062  0.00  0.00    +0.000 C 
ATOM     19  C   UNL     1      -2.446   3.607 126.973  0.00  0.00    +0.000 C 
ATOM     20  C   UNL     1      -2.503   4.664 128.062  0.00  0.00    +0.000 C 
ATOM     21  C   UNL     1      -3.837   4.607 128.798  0.00  0.00    +0.000 C 
ATOM     22  C   UNL     1      -5.008   4.673 127.827  0.00  0.00    +0.000 C 
ENDBRANCH  16  17
ENDBRANCH  15  16
ENDBRANCH   1  15
TORSDOF 6
ENDMDL
MODEL 8
REMARK VINA RESULT:      -6.4      1.900      4.024
REMARK  Name = Cycrimine
REMARK  6 active torsions:
REMARK  status: ('A' for Active; 'I' for Inactive)
REMARK    1  A    between atoms: O_1  and  C_2
REMARK    2  A    between atoms: C_2  and  C_3
REMARK    3  A    between atoms: C_2  and  C_11
REMARK    4  A    between atoms: C_2  and  C_16
REMARK    5  A    between atoms: C_3  and  C_4
REMARK    6  A    between atoms: C_4  and  N_5
REMARK                            x       y       z     vdW  Elec       q    Type
REMARK                         _______ _______ _______ _____ _____    ______ ____
ROOT
ATOM      1  C   UNL     1      -6.878  -1.691 126.788  0.00  0.00    +0.000 C 
ENDROOT
BRANCH   1   2
ATOM      2  C   UNL     1      -6.321  -2.391 128.033  0.00  0.00    +0.000 A 
ATOM      3  C   UNL     1      -4.947  -2.547 128.286  0.00  0.00    +0.000 A 
ATOM      4  C   UNL     1      -4.505  -3.319 129.366  0.00  0.00    +0.000 A 
ATOM      5  C   UNL     1      -5.417  -3.943 130.203  0.00  0.00    +0.000 A 
ATOM      6  C   UNL     1      -6.782  -3.798 129.980  0.00  0.00    +0.000 A 
ATOM      7  C   UNL     1      -7.218  -2.996 128.928  0.00  0.00    +0.000 A 
ENDBRANCH   1   2
BRANCH   1   8
ATOM      8  C   UNL     1      -7.545  -2.658 125.772  0.00  0.00    +0.000 C 
ATOM      9  C   UNL     1      -9.079  -2.629 125.728  0.00  0.00    +0.000 C 
ATOM     10  C   UNL     1      -9.416  -3.290 124.405  0.00  0.00    +0.000 C 
ATOM     11  C   UNL     1      -8.242  -2.992 123.478  0.00  0.00    +0.000 C 
ATOM     12  C   UNL     1      -7.165  -2.339 124.329  0.00  0.00    +0.000 C 
ENDBRANCH   1   8
BRANCH   1  13
ATOM     13  O   UNL     1      -5.798  -0.999 126.150  0.00  0.00    +0.000 OA
ATOM     14  H   UNL     1      -4.990  -1.157 126.665  0.00  0.00    +0.000 HD
ENDBRANCH   1  13
BRANCH   1  15
ATOM     15  C   UNL     1      -7.929  -0.651 127.197  0.00  0.00    +0.000 C 
BRANCH  15  16
ATOM     16  C   UNL     1      -7.749   0.760 126.633  0.00  0.00    +0.000 C 
BRANCH  16  17
ATOM     17  N   UNL     1      -8.021   0.908 125.193  0.00  0.00    +0.000 NA
ATOM     18  C   UNL     1      -9.451   0.936 124.871  0.00  0.00    +0.000 C 
ATOM     19  C   UNL     1      -9.687   1.026 123.379  0.00  0.00    +0.000 C 
ATOM     20  C   UNL     1      -9.008   2.263 122.817  0.00  0.00    +0.000 C 
ATOM     21  C   UNL     1      -7.534   2.291 123.205  0.00  0.00    +0.000 C 
ATOM     22  C   UNL     1      -7.355   2.131 124.708  0.00  0.00    +0.000 C 
ENDBRANCH  16  17
ENDBRANCH  15  16
ENDBRANCH   1  15
TORSDOF 6
ENDMDL
MODEL 9
REMARK VINA RESULT:      -6.4      2.145      4.466
REMARK  Name = Cycrimine
REMARK  6 active torsions:
REMARK  status: ('A' for Active; 'I' for Inactive)
REMARK    1  A    between atoms: O_1  and  C_2
REMARK    2  A    between atoms: C_2  and  C_3
REMARK    3  A    between atoms: C_2  and  C_11
REMARK    4  A    between atoms: C_2  and  C_16
REMARK    5  A    between atoms: C_3  and  C_4
REMARK    6  A    between atoms: C_4  and  N_5
REMARK                            x       y       z     vdW  Elec       q    Type
REMARK                         _______ _______ _______ _____ _____    ______ ____
ROOT
ATOM      1  C   UNL     1      -6.209  -1.046 126.306  0.00  0.00    +0.000 C 
ENDROOT
BRANCH   1   2
ATOM      2  C   UNL     1      -7.129  -2.118 126.904  0.00  0.00    +0.000 A 
ATOM      3  C   UNL     1      -8.294  -2.583 126.268  0.00  0.00    +0.000 A 
ATOM      4  C   UNL     1      -9.165  -3.456 126.929  0.00  0.00    +0.000 A 
ATOM      5  C   UNL     1      -8.892  -3.874 128.223  0.00  0.00    +0.000 A 
ATOM      6  C   UNL     1      -7.743  -3.435 128.871  0.00  0.00    +0.000 A 
ATOM      7  C   UNL     1      -6.857  -2.599 128.195  0.00  0.00    +0.000 A 
ENDBRANCH   1   2
BRANCH   1   8
ATOM      8  C   UNL     1      -5.584  -1.449 124.942  0.00  0.00    +0.000 C 
ATOM      9  C   UNL     1      -5.329  -2.948 124.740  0.00  0.00    +0.000 C 
ATOM     10  C   UNL     1      -5.161  -3.088 123.238  0.00  0.00    +0.000 C 
ATOM     11  C   UNL     1      -6.009  -1.982 122.620  0.00  0.00    +0.000 C 
ATOM     12  C   UNL     1      -6.491  -1.105 123.764  0.00  0.00    +0.000 C 
ENDBRANCH   1   8
BRANCH   1  13
ATOM     13  O   UNL     1      -5.164  -0.785 127.251  0.00  0.00    +0.000 OA
ATOM     14  H   UNL     1      -5.303  -1.357 128.024  0.00  0.00    +0.000 HD
ENDBRANCH   1  13
BRANCH   1  15
ATOM     15  C   UNL     1      -6.990   0.257 126.093  0.00  0.00    +0.000 C 
BRANCH  15  16
ATOM     16  C   UNL     1      -6.933   1.281 127.228  0.00  0.00    +0.000 C 
BRANCH  16  17
ATOM     17  N   UNL     1      -6.099   2.467 126.972  0.00  0.00    +0.000 NA
ATOM     18  C   UNL     1      -4.899   2.528 127.812  0.00  0.00    +0.000 C 
ATOM     19  C   UNL     1      -4.104   3.791 127.563  0.00  0.00    +0.000 C 
ATOM     20  C   UNL     1      -3.712   3.881 126.099  0.00  0.00    +0.000 C 
ATOM     21  C   UNL     1      -4.939   3.744 125.204  0.00  0.00    +0.000 C 
ATOM     22  C   UNL     1      -5.735   2.492 125.543  0.00  0.00    +0.000 C 
ENDBRANCH  16  17
ENDBRANCH  15  16
ENDBRANCH   1  15
TORSDOF 6
ENDMDL
