MODEL 1
REMARK VINA RESULT:      -8.0      0.000      0.000
REMARK  Name = Cyproterone acetate
REMARK  7 active torsions:
REMARK  status: ('A' for Active; 'I' for Inactive)
REMARK    1  A    between atoms: C_6  and  C_7
REMARK    2  A    between atoms: C_21  and  O_22
REMARK    3  A    between atoms: C_21  and  C_26
REMARK    4  A    between atoms: O_22  and  C_23
REMARK    5  A    between atoms: C_23  and  C_24
REMARK    6  A    between atoms: C_26  and  C_27
REMARK    7  A    between atoms: C_29  and  C_30
REMARK                            x       y       z     vdW  Elec       q    Type
REMARK                         _______ _______ _______ _____ _____    ______ ____
ROOT
ATOM      1  C   UNL     1      -7.245  -2.941 124.156  0.00  0.00    +0.000 C 
ATOM      2  C   UNL     1      -8.496  -3.452 124.142  0.00  0.00    +0.000 C 
ATOM      3  C   UNL     1      -7.940  -1.697 124.861  0.00  0.00    +0.000 C 
ATOM      4  C   UNL     1      -6.701  -0.726 126.186  0.00  0.00    +0.000 C 
ATOM      5  C   UNL     1      -5.289   0.251 125.983  0.00  0.00    +0.000 C 
ATOM      6  C   UNL     1      -6.126  -1.981 125.797  0.00  0.00    +0.000 C 
ATOM      7  C   UNL     1      -5.569  -1.753 124.467  0.00  0.00    +0.000 C 
ATOM      8  C   UNL     1      -6.344  -2.280 123.290  0.00  0.00    +0.000 C 
ATOM      9  O   UNL     1      -6.527  -1.909 122.196  0.00  0.00    +0.000 OA
ATOM     10  C   UNL     1      -7.381  -2.830 126.773  0.00  0.00    +0.000 C 
ATOM     11 CL   UNL     1      -9.357  -3.108 126.528  0.00  0.00    +0.000 Cl
ATOM     12  C   UNL     1      -7.646  -2.365 128.000  0.00  0.00    +0.000 C 
ATOM     13  C   UNL     1      -6.776  -1.589 128.813  0.00  0.00    +0.000 C 
ATOM     14  C   UNL     1      -6.272  -2.631 129.788  0.00  0.00    +0.000 C 
ATOM     15  C   UNL     1      -7.564  -3.147 130.398  0.00  0.00    +0.000 C 
ATOM     16  C   UNL     1      -6.907  -3.391 131.664  0.00  0.00    +0.000 C 
ATOM     17  C   UNL     1      -6.504  -1.512 131.852  0.00  0.00    +0.000 C 
ATOM     18  C   UNL     1      -5.405  -2.015 130.943  0.00  0.00    +0.000 C 
ATOM     19  C   UNL     1      -4.617  -2.881 132.082  0.00  0.00    +0.000 C 
ATOM     20  C   UNL     1      -4.295  -1.258 130.201  0.00  0.00    +0.000 C 
ATOM     21  C   UNL     1      -4.743  -0.362 128.940  0.00  0.00    +0.000 C 
ATOM     22  C   UNL     1      -5.799  -1.151 127.831  0.00  0.00    +0.000 C 
ENDROOT
BRANCH  17  23
ATOM     23  C   UNL     1      -7.828  -1.319 132.587  0.00  0.00    +0.000 C 
ATOM     24  C   UNL     1      -8.752  -0.355 131.992  0.00  0.00    +0.000 C 
ATOM     25  O   UNL     1      -8.141  -1.820 133.658  0.00  0.00    +0.000 OA
ENDBRANCH  17  23
BRANCH  17  26
ATOM     26  O   UNL     1      -5.772  -0.545 132.811  0.00  0.00    +0.000 OA
BRANCH  26  27
ATOM     27  C   UNL     1      -5.756   0.864 132.964  0.00  0.00    +0.000 C 
ATOM     28  C   UNL     1      -5.592   1.850 131.810  0.00  0.00    +0.000 C 
ATOM     29  O   UNL     1      -6.011   1.368 134.067  0.00  0.00    +0.000 OA
ENDBRANCH  26  27
ENDBRANCH  17  26
TORSDOF 3
ENDMDL
MODEL 2
REMARK VINA RESULT:      -7.9      3.942      5.551
REMARK  Name = Cyproterone acetate
REMARK  7 active torsions:
REMARK  status: ('A' for Active; 'I' for Inactive)
REMARK    1  A    between atoms: C_6  and  C_7
REMARK    2  A    between atoms: C_21  and  O_22
REMARK    3  A    between atoms: C_21  and  C_26
REMARK    4  A    between atoms: O_22  and  C_23
REMARK    5  A    between atoms: C_23  and  C_24
REMARK    6  A    between atoms: C_26  and  C_27
REMARK    7  A    between atoms: C_29  and  C_30
REMARK                            x       y       z     vdW  Elec       q    Type
REMARK                         _______ _______ _______ _____ _____    ______ ____
ROOT
ATOM      1  C   UNL     1      -8.245  -2.234 124.946  0.00  0.00    +0.000 C 
ATOM      2  C   UNL     1      -8.425  -2.958 126.073  0.00  0.00    +0.000 C 
ATOM      3  C   UNL     1      -9.033  -1.107 125.743  0.00  0.00    +0.000 C 
ATOM      4  C   UNL     1      -8.453   0.799 125.228  0.00  0.00    +0.000 C 
ATOM      5  C   UNL     1      -8.656   1.749 123.798  0.00  0.00    +0.000 C 
ATOM      6  C   UNL     1      -7.532  -0.161 124.693  0.00  0.00    +0.000 C 
ATOM      7  C   UNL     1      -8.199  -0.722 123.522  0.00  0.00    +0.000 C 
ATOM      8  C   UNL     1      -8.812  -2.089 123.659  0.00  0.00    +0.000 C 
ATOM      9  O   UNL     1      -9.765  -2.607 123.221  0.00  0.00    +0.000 OA
ATOM     10  C   UNL     1      -6.921  -0.467 126.361  0.00  0.00    +0.000 C 
ATOM     11 CL   UNL     1      -7.707  -1.391 127.965  0.00  0.00    +0.000 Cl
ATOM     12  C   UNL     1      -6.680   0.590 127.148  0.00  0.00    +0.000 C 
ATOM     13  C   UNL     1      -6.405   1.916 126.716  0.00  0.00    +0.000 C 
ATOM     14  C   UNL     1      -4.905   1.984 126.901  0.00  0.00    +0.000 C 
ATOM     15  C   UNL     1      -4.752   1.656 128.376  0.00  0.00    +0.000 C 
ATOM     16  C   UNL     1      -3.590   2.514 128.478  0.00  0.00    +0.000 C 
ATOM     17  C   UNL     1      -4.648   4.055 127.998  0.00  0.00    +0.000 C 
ATOM     18  C   UNL     1      -4.327   3.424 126.662  0.00  0.00    +0.000 C 
ATOM     19  C   UNL     1      -2.739   3.804 126.664  0.00  0.00    +0.000 C 
ATOM     20  C   UNL     1      -4.804   3.778 125.247  0.00  0.00    +0.000 C 
ATOM     21  C   UNL     1      -6.336   3.436 124.888  0.00  0.00    +0.000 C 
ATOM     22  C   UNL     1      -6.847   1.852 125.333  0.00  0.00    +0.000 C 
ENDROOT
BRANCH  17  23
ATOM     23  C   UNL     1      -4.942   4.293 129.478  0.00  0.00    +0.000 C 
ATOM     24  C   UNL     1      -6.347   4.505 129.821  0.00  0.00    +0.000 C 
ATOM     25  O   UNL     1      -4.114   4.412 130.370  0.00  0.00    +0.000 OA
ENDBRANCH  17  23
BRANCH  17  26
ATOM     26  O   UNL     1      -4.487   5.570 127.735  0.00  0.00    +0.000 OA
BRANCH  26  27
ATOM     27  C   UNL     1      -3.750   6.606 128.363  0.00  0.00    +0.000 C 
ATOM     28  C   UNL     1      -2.239   6.782 128.236  0.00  0.00    +0.000 C 
ATOM     29  O   UNL     1      -4.347   7.514 128.959  0.00  0.00    +0.000 OA
ENDBRANCH  26  27
ENDBRANCH  17  26
TORSDOF 3
ENDMDL
MODEL 3
REMARK VINA RESULT:      -7.7      2.277      4.108
REMARK  Name = Cyproterone acetate
REMARK  7 active torsions:
REMARK  status: ('A' for Active; 'I' for Inactive)
REMARK    1  A    between atoms: C_6  and  C_7
REMARK    2  A    between atoms: C_21  and  O_22
REMARK    3  A    between atoms: C_21  and  C_26
REMARK    4  A    between atoms: O_22  and  C_23
REMARK    5  A    between atoms: C_23  and  C_24
REMARK    6  A    between atoms: C_26  and  C_27
REMARK    7  A    between atoms: C_29  and  C_30
REMARK                            x       y       z     vdW  Elec       q    Type
REMARK                         _______ _______ _______ _____ _____    ______ ____
ROOT
ATOM      1  C   UNL     1      -8.202   0.599 124.574  0.00  0.00    +0.000 C 
ATOM      2  C   UNL     1      -7.129   1.261 124.088  0.00  0.00    +0.000 C 
ATOM      3  C   UNL     1      -7.214  -0.646 124.598  0.00  0.00    +0.000 C 
ATOM      4  C   UNL     1      -7.632  -1.977 126.110  0.00  0.00    +0.000 C 
ATOM      5  C   UNL     1      -8.936  -3.079 126.386  0.00  0.00    +0.000 C 
ATOM      6  C   UNL     1      -8.364  -0.759 126.305  0.00  0.00    +0.000 C 
ATOM      7  C   UNL     1      -9.484  -0.829 125.370  0.00  0.00    +0.000 C 
ATOM      8  C   UNL     1      -9.387  -0.016 124.108  0.00  0.00    +0.000 C 
ATOM      9  O   UNL     1      -9.740  -0.172 123.005  0.00  0.00    +0.000 OA
ATOM     10  C   UNL     1      -6.823   0.067 126.740  0.00  0.00    +0.000 C 
ATOM     11 CL   UNL     1      -5.217   0.633 125.670  0.00  0.00    +0.000 Cl
ATOM     12  C   UNL     1      -5.985  -0.560 127.576  0.00  0.00    +0.000 C 
ATOM     13  C   UNL     1      -6.333  -1.567 128.517  0.00  0.00    +0.000 C 
ATOM     14  C   UNL     1      -6.339  -0.778 129.808  0.00  0.00    +0.000 C 
ATOM     15  C   UNL     1      -4.931  -0.210 129.841  0.00  0.00    +0.000 C 
ATOM     16  C   UNL     1      -4.906  -0.269 131.287  0.00  0.00    +0.000 C 
ATOM     17  C   UNL     1      -5.108  -2.188 131.242  0.00  0.00    +0.000 C 
ATOM     18  C   UNL     1      -6.525  -1.685 131.075  0.00  0.00    +0.000 C 
ATOM     19  C   UNL     1      -6.696  -1.132 132.603  0.00  0.00    +0.000 C 
ATOM     20  C   UNL     1      -7.830  -2.442 130.794  0.00  0.00    +0.000 C 
ATOM     21  C   UNL     1      -8.014  -3.048 129.313  0.00  0.00    +0.000 C 
ATOM     22  C   UNL     1      -7.646  -1.955 128.033  0.00  0.00    +0.000 C 
ENDROOT
BRANCH  17  23
ATOM     23  C   UNL     1      -3.588  -2.331 131.220  0.00  0.00    +0.000 C 
ATOM     24  C   UNL     1      -3.013  -2.814 129.967  0.00  0.00    +0.000 C 
ATOM     25  O   UNL     1      -2.833  -2.169 132.168  0.00  0.00    +0.000 OA
ENDBRANCH  17  23
BRANCH  17  26
ATOM     26  O   UNL     1      -5.258  -3.389 132.205  0.00  0.00    +0.000 OA
BRANCH  26  27
ATOM     27  C   UNL     1      -5.270  -4.795 132.030  0.00  0.00    +0.000 C 
ATOM     28  C   UNL     1      -5.636  -5.494 130.722  0.00  0.00    +0.000 C 
ATOM     29  O   UNL     1      -4.845  -5.534 132.930  0.00  0.00    +0.000 OA
ENDBRANCH  26  27
ENDBRANCH  17  26
TORSDOF 3
ENDMDL
MODEL 4
REMARK VINA RESULT:      -7.6      2.180      4.123
REMARK  Name = Cyproterone acetate
REMARK  7 active torsions:
REMARK  status: ('A' for Active; 'I' for Inactive)
REMARK    1  A    between atoms: C_6  and  C_7
REMARK    2  A    between atoms: C_21  and  O_22
REMARK    3  A    between atoms: C_21  and  C_26
REMARK    4  A    between atoms: O_22  and  C_23
REMARK    5  A    between atoms: C_23  and  C_24
REMARK    6  A    between atoms: C_26  and  C_27
REMARK    7  A    between atoms: C_29  and  C_30
REMARK                            x       y       z     vdW  Elec       q    Type
REMARK                         _______ _______ _______ _____ _____    ______ ____
ROOT
ATOM      1  C   UNL     1      -8.141  -2.130 125.197  0.00  0.00    +0.000 C 
ATOM      2  C   UNL     1      -7.556  -1.307 124.298  0.00  0.00    +0.000 C 
ATOM      3  C   UNL     1      -6.761  -1.987 125.974  0.00  0.00    +0.000 C 
ATOM      4  C   UNL     1      -6.972  -2.115 128.017  0.00  0.00    +0.000 C 
ATOM      5  C   UNL     1      -7.373  -3.416 129.083  0.00  0.00    +0.000 C 
ATOM      6  C   UNL     1      -8.256  -1.974 127.394  0.00  0.00    +0.000 C 
ATOM      7  C   UNL     1      -8.573  -3.296 126.861  0.00  0.00    +0.000 C 
ATOM      8  C   UNL     1      -8.403  -3.507 125.381  0.00  0.00    +0.000 C 
ATOM      9  O   UNL     1      -8.066  -4.408 124.716  0.00  0.00    +0.000 OA
ATOM     10  C   UNL     1      -7.853  -0.259 127.011  0.00  0.00    +0.000 C 
ATOM     11 CL   UNL     1      -6.585   0.596 125.707  0.00  0.00    +0.000 Cl
ATOM     12  C   UNL     1      -7.292   0.486 127.972  0.00  0.00    +0.000 C 
ATOM     13  C   UNL     1      -7.382   0.261 129.373  0.00  0.00    +0.000 C 
ATOM     14  C   UNL     1      -8.411   1.295 129.774  0.00  0.00    +0.000 C 
ATOM     15  C   UNL     1      -7.773   2.584 129.287  0.00  0.00    +0.000 C 
ATOM     16  C   UNL     1      -8.369   3.328 130.377  0.00  0.00    +0.000 C 
ATOM     17  C   UNL     1      -7.400   2.271 131.669  0.00  0.00    +0.000 C 
ATOM     18  C   UNL     1      -8.591   1.402 131.330  0.00  0.00    +0.000 C 
ATOM     19  C   UNL     1      -9.706   2.332 132.079  0.00  0.00    +0.000 C 
ATOM     20  C   UNL     1      -8.939  -0.031 131.756  0.00  0.00    +0.000 C 
ATOM     21  C   UNL     1      -8.061  -1.216 131.108  0.00  0.00    +0.000 C 
ATOM     22  C   UNL     1      -7.854  -1.113 129.402  0.00  0.00    +0.000 C 
ENDROOT
BRANCH  17  23
ATOM     23  C   UNL     1      -6.258   3.282 131.616  0.00  0.00    +0.000 C 
ATOM     24  C   UNL     1      -4.996   2.789 131.067  0.00  0.00    +0.000 C 
ATOM     25  O   UNL     1      -6.276   4.418 132.068  0.00  0.00    +0.000 OA
ENDBRANCH  17  23
BRANCH  17  26
ATOM     26  O   UNL     1      -7.253   2.109 133.200  0.00  0.00    +0.000 OA
BRANCH  26  27
ATOM     27  C   UNL     1      -6.356   1.394 134.032  0.00  0.00    +0.000 C 
ATOM     28  C   UNL     1      -5.310   2.051 134.930  0.00  0.00    +0.000 C 
ATOM     29  O   UNL     1      -6.478   0.167 134.162  0.00  0.00    +0.000 OA
ENDBRANCH  26  27
ENDBRANCH  17  26
TORSDOF 3
ENDMDL
MODEL 5
REMARK VINA RESULT:      -7.5      2.341      3.110
REMARK  Name = Cyproterone acetate
REMARK  7 active torsions:
REMARK  status: ('A' for Active; 'I' for Inactive)
REMARK    1  A    between atoms: C_6  and  C_7
REMARK    2  A    between atoms: C_21  and  O_22
REMARK    3  A    between atoms: C_21  and  C_26
REMARK    4  A    between atoms: O_22  and  C_23
REMARK    5  A    between atoms: C_23  and  C_24
REMARK    6  A    between atoms: C_26  and  C_27
REMARK    7  A    between atoms: C_29  and  C_30
REMARK                            x       y       z     vdW  Elec       q    Type
REMARK                         _______ _______ _______ _____ _____    ______ ____
ROOT
ATOM      1  C   UNL     1      -7.879  -2.859 124.501  0.00  0.00    +0.000 C 
ATOM      2  C   UNL     1      -8.217  -4.035 125.076  0.00  0.00    +0.000 C 
ATOM      3  C   UNL     1      -9.147  -2.303 125.283  0.00  0.00    +0.000 C 
ATOM      4  C   UNL     1      -8.949  -0.332 125.837  0.00  0.00    +0.000 C 
ATOM      5  C   UNL     1      -8.921   1.149 124.945  0.00  0.00    +0.000 C 
ATOM      6  C   UNL     1      -7.689  -0.850 125.391  0.00  0.00    +0.000 C 
ATOM      7  C   UNL     1      -7.773  -0.864 123.933  0.00  0.00    +0.000 C 
ATOM      8  C   UNL     1      -8.020  -2.189 123.264  0.00  0.00    +0.000 C 
ATOM      9  O   UNL     1      -8.611  -2.529 122.315  0.00  0.00    +0.000 OA
ATOM     10  C   UNL     1      -7.590  -1.835 126.897  0.00  0.00    +0.000 C 
ATOM     11 CL   UNL     1      -8.580  -3.460 127.544  0.00  0.00    +0.000 Cl
ATOM     12  C   UNL     1      -7.898  -1.243 128.059  0.00  0.00    +0.000 C 
ATOM     13  C   UNL     1      -7.854   0.151 128.331  0.00  0.00    +0.000 C 
ATOM     14  C   UNL     1      -6.565   0.260 129.117  0.00  0.00    +0.000 C 
ATOM     15  C   UNL     1      -6.814  -0.696 130.270  0.00  0.00    +0.000 C 
ATOM     16  C   UNL     1      -6.013   0.117 131.160  0.00  0.00    +0.000 C 
ATOM     17  C   UNL     1      -7.223   1.605 130.939  0.00  0.00    +0.000 C 
ATOM     18  C   UNL     1      -6.337   1.692 129.717  0.00  0.00    +0.000 C 
ATOM     19  C   UNL     1      -4.990   2.169 130.509  0.00  0.00    +0.000 C 
ATOM     20  C   UNL     1      -6.408   2.616 128.493  0.00  0.00    +0.000 C 
ATOM     21  C   UNL     1      -7.599   2.342 127.443  0.00  0.00    +0.000 C 
ATOM     22  C   UNL     1      -7.795   0.693 126.985  0.00  0.00    +0.000 C 
ENDROOT
BRANCH  17  23
ATOM     23  C   UNL     1      -8.028   1.106 132.137  0.00  0.00    +0.000 C 
ATOM     24  C   UNL     1      -9.387   0.654 131.846  0.00  0.00    +0.000 C 
ATOM     25  O   UNL     1      -7.677   1.136 133.308  0.00  0.00    +0.000 OA
ENDBRANCH  17  23
BRANCH  17  26
ATOM     26  O   UNL     1      -7.386   3.078 131.379  0.00  0.00    +0.000 OA
BRANCH  26  27
ATOM     27  C   UNL     1      -8.460   4.002 131.347  0.00  0.00    +0.000 C 
ATOM     28  C   UNL     1      -9.398   4.186 130.156  0.00  0.00    +0.000 C 
ATOM     29  O   UNL     1      -8.768   4.628 132.372  0.00  0.00    +0.000 OA
ENDBRANCH  26  27
ENDBRANCH  17  26
TORSDOF 3
ENDMDL
MODEL 6
REMARK VINA RESULT:      -7.5      3.768      7.512
REMARK  Name = Cyproterone acetate
REMARK  7 active torsions:
REMARK  status: ('A' for Active; 'I' for Inactive)
REMARK    1  A    between atoms: C_6  and  C_7
REMARK    2  A    between atoms: C_21  and  O_22
REMARK    3  A    between atoms: C_21  and  C_26
REMARK    4  A    between atoms: O_22  and  C_23
REMARK    5  A    between atoms: C_23  and  C_24
REMARK    6  A    between atoms: C_26  and  C_27
REMARK    7  A    between atoms: C_29  and  C_30
REMARK                            x       y       z     vdW  Elec       q    Type
REMARK                         _______ _______ _______ _____ _____    ______ ____
ROOT
ATOM      1  C   UNL     1      -3.584   4.758 128.046  0.00  0.00    +0.000 C 
ATOM      2  C   UNL     1      -4.111   5.807 127.376  0.00  0.00    +0.000 C 
ATOM      3  C   UNL     1      -5.097   4.459 128.431  0.00  0.00    +0.000 C 
ATOM      4  C   UNL     1      -5.483   2.453 128.676  0.00  0.00    +0.000 C 
ATOM      5  C   UNL     1      -5.009   1.296 129.872  0.00  0.00    +0.000 C 
ATOM      6  C   UNL     1      -4.197   2.640 128.069  0.00  0.00    +0.000 C 
ATOM      7  C   UNL     1      -3.309   3.027 129.161  0.00  0.00    +0.000 C 
ATOM      8  C   UNL     1      -2.942   4.482 129.275  0.00  0.00    +0.000 C 
ATOM      9  O   UNL     1      -2.739   5.207 130.169  0.00  0.00    +0.000 OA
ATOM     10  C   UNL     1      -5.019   3.153 126.549  0.00  0.00    +0.000 C 
ATOM     11 CL   UNL     1      -6.044   4.804 126.031  0.00  0.00    +0.000 Cl
ATOM     12  C   UNL     1      -6.060   2.429 126.120  0.00  0.00    +0.000 C 
ATOM     13  C   UNL     1      -6.327   1.069 126.434  0.00  0.00    +0.000 C 
ATOM     14  C   UNL     1      -5.879   0.377 125.166  0.00  0.00    +0.000 C 
ATOM     15  C   UNL     1      -6.735   1.058 124.112  0.00  0.00    +0.000 C 
ATOM     16  C   UNL     1      -6.783  -0.154 123.322  0.00  0.00    +0.000 C 
ATOM     17  C   UNL     1      -7.681  -1.088 124.753  0.00  0.00    +0.000 C 
ATOM     18  C   UNL     1      -6.224  -1.154 125.153  0.00  0.00    +0.000 C 
ATOM     19  C   UNL     1      -5.768  -2.204 123.988  0.00  0.00    +0.000 C 
ATOM     20  C   UNL     1      -5.560  -1.688 126.430  0.00  0.00    +0.000 C 
ATOM     21  C   UNL     1      -5.748  -0.812 127.769  0.00  0.00    +0.000 C 
ATOM     22  C   UNL     1      -5.452   0.874 127.577  0.00  0.00    +0.000 C 
ENDROOT
BRANCH  17  23
ATOM     23  C   UNL     1      -9.024  -0.663 124.165  0.00  0.00    +0.000 C 
ATOM     24  C   UNL     1      -9.750   0.363 124.912  0.00  0.00    +0.000 C 
ATOM     25  O   UNL     1      -9.580  -1.160 123.196  0.00  0.00    +0.000 OA
ENDBRANCH  17  23
BRANCH  17  26
ATOM     26  O   UNL     1      -8.219  -2.496 125.097  0.00  0.00    +0.000 OA
BRANCH  26  27
ATOM     27  C   UNL     1      -9.039  -3.010 126.133  0.00  0.00    +0.000 C 
ATOM     28  C   UNL     1      -8.541  -3.337 127.539  0.00  0.00    +0.000 C 
ATOM     29  O   UNL     1     -10.264  -3.096 125.965  0.00  0.00    +0.000 OA
ENDBRANCH  26  27
ENDBRANCH  17  26
TORSDOF 3
ENDMDL
MODEL 7
REMARK VINA RESULT:      -7.5      3.198      8.004
REMARK  Name = Cyproterone acetate
REMARK  7 active torsions:
REMARK  status: ('A' for Active; 'I' for Inactive)
REMARK    1  A    between atoms: C_6  and  C_7
REMARK    2  A    between atoms: C_21  and  O_22
REMARK    3  A    between atoms: C_21  and  C_26
REMARK    4  A    between atoms: O_22  and  C_23
REMARK    5  A    between atoms: C_23  and  C_24
REMARK    6  A    between atoms: C_26  and  C_27
REMARK    7  A    between atoms: C_29  and  C_30
REMARK                            x       y       z     vdW  Elec       q    Type
REMARK                         _______ _______ _______ _____ _____    ______ ____
ROOT
ATOM      1  C   UNL     1      -8.086   4.336 132.346  0.00  0.00    +0.000 C 
ATOM      2  C   UNL     1      -8.475   5.505 131.789  0.00  0.00    +0.000 C 
ATOM      3  C   UNL     1      -9.376   3.755 131.621  0.00  0.00    +0.000 C 
ATOM      4  C   UNL     1      -9.163   1.789 131.054  0.00  0.00    +0.000 C 
ATOM      5  C   UNL     1      -9.063   0.308 131.941  0.00  0.00    +0.000 C 
ATOM      6  C   UNL     1      -7.894   2.333 131.443  0.00  0.00    +0.000 C 
ATOM      7  C   UNL     1      -7.912   2.343 132.903  0.00  0.00    +0.000 C 
ATOM      8  C   UNL     1      -8.156   3.661 133.586  0.00  0.00    +0.000 C 
ATOM      9  O   UNL     1      -8.710   3.988 134.562  0.00  0.00    +0.000 OA
ATOM     10  C   UNL     1      -7.885   3.321 129.936  0.00  0.00    +0.000 C 
ATOM     11 CL   UNL     1      -8.938   4.927 129.339  0.00  0.00    +0.000 Cl
ATOM     12  C   UNL     1      -8.234   2.725 128.789  0.00  0.00    +0.000 C 
ATOM     13  C   UNL     1      -8.173   1.332 128.512  0.00  0.00    +0.000 C 
ATOM     14  C   UNL     1      -6.920   1.252 127.667  0.00  0.00    +0.000 C 
ATOM     15  C   UNL     1      -7.242   2.204 126.529  0.00  0.00    +0.000 C 
ATOM     16  C   UNL     1      -6.465   1.408 125.601  0.00  0.00    +0.000 C 
ATOM     17  C   UNL     1      -7.632  -0.104 125.874  0.00  0.00    +0.000 C 
ATOM     18  C   UNL     1      -6.689  -0.175 127.055  0.00  0.00    +0.000 C 
ATOM     19  C   UNL     1      -5.371  -0.622 126.200  0.00  0.00    +0.000 C 
ATOM     20  C   UNL     1      -6.685  -1.101 128.278  0.00  0.00    +0.000 C 
ATOM     21  C   UNL     1      -7.832  -0.854 129.382  0.00  0.00    +0.000 C 
ATOM     22  C   UNL     1      -8.041   0.790 129.853  0.00  0.00    +0.000 C 
ENDROOT
BRANCH  17  23
ATOM     23  C   UNL     1      -8.502   0.379 124.716  0.00  0.00    +0.000 C 
ATOM     24  C   UNL     1      -9.829   0.872 125.079  0.00  0.00    +0.000 C 
ATOM     25  O   UNL     1      -8.228   0.306 123.526  0.00  0.00    +0.000 OA
ENDBRANCH  17  23
BRANCH  17  26
ATOM     26  O   UNL     1      -7.784  -1.580 125.438  0.00  0.00    +0.000 OA
BRANCH  26  27
ATOM     27  C   UNL     1      -8.794  -2.559 125.613  0.00  0.00    +0.000 C 
ATOM     28  C   UNL     1      -8.982  -3.380 126.887  0.00  0.00    +0.000 C 
ATOM     29  O   UNL     1      -9.674  -2.699 124.751  0.00  0.00    +0.000 OA
ENDBRANCH  26  27
ENDBRANCH  17  26
TORSDOF 3
ENDMDL
MODEL 8
REMARK VINA RESULT:      -7.4      4.576      6.407
REMARK  Name = Cyproterone acetate
REMARK  7 active torsions:
REMARK  status: ('A' for Active; 'I' for Inactive)
REMARK    1  A    between atoms: C_6  and  C_7
REMARK    2  A    between atoms: C_21  and  O_22
REMARK    3  A    between atoms: C_21  and  C_26
REMARK    4  A    between atoms: O_22  and  C_23
REMARK    5  A    between atoms: C_23  and  C_24
REMARK    6  A    between atoms: C_26  and  C_27
REMARK    7  A    between atoms: C_29  and  C_30
REMARK                            x       y       z     vdW  Elec       q    Type
REMARK                         _______ _______ _______ _____ _____    ______ ____
ROOT
ATOM      1  C   UNL     1      -4.872  -4.089 132.607  0.00  0.00    +0.000 C 
ATOM      2  C   UNL     1      -5.587  -4.886 131.783  0.00  0.00    +0.000 C 
ATOM      3  C   UNL     1      -4.629  -3.230 131.291  0.00  0.00    +0.000 C 
ATOM      4  C   UNL     1      -4.422  -1.218 131.671  0.00  0.00    +0.000 C 
ATOM      5  C   UNL     1      -3.189  -0.282 132.441  0.00  0.00    +0.000 C 
ATOM      6  C   UNL     1      -4.908  -1.895 132.837  0.00  0.00    +0.000 C 
ATOM      7  C   UNL     1      -3.738  -2.548 133.418  0.00  0.00    +0.000 C 
ATOM      8  C   UNL     1      -3.589  -4.029 133.198  0.00  0.00    +0.000 C 
ATOM      9  O   UNL     1      -2.679  -4.745 133.037  0.00  0.00    +0.000 OA
ATOM     10  C   UNL     1      -6.497  -2.117 132.015  0.00  0.00    +0.000 C 
ATOM     11 CL   UNL     1      -7.106  -3.280 130.492  0.00  0.00    +0.000 Cl
ATOM     12  C   UNL     1      -7.021  -1.071 131.364  0.00  0.00    +0.000 C 
ATOM     13  C   UNL     1      -6.733   0.300 131.604  0.00  0.00    +0.000 C 
ATOM     14  C   UNL     1      -7.956   0.728 132.386  0.00  0.00    +0.000 C 
ATOM     15  C   UNL     1      -9.083   0.381 131.429  0.00  0.00    +0.000 C 
ATOM     16  C   UNL     1      -9.876   1.493 131.909  0.00  0.00    +0.000 C 
ATOM     17  C   UNL     1      -8.535   2.746 131.311  0.00  0.00    +0.000 C 
ATOM     18  C   UNL     1      -8.002   2.275 132.646  0.00  0.00    +0.000 C 
ATOM     19  C   UNL     1      -9.121   3.036 133.561  0.00  0.00    +0.000 C 
ATOM     20  C   UNL     1      -6.669   2.566 133.350  0.00  0.00    +0.000 C 
ATOM     21  C   UNL     1      -5.353   1.873 132.733  0.00  0.00    +0.000 C 
ATOM     22  C   UNL     1      -5.515   0.193 132.387  0.00  0.00    +0.000 C 
ENDROOT
BRANCH  17  23
ATOM     23  C   UNL     1      -9.244   2.835 129.962  0.00  0.00    +0.000 C 
ATOM     24  C   UNL     1      -8.526   2.257 128.827  0.00  0.00    +0.000 C 
ATOM     25  O   UNL     1     -10.295   3.417 129.734  0.00  0.00    +0.000 OA
ENDBRANCH  17  23
BRANCH  17  26
ATOM     26  O   UNL     1      -8.243   4.264 131.315  0.00  0.00    +0.000 OA
BRANCH  26  27
ATOM     27  C   UNL     1      -7.281   5.083 130.673  0.00  0.00    +0.000 C 
ATOM     28  C   UNL     1      -5.899   4.602 130.235  0.00  0.00    +0.000 C 
ATOM     29  O   UNL     1      -7.586   6.230 130.315  0.00  0.00    +0.000 OA
ENDBRANCH  26  27
ENDBRANCH  17  26
TORSDOF 3
ENDMDL
MODEL 9
REMARK VINA RESULT:      -7.3      3.633      7.099
REMARK  Name = Cyproterone acetate
REMARK  7 active torsions:
REMARK  status: ('A' for Active; 'I' for Inactive)
REMARK    1  A    between atoms: C_6  and  C_7
REMARK    2  A    between atoms: C_21  and  O_22
REMARK    3  A    between atoms: C_21  and  C_26
REMARK    4  A    between atoms: O_22  and  C_23
REMARK    5  A    between atoms: C_23  and  C_24
REMARK    6  A    between atoms: C_26  and  C_27
REMARK    7  A    between atoms: C_29  and  C_30
REMARK                            x       y       z     vdW  Elec       q    Type
REMARK                         _______ _______ _______ _____ _____    ______ ____
ROOT
ATOM      1  C   UNL     1      -9.296   4.001 132.897  0.00  0.00    +0.000 C 
ATOM      2  C   UNL     1      -8.684   3.846 134.093  0.00  0.00    +0.000 C 
ATOM      3  C   UNL     1      -7.813   3.986 132.324  0.00  0.00    +0.000 C 
ATOM      4  C   UNL     1      -7.691   3.191 130.431  0.00  0.00    +0.000 C 
ATOM      5  C   UNL     1      -8.223   3.744 128.881  0.00  0.00    +0.000 C 
ATOM      6  C   UNL     1      -8.982   2.928 130.996  0.00  0.00    +0.000 C 
ATOM      7  C   UNL     1      -9.719   4.182 130.872  0.00  0.00    +0.000 C 
ATOM      8  C   UNL     1      -9.870   5.025 132.109  0.00  0.00    +0.000 C 
ATOM      9  O   UNL     1      -9.899   6.175 132.319  0.00  0.00    +0.000 OA
ATOM     10  C   UNL     1      -8.221   1.740 132.117  0.00  0.00    +0.000 C 
ATOM     11 CL   UNL     1      -7.022   1.935 133.719  0.00  0.00    +0.000 Cl
ATOM     12  C   UNL     1      -7.327   0.880 131.613  0.00  0.00    +0.000 C 
ATOM     13  C   UNL     1      -7.227   0.469 130.256  0.00  0.00    +0.000 C 
ATOM     14  C   UNL     1      -7.866  -0.901 130.312  0.00  0.00    +0.000 C 
ATOM     15  C   UNL     1      -7.011  -1.609 131.348  0.00  0.00    +0.000 C 
ATOM     16  C   UNL     1      -7.194  -2.879 130.678  0.00  0.00    +0.000 C 
ATOM     17  C   UNL     1      -6.323  -2.204 129.093  0.00  0.00    +0.000 C 
ATOM     18  C   UNL     1      -7.739  -1.688 128.960  0.00  0.00    +0.000 C 
ATOM     19  C   UNL     1      -8.426  -3.138 128.655  0.00  0.00    +0.000 C 
ATOM     20  C   UNL     1      -8.366  -0.742 127.927  0.00  0.00    +0.000 C 
ATOM     21  C   UNL     1      -7.953   0.812 128.017  0.00  0.00    +0.000 C 
ATOM     22  C   UNL     1      -8.027   1.489 129.600  0.00  0.00    +0.000 C 
ENDROOT
BRANCH  17  23
ATOM     23  C   UNL     1      -4.985  -2.696 129.639  0.00  0.00    +0.000 C 
ATOM     24  C   UNL     1      -4.010  -1.657 129.965  0.00  0.00    +0.000 C 
ATOM     25  O   UNL     1      -4.629  -3.861 129.739  0.00  0.00    +0.000 OA
ENDBRANCH  17  23
BRANCH  17  26
ATOM     26  O   UNL     1      -5.959  -2.649 127.658  0.00  0.00    +0.000 OA
BRANCH  26  27
ATOM     27  C   UNL     1      -5.557  -1.960 126.486  0.00  0.00    +0.000 C 
ATOM     28  C   UNL     1      -5.646  -2.541 125.076  0.00  0.00    +0.000 C 
ATOM     29  O   UNL     1      -5.224  -0.768 126.554  0.00  0.00    +0.000 OA
ENDBRANCH  26  27
ENDBRANCH  17  26
TORSDOF 3
ENDMDL
