MODEL 1
REMARK VINA RESULT:      -8.5      0.000      0.000
REMARK  Name = Cyproheptadine
REMARK  1 active torsions:
REMARK  status: ('A' for Active; 'I' for Inactive)
REMARK    1  A    between atoms: C_1  and  N_2
REMARK                            x       y       z     vdW  Elec       q    Type
REMARK                         _______ _______ _______ _____ _____    ______ ____
ROOT
ATOM      1  C   UNL     1      -5.112   3.198 127.659  0.00  0.00    +0.000 C 
ATOM      2  N   UNL     1      -6.320   2.474 128.064  0.00  0.00    +0.000 NA
ATOM      3  C   UNL     1      -6.885   1.721 126.927  0.00  0.00    +0.000 C 
ATOM      4  C   UNL     1      -5.967   0.603 126.427  0.00  0.00    +0.000 C 
ATOM      5  C   UNL     1      -5.636  -0.345 127.561  0.00  0.00    +0.000 C 
ATOM      6  C   UNL     1      -5.093   0.384 128.781  0.00  0.00    +0.000 C 
ATOM      7  C   UNL     1      -6.029   1.541 129.173  0.00  0.00    +0.000 C 
ATOM      8  C   UNL     1      -5.881  -1.677 127.507  0.00  0.00    +0.000 C 
ATOM      9  C   UNL     1      -6.505  -2.300 126.329  0.00  0.00    +0.000 A 
ATOM     10  C   UNL     1      -5.779  -2.354 125.130  0.00  0.00    +0.000 A 
ATOM     11  C   UNL     1      -6.320  -2.987 124.020  0.00  0.00    +0.000 A 
ATOM     12  C   UNL     1      -7.574  -3.587 124.113  0.00  0.00    +0.000 A 
ATOM     13  C   UNL     1      -8.294  -3.553 125.313  0.00  0.00    +0.000 A 
ATOM     14  C   UNL     1      -7.763  -2.922 126.443  0.00  0.00    +0.000 A 
ATOM     15  C   UNL     1      -8.544  -2.912 127.698  0.00  0.00    +0.000 C 
ATOM     16  C   UNL     1      -8.049  -3.055 128.941  0.00  0.00    +0.000 C 
ATOM     17  C   UNL     1      -6.624  -3.244 129.295  0.00  0.00    +0.000 A 
ATOM     18  C   UNL     1      -6.283  -4.125 130.324  0.00  0.00    +0.000 A 
ATOM     19  C   UNL     1      -4.941  -4.327 130.671  0.00  0.00    +0.000 A 
ATOM     20  C   UNL     1      -3.922  -3.652 130.002  0.00  0.00    +0.000 A 
ATOM     21  C   UNL     1      -4.243  -2.770 128.984  0.00  0.00    +0.000 A 
ATOM     22  C   UNL     1      -5.586  -2.551 128.647  0.00  0.00    +0.000 A 
ENDROOT
TORSDOF 0
ENDMDL
MODEL 2
REMARK VINA RESULT:      -8.4      3.857      6.073
REMARK  Name = Cyproheptadine
REMARK  1 active torsions:
REMARK  status: ('A' for Active; 'I' for Inactive)
REMARK    1  A    between atoms: C_1  and  N_2
REMARK                            x       y       z     vdW  Elec       q    Type
REMARK                         _______ _______ _______ _____ _____    ______ ____
ROOT
ATOM      1  C   UNL     1      -4.975   3.184 127.897  0.00  0.00    +0.000 C 
ATOM      2  N   UNL     1      -6.395   3.156 127.532  0.00  0.00    +0.000 NA
ATOM      3  C   UNL     1      -6.636   3.951 126.312  0.00  0.00    +0.000 C 
ATOM      4  C   UNL     1      -5.951   3.375 125.070  0.00  0.00    +0.000 C 
ATOM      5  C   UNL     1      -6.392   1.943 124.848  0.00  0.00    +0.000 C 
ATOM      6  C   UNL     1      -6.211   1.086 126.093  0.00  0.00    +0.000 C 
ATOM      7  C   UNL     1      -6.855   1.769 127.312  0.00  0.00    +0.000 C 
ATOM      8  C   UNL     1      -6.959   1.513 123.696  0.00  0.00    +0.000 C 
ATOM      9  C   UNL     1      -7.199   2.425 122.566  0.00  0.00    +0.000 A 
ATOM     10  C   UNL     1      -6.097   2.939 121.868  0.00  0.00    +0.000 A 
ATOM     11  C   UNL     1      -6.294   3.755 120.763  0.00  0.00    +0.000 A 
ATOM     12  C   UNL     1      -7.591   4.038 120.340  0.00  0.00    +0.000 A 
ATOM     13  C   UNL     1      -8.695   3.512 121.022  0.00  0.00    +0.000 A 
ATOM     14  C   UNL     1      -8.515   2.686 122.135  0.00  0.00    +0.000 A 
ATOM     15  C   UNL     1      -9.700   2.137 122.828  0.00  0.00    +0.000 C 
ATOM     16  C   UNL     1      -9.815   0.900 123.344  0.00  0.00    +0.000 C 
ATOM     17  C   UNL     1      -8.775  -0.152 123.326  0.00  0.00    +0.000 A 
ATOM     18  C   UNL     1      -9.146  -1.481 123.107  0.00  0.00    +0.000 A 
ATOM     19  C   UNL     1      -8.177  -2.494 123.075  0.00  0.00    +0.000 A 
ATOM     20  C   UNL     1      -6.830  -2.197 123.266  0.00  0.00    +0.000 A 
ATOM     21  C   UNL     1      -6.445  -0.886 123.491  0.00  0.00    +0.000 A 
ATOM     22  C   UNL     1      -7.414   0.127 123.542  0.00  0.00    +0.000 A 
ENDROOT
TORSDOF 0
ENDMDL
MODEL 3
REMARK VINA RESULT:      -8.2      2.641      5.083
REMARK  Name = Cyproheptadine
REMARK  1 active torsions:
REMARK  status: ('A' for Active; 'I' for Inactive)
REMARK    1  A    between atoms: C_1  and  N_2
REMARK                            x       y       z     vdW  Elec       q    Type
REMARK                         _______ _______ _______ _____ _____    ______ ____
ROOT
ATOM      1  C   UNL     1      -3.739  -4.022 132.578  0.00  0.00    +0.000 C 
ATOM      2  N   UNL     1      -3.589  -3.070 131.473  0.00  0.00    +0.000 NA
ATOM      3  C   UNL     1      -4.232  -3.585 130.248  0.00  0.00    +0.000 C 
ATOM      4  C   UNL     1      -5.751  -3.725 130.376  0.00  0.00    +0.000 C 
ATOM      5  C   UNL     1      -6.366  -2.396 130.762  0.00  0.00    +0.000 C 
ATOM      6  C   UNL     1      -5.707  -1.793 131.995  0.00  0.00    +0.000 C 
ATOM      7  C   UNL     1      -4.178  -1.761 131.822  0.00  0.00    +0.000 C 
ATOM      8  C   UNL     1      -7.333  -1.789 130.034  0.00  0.00    +0.000 C 
ATOM      9  C   UNL     1      -7.852  -2.384 128.792  0.00  0.00    +0.000 A 
ATOM     10  C   UNL     1      -8.610  -3.560 128.873  0.00  0.00    +0.000 A 
ATOM     11  C   UNL     1      -9.161  -4.111 127.725  0.00  0.00    +0.000 A 
ATOM     12  C   UNL     1      -8.976  -3.475 126.499  0.00  0.00    +0.000 A 
ATOM     13  C   UNL     1      -8.237  -2.289 126.416  0.00  0.00    +0.000 A 
ATOM     14  C   UNL     1      -7.677  -1.718 127.563  0.00  0.00    +0.000 A 
ATOM     15  C   UNL     1      -6.910  -0.459 127.444  0.00  0.00    +0.000 C 
ATOM     16  C   UNL     1      -6.927   0.565 128.315  0.00  0.00    +0.000 C 
ATOM     17  C   UNL     1      -7.710   0.630 129.569  0.00  0.00    +0.000 A 
ATOM     18  C   UNL     1      -8.306   1.836 129.946  0.00  0.00    +0.000 A 
ATOM     19  C   UNL     1      -9.061   1.919 131.124  0.00  0.00    +0.000 A 
ATOM     20  C   UNL     1      -9.228   0.806 131.943  0.00  0.00    +0.000 A 
ATOM     21  C   UNL     1      -8.639  -0.397 131.589  0.00  0.00    +0.000 A 
ATOM     22  C   UNL     1      -7.868  -0.478 130.421  0.00  0.00    +0.000 A 
ENDROOT
TORSDOF 0
ENDMDL
MODEL 4
REMARK VINA RESULT:      -8.2      2.410      3.291
REMARK  Name = Cyproheptadine
REMARK  1 active torsions:
REMARK  status: ('A' for Active; 'I' for Inactive)
REMARK    1  A    between atoms: C_1  and  N_2
REMARK                            x       y       z     vdW  Elec       q    Type
REMARK                         _______ _______ _______ _____ _____    ______ ____
ROOT
ATOM      1  C   UNL     1      -8.642   2.977 123.971  0.00  0.00    +0.000 C 
ATOM      2  N   UNL     1      -9.348   1.693 123.934  0.00  0.00    +0.000 NA
ATOM      3  C   UNL     1      -8.542   0.675 123.232  0.00  0.00    +0.000 C 
ATOM      4  C   UNL     1      -7.239   0.329 123.957  0.00  0.00    +0.000 C 
ATOM      5  C   UNL     1      -7.535  -0.131 125.369  0.00  0.00    +0.000 C 
ATOM      6  C   UNL     1      -8.406   0.861 126.127  0.00  0.00    +0.000 C 
ATOM      7  C   UNL     1      -9.653   1.219 125.300  0.00  0.00    +0.000 C 
ATOM      8  C   UNL     1      -7.133  -1.329 125.856  0.00  0.00    +0.000 C 
ATOM      9  C   UNL     1      -6.379  -2.285 125.030  0.00  0.00    +0.000 A 
ATOM     10  C   UNL     1      -5.068  -1.964 124.654  0.00  0.00    +0.000 A 
ATOM     11  C   UNL     1      -4.313  -2.871 123.924  0.00  0.00    +0.000 A 
ATOM     12  C   UNL     1      -4.859  -4.109 123.590  0.00  0.00    +0.000 A 
ATOM     13  C   UNL     1      -6.162  -4.442 123.980  0.00  0.00    +0.000 A 
ATOM     14  C   UNL     1      -6.935  -3.541 124.718  0.00  0.00    +0.000 A 
ATOM     15  C   UNL     1      -8.304  -3.927 125.124  0.00  0.00    +0.000 C 
ATOM     16  C   UNL     1      -8.890  -3.646 126.302  0.00  0.00    +0.000 C 
ATOM     17  C   UNL     1      -8.283  -2.891 127.420  0.00  0.00    +0.000 A 
ATOM     18  C   UNL     1      -8.521  -3.299 128.734  0.00  0.00    +0.000 A 
ATOM     19  C   UNL     1      -7.949  -2.606 129.809  0.00  0.00    +0.000 A 
ATOM     20  C   UNL     1      -7.138  -1.495 129.590  0.00  0.00    +0.000 A 
ATOM     21  C   UNL     1      -6.896  -1.073 128.293  0.00  0.00    +0.000 A 
ATOM     22  C   UNL     1      -7.482  -1.753 127.217  0.00  0.00    +0.000 A 
ENDROOT
TORSDOF 0
ENDMDL
MODEL 5
REMARK VINA RESULT:      -7.8      2.099      4.888
REMARK  Name = Cyproheptadine
REMARK  1 active torsions:
REMARK  status: ('A' for Active; 'I' for Inactive)
REMARK    1  A    between atoms: C_1  and  N_2
REMARK                            x       y       z     vdW  Elec       q    Type
REMARK                         _______ _______ _______ _____ _____    ______ ____
ROOT
ATOM      1  C   UNL     1      -7.515  -2.933 131.975  0.00  0.00    +0.000 C 
ATOM      2  N   UNL     1      -6.407  -2.867 131.018  0.00  0.00    +0.000 NA
ATOM      3  C   UNL     1      -6.728  -3.626 129.794  0.00  0.00    +0.000 C 
ATOM      4  C   UNL     1      -7.899  -3.035 129.005  0.00  0.00    +0.000 C 
ATOM      5  C   UNL     1      -7.614  -1.589 128.655  0.00  0.00    +0.000 C 
ATOM      6  C   UNL     1      -7.229  -0.767 129.877  0.00  0.00    +0.000 C 
ATOM      7  C   UNL     1      -6.104  -1.465 130.659  0.00  0.00    +0.000 C 
ATOM      8  C   UNL     1      -7.624  -1.119 127.385  0.00  0.00    +0.000 C 
ATOM      9  C   UNL     1      -7.905  -1.999 126.239  0.00  0.00    +0.000 A 
ATOM     10  C   UNL     1      -9.198  -2.518 126.088  0.00  0.00    +0.000 A 
ATOM     11  C   UNL     1      -9.507  -3.302 124.986  0.00  0.00    +0.000 A 
ATOM     12  C   UNL     1      -8.532  -3.548 124.022  0.00  0.00    +0.000 A 
ATOM     13  C   UNL     1      -7.245  -3.016 124.157  0.00  0.00    +0.000 A 
ATOM     14  C   UNL     1      -6.917  -2.220 125.260  0.00  0.00    +0.000 A 
ATOM     15  C   UNL     1      -5.551  -1.664 125.369  0.00  0.00    +0.000 C 
ATOM     16  C   UNL     1      -5.229  -0.438 125.818  0.00  0.00    +0.000 C 
ATOM     17  C   UNL     1      -6.177   0.593 126.297  0.00  0.00    +0.000 A 
ATOM     18  C   UNL     1      -5.953   1.934 125.978  0.00  0.00    +0.000 A 
ATOM     19  C   UNL     1      -6.843   2.926 126.412  0.00  0.00    +0.000 A 
ATOM     20  C   UNL     1      -7.961   2.597 127.174  0.00  0.00    +0.000 A 
ATOM     21  C   UNL     1      -8.195   1.272 127.506  0.00  0.00    +0.000 A 
ATOM     22  C   UNL     1      -7.297   0.280 127.088  0.00  0.00    +0.000 A 
ENDROOT
TORSDOF 0
ENDMDL
MODEL 6
REMARK VINA RESULT:      -7.6      1.387      4.569
REMARK  Name = Cyproheptadine
REMARK  1 active torsions:
REMARK  status: ('A' for Active; 'I' for Inactive)
REMARK    1  A    between atoms: C_1  and  N_2
REMARK                            x       y       z     vdW  Elec       q    Type
REMARK                         _______ _______ _______ _____ _____    ______ ____
ROOT
ATOM      1  C   UNL     1      -8.364   3.526 128.652  0.00  0.00    +0.000 C 
ATOM      2  N   UNL     1      -7.127   2.883 128.200  0.00  0.00    +0.000 NA
ATOM      3  C   UNL     1      -6.646   1.913 129.203  0.00  0.00    +0.000 C 
ATOM      4  C   UNL     1      -7.595   0.729 129.403  0.00  0.00    +0.000 C 
ATOM      5  C   UNL     1      -7.838   0.028 128.082  0.00  0.00    +0.000 C 
ATOM      6  C   UNL     1      -8.290   0.991 126.994  0.00  0.00    +0.000 C 
ATOM      7  C   UNL     1      -7.332   2.192 126.910  0.00  0.00    +0.000 C 
ATOM      8  C   UNL     1      -7.593  -1.291 127.889  0.00  0.00    +0.000 C 
ATOM      9  C   UNL     1      -7.057  -2.142 128.962  0.00  0.00    +0.000 A 
ATOM     10  C   UNL     1      -7.869  -2.424 130.069  0.00  0.00    +0.000 A 
ATOM     11  C   UNL     1      -7.411  -3.271 131.068  0.00  0.00    +0.000 A 
ATOM     12  C   UNL     1      -6.151  -3.856 130.951  0.00  0.00    +0.000 A 
ATOM     13  C   UNL     1      -5.344  -3.592 129.837  0.00  0.00    +0.000 A 
ATOM     14  C   UNL     1      -5.791  -2.744 128.820  0.00  0.00    +0.000 A 
ATOM     15  C   UNL     1      -4.919  -2.494 127.652  0.00  0.00    +0.000 C 
ATOM     16  C   UNL     1      -5.320  -2.382 126.373  0.00  0.00    +0.000 C 
ATOM     17  C   UNL     1      -6.714  -2.480 125.884  0.00  0.00    +0.000 A 
ATOM     18  C   UNL     1      -6.975  -3.136 124.679  0.00  0.00    +0.000 A 
ATOM     19  C   UNL     1      -8.287  -3.250 124.201  0.00  0.00    +0.000 A 
ATOM     20  C   UNL     1      -9.355  -2.709 124.913  0.00  0.00    +0.000 A 
ATOM     21  C   UNL     1      -9.114  -2.050 126.107  0.00  0.00    +0.000 A 
ATOM     22  C   UNL     1      -7.800  -1.918 126.579  0.00  0.00    +0.000 A 
ENDROOT
TORSDOF 0
ENDMDL
MODEL 7
REMARK VINA RESULT:      -7.6      2.090      5.384
REMARK  Name = Cyproheptadine
REMARK  1 active torsions:
REMARK  status: ('A' for Active; 'I' for Inactive)
REMARK    1  A    between atoms: C_1  and  N_2
REMARK                            x       y       z     vdW  Elec       q    Type
REMARK                         _______ _______ _______ _____ _____    ______ ____
ROOT
ATOM      1  C   UNL     1      -6.946  -2.217 130.555  0.00  0.00    +0.000 C 
ATOM      2  N   UNL     1      -7.887  -1.651 129.584  0.00  0.00    +0.000 NA
ATOM      3  C   UNL     1      -7.547  -0.246 129.284  0.00  0.00    +0.000 C 
ATOM      4  C   UNL     1      -6.195  -0.088 128.584  0.00  0.00    +0.000 C 
ATOM      5  C   UNL     1      -6.169  -0.909 127.311  0.00  0.00    +0.000 C 
ATOM      6  C   UNL     1      -6.560  -2.359 127.553  0.00  0.00    +0.000 C 
ATOM      7  C   UNL     1      -7.886  -2.433 128.331  0.00  0.00    +0.000 C 
ATOM      8  C   UNL     1      -5.907  -0.377 126.093  0.00  0.00    +0.000 C 
ATOM      9  C   UNL     1      -5.637   1.059 125.920  0.00  0.00    +0.000 A 
ATOM     10  C   UNL     1      -4.449   1.590 126.440  0.00  0.00    +0.000 A 
ATOM     11  C   UNL     1      -4.141   2.928 126.241  0.00  0.00    +0.000 A 
ATOM     12  C   UNL     1      -5.007   3.731 125.502  0.00  0.00    +0.000 A 
ATOM     13  C   UNL     1      -6.185   3.201 124.963  0.00  0.00    +0.000 A 
ATOM     14  C   UNL     1      -6.510   1.854 125.151  0.00  0.00    +0.000 A 
ATOM     15  C   UNL     1      -7.757   1.322 124.561  0.00  0.00    +0.000 C 
ATOM     16  C   UNL     1      -7.913   0.111 123.997  0.00  0.00    +0.000 C 
ATOM     17  C   UNL     1      -6.869  -0.929 123.862  0.00  0.00    +0.000 A 
ATOM     18  C   UNL     1      -6.805  -1.692 122.694  0.00  0.00    +0.000 A 
ATOM     19  C   UNL     1      -5.819  -2.676 122.539  0.00  0.00    +0.000 A 
ATOM     20  C   UNL     1      -4.888  -2.916 123.547  0.00  0.00    +0.000 A 
ATOM     21  C   UNL     1      -4.941  -2.174 124.715  0.00  0.00    +0.000 A 
ATOM     22  C   UNL     1      -5.937  -1.201 124.880  0.00  0.00    +0.000 A 
ENDROOT
TORSDOF 0
ENDMDL
MODEL 8
REMARK VINA RESULT:      -7.3      6.279      9.582
REMARK  Name = Cyproheptadine
REMARK  1 active torsions:
REMARK  status: ('A' for Active; 'I' for Inactive)
REMARK    1  A    between atoms: C_1  and  N_2
REMARK                            x       y       z     vdW  Elec       q    Type
REMARK                         _______ _______ _______ _____ _____    ______ ____
ROOT
ATOM      1  C   UNL     1      -9.954   4.995 131.075  0.00  0.00    +0.000 C 
ATOM      2  N   UNL     1      -9.230   5.987 130.275  0.00  0.00    +0.000 NA
ATOM      3  C   UNL     1      -8.359   6.814 131.132  0.00  0.00    +0.000 C 
ATOM      4  C   UNL     1      -7.231   6.019 131.795  0.00  0.00    +0.000 C 
ATOM      5  C   UNL     1      -6.401   5.316 130.741  0.00  0.00    +0.000 C 
ATOM      6  C   UNL     1      -7.255   4.484 129.796  0.00  0.00    +0.000 C 
ATOM      7  C   UNL     1      -8.412   5.330 129.235  0.00  0.00    +0.000 C 
ATOM      8  C   UNL     1      -5.063   5.488 130.618  0.00  0.00    +0.000 C 
ATOM      9  C   UNL     1      -4.315   6.391 131.506  0.00  0.00    +0.000 A 
ATOM     10  C   UNL     1      -4.177   6.046 132.858  0.00  0.00    +0.000 A 
ATOM     11  C   UNL     1      -3.428   6.849 133.706  0.00  0.00    +0.000 A 
ATOM     12  C   UNL     1      -2.797   7.984 133.201  0.00  0.00    +0.000 A 
ATOM     13  C   UNL     1      -2.916   8.322 131.848  0.00  0.00    +0.000 A 
ATOM     14  C   UNL     1      -3.664   7.523 130.978  0.00  0.00    +0.000 A 
ATOM     15  C   UNL     1      -3.762   7.902 129.551  0.00  0.00    +0.000 C 
ATOM     16  C   UNL     1      -3.749   7.057 128.505  0.00  0.00    +0.000 C 
ATOM     17  C   UNL     1      -3.640   5.583 128.575  0.00  0.00    +0.000 A 
ATOM     18  C   UNL     1      -2.868   4.905 127.628  0.00  0.00    +0.000 A 
ATOM     19  C   UNL     1      -2.742   3.510 127.681  0.00  0.00    +0.000 A 
ATOM     20  C   UNL     1      -3.388   2.773 128.670  0.00  0.00    +0.000 A 
ATOM     21  C   UNL     1      -4.163   3.428 129.613  0.00  0.00    +0.000 A 
ATOM     22  C   UNL     1      -4.305   4.822 129.552  0.00  0.00    +0.000 A 
ENDROOT
TORSDOF 0
ENDMDL
MODEL 9
REMARK VINA RESULT:      -7.2      9.424     12.196
REMARK  Name = Cyproheptadine
REMARK  1 active torsions:
REMARK  status: ('A' for Active; 'I' for Inactive)
REMARK    1  A    between atoms: C_1  and  N_2
REMARK                            x       y       z     vdW  Elec       q    Type
REMARK                         _______ _______ _______ _____ _____    ______ ____
ROOT
ATOM      1  C   UNL     1      -5.651   5.646 136.743  0.00  0.00    +0.000 C 
ATOM      2  N   UNL     1      -4.328   5.225 136.274  0.00  0.00    +0.000 NA
ATOM      3  C   UNL     1      -4.364   4.896 134.835  0.00  0.00    +0.000 C 
ATOM      4  C   UNL     1      -4.676   6.103 133.946  0.00  0.00    +0.000 C 
ATOM      5  C   UNL     1      -3.671   7.208 134.197  0.00  0.00    +0.000 C 
ATOM      6  C   UNL     1      -3.557   7.557 135.674  0.00  0.00    +0.000 C 
ATOM      7  C   UNL     1      -3.324   6.285 136.508  0.00  0.00    +0.000 C 
ATOM      8  C   UNL     1      -2.911   7.753 133.218  0.00  0.00    +0.000 C 
ATOM      9  C   UNL     1      -3.003   7.293 131.823  0.00  0.00    +0.000 A 
ATOM     10  C   UNL     1      -4.175   7.557 131.101  0.00  0.00    +0.000 A 
ATOM     11  C   UNL     1      -4.267   7.186 129.767  0.00  0.00    +0.000 A 
ATOM     12  C   UNL     1      -3.181   6.574 129.146  0.00  0.00    +0.000 A 
ATOM     13  C   UNL     1      -2.000   6.326 129.858  0.00  0.00    +0.000 A 
ATOM     14  C   UNL     1      -1.889   6.696 131.202  0.00  0.00    +0.000 A 
ATOM     15  C   UNL     1      -0.625   6.429 131.922  0.00  0.00    +0.000 C 
ATOM     16  C   UNL     1      -0.041   7.239 132.824  0.00  0.00    +0.000 C 
ATOM     17  C   UNL     1      -0.552   8.552 133.276  0.00  0.00    +0.000 A 
ATOM     18  C   UNL     1       0.346   9.598 133.500  0.00  0.00    +0.000 A 
ATOM     19  C   UNL     1      -0.116  10.854 133.919  0.00  0.00    +0.000 A 
ATOM     20  C   UNL     1      -1.474  11.081 134.127  0.00  0.00    +0.000 A 
ATOM     21  C   UNL     1      -2.378  10.053 133.916  0.00  0.00    +0.000 A 
ATOM     22  C   UNL     1      -1.917   8.791 133.514  0.00  0.00    +0.000 A 
ENDROOT
TORSDOF 0
ENDMDL
