MODEL 1
REMARK VINA RESULT:      -4.6      0.000      0.000
REMARK  Name = Cystine
REMARK  11 active torsions:
REMARK  status: ('A' for Active; 'I' for Inactive)
REMARK    1  A    between atoms: N_1  and  CA_2
REMARK    2  A    between atoms: CA_2  and  CB_3
REMARK    3  A    between atoms: CA_2  and  C_12
REMARK    4  A    between atoms: CB_3  and  SG_4
REMARK    5  A    between atoms: SG_4  and  SG_5
REMARK    6  A    between atoms: SG_5  and  CB_6
REMARK    7  A    between atoms: CB_6  and  CA_7
REMARK    8  A    between atoms: CA_7  and  N_8
REMARK    9  A    between atoms: CA_7  and  C_9
REMARK   10  A    between atoms: C_9  and  O_10
REMARK   11  A    between atoms: C_12  and  O_13
REMARK                            x       y       z     vdW  Elec       q    Type
REMARK                         _______ _______ _______ _____ _____    ______ ____
ROOT
ATOM      1  SG  CYS A   1     -12.885   7.618 130.151  0.00  0.00    +0.000 S 
ENDROOT
BRANCH   1   2
ATOM      2  CB  CYS A   1     -12.682   6.539 128.658  0.00  0.00    +0.000 C 
BRANCH   2   3
ATOM      3  CA  CYS A   1     -12.043   7.338 127.506  0.00  0.00    +0.000 C 
BRANCH   3   4
ATOM      4  N   CYS A   1     -12.384   6.757 126.166  0.00  0.00    +0.000 NA
ATOM      5  H1  CYS A   1     -11.529   6.876 125.601  0.00  0.00    +0.000 HD
ATOM      6  H2  CYS A   1     -13.040   7.386 125.694  0.00  0.00    +0.000 HD
ENDBRANCH   3   4
BRANCH   3   7
ATOM      7  C   CYS A   1     -10.518   7.386 127.682  0.00  0.00    +0.000 C 
ATOM      8  OXT CYS A   1      -9.942   8.141 128.456  0.00  0.00    +0.000 OA
BRANCH   7   9
ATOM      9  O   CYS A   1      -9.848   6.509 126.893  0.00  0.00    +0.000 OA
ATOM     10  H   CYS A   1      -8.994   6.280 127.324  0.00  0.00    +0.000 HD
ENDBRANCH   7   9
ENDBRANCH   3   7
ENDBRANCH   2   3
ENDBRANCH   1   2
BRANCH   1  11
ATOM     11  SG  CYS A   1     -11.788   6.622 131.568  0.00  0.00    +0.000 S 
BRANCH  11  12
ATOM     12  CB  CYS A   1     -11.003   5.201 130.688  0.00  0.00    +0.000 C 
BRANCH  12  13
ATOM     13  CA  CYS A   1      -9.451   5.244 130.732  0.00  0.00    +0.000 C 
BRANCH  13  14
ATOM     14  N   CYS A   1      -8.972   6.645 130.901  0.00  0.00    +0.000 NA
ATOM     15  H1  CYS A   1      -8.900   6.917 131.878  0.00  0.00    +0.000 HD
ATOM     16  H2  CYS A   1      -9.530   7.301 130.357  0.00  0.00    +0.000 HD
ENDBRANCH  13  14
BRANCH  13  17
ATOM     17  C   CYS A   1      -8.799   4.575 129.500  0.00  0.00    +0.000 C 
ATOM     18  OXT CYS A   1      -7.961   5.111 128.782  0.00  0.00    +0.000 OA
BRANCH  17  19
ATOM     19  O   CYS A   1      -9.239   3.328 129.211  0.00  0.00    +0.000 OA
ATOM     20  H   CYS A   1      -9.978   3.308 128.580  0.00  0.00    +0.000 HD
ENDBRANCH  17  19
ENDBRANCH  13  17
ENDBRANCH  12  13
ENDBRANCH  11  12
ENDBRANCH   1  11
TORSDOF 11
ENDMDL
MODEL 2
REMARK VINA RESULT:      -4.5      1.448      4.255
REMARK  Name = Cystine
REMARK  11 active torsions:
REMARK  status: ('A' for Active; 'I' for Inactive)
REMARK    1  A    between atoms: N_1  and  CA_2
REMARK    2  A    between atoms: CA_2  and  CB_3
REMARK    3  A    between atoms: CA_2  and  C_12
REMARK    4  A    between atoms: CB_3  and  SG_4
REMARK    5  A    between atoms: SG_4  and  SG_5
REMARK    6  A    between atoms: SG_5  and  CB_6
REMARK    7  A    between atoms: CB_6  and  CA_7
REMARK    8  A    between atoms: CA_7  and  N_8
REMARK    9  A    between atoms: CA_7  and  C_9
REMARK   10  A    between atoms: C_9  and  O_10
REMARK   11  A    between atoms: C_12  and  O_13
REMARK                            x       y       z     vdW  Elec       q    Type
REMARK                         _______ _______ _______ _____ _____    ______ ____
ROOT
ATOM      1  SG  CYS A   1     -11.801   6.492 131.508  0.00  0.00    +0.000 S 
ENDROOT
BRANCH   1   2
ATOM      2  CB  CYS A   1     -11.079   5.170 130.429  0.00  0.00    +0.000 C 
BRANCH   2   3
ATOM      3  CA  CYS A   1      -9.726   4.698 130.995  0.00  0.00    +0.000 C 
BRANCH   3   4
ATOM      4  N   CYS A   1      -9.886   3.978 132.300  0.00  0.00    +0.000 NA
ATOM      5  H1  CYS A   1     -10.299   4.675 132.939  0.00  0.00    +0.000 HD
ATOM      6  H2  CYS A   1      -8.960   3.835 132.711  0.00  0.00    +0.000 HD
ENDBRANCH   3   4
BRANCH   3   7
ATOM      7  C   CYS A   1      -8.783   5.898 131.171  0.00  0.00    +0.000 C 
ATOM      8  OXT CYS A   1      -8.334   6.263 132.251  0.00  0.00    +0.000 OA
BRANCH   7   9
ATOM      9  O   CYS A   1      -8.485   6.534 130.011  0.00  0.00    +0.000 OA
ATOM     10  H   CYS A   1      -7.795   7.213 130.186  0.00  0.00    +0.000 HD
ENDBRANCH   7   9
ENDBRANCH   3   7
ENDBRANCH   2   3
ENDBRANCH   1   2
BRANCH   1  11
ATOM     11  SG  CYS A   1     -12.844   7.638 130.166  0.00  0.00    +0.000 S 
BRANCH  11  12
ATOM     12  CB  CYS A   1     -12.853   6.679 128.588  0.00  0.00    +0.000 C 
BRANCH  12  13
ATOM     13  CA  CYS A   1     -12.094   7.396 127.439  0.00  0.00    +0.000 C 
BRANCH  13  14
ATOM     14  N   CYS A   1     -12.336   6.707 126.141  0.00  0.00    +0.000 NA
ATOM     15  H1  CYS A   1     -11.496   6.644 125.571  0.00  0.00    +0.000 HD
ATOM     16  H2  CYS A   1     -13.117   7.122 125.635  0.00  0.00    +0.000 HD
ENDBRANCH  13  14
BRANCH  13  17
ATOM     17  C   CYS A   1     -10.579   7.539 127.721  0.00  0.00    +0.000 C 
ATOM     18  OXT CYS A   1     -10.059   8.523 128.237  0.00  0.00    +0.000 OA
BRANCH  17  19
ATOM     19  O   CYS A   1      -9.811   6.499 127.321  0.00  0.00    +0.000 OA
ATOM     20  H   CYS A   1      -9.834   5.738 127.926  0.00  0.00    +0.000 HD
ENDBRANCH  17  19
ENDBRANCH  13  17
ENDBRANCH  12  13
ENDBRANCH  11  12
ENDBRANCH   1  11
TORSDOF 11
ENDMDL
MODEL 3
REMARK VINA RESULT:      -4.4      8.352      9.731
REMARK  Name = Cystine
REMARK  11 active torsions:
REMARK  status: ('A' for Active; 'I' for Inactive)
REMARK    1  A    between atoms: N_1  and  CA_2
REMARK    2  A    between atoms: CA_2  and  CB_3
REMARK    3  A    between atoms: CA_2  and  C_12
REMARK    4  A    between atoms: CB_3  and  SG_4
REMARK    5  A    between atoms: SG_4  and  SG_5
REMARK    6  A    between atoms: SG_5  and  CB_6
REMARK    7  A    between atoms: CB_6  and  CA_7
REMARK    8  A    between atoms: CA_7  and  N_8
REMARK    9  A    between atoms: CA_7  and  C_9
REMARK   10  A    between atoms: C_9  and  O_10
REMARK   11  A    between atoms: C_12  and  O_13
REMARK                            x       y       z     vdW  Elec       q    Type
REMARK                         _______ _______ _______ _____ _____    ______ ____
ROOT
ATOM      1  SG  CYS A   1      -7.239  -1.437 122.895  0.00  0.00    +0.000 S 
ENDROOT
BRANCH   1   2
ATOM      2  CB  CYS A   1      -7.377  -2.885 124.044  0.00  0.00    +0.000 C 
BRANCH   2   3
ATOM      3  CA  CYS A   1      -8.856  -3.260 124.255  0.00  0.00    +0.000 C 
BRANCH   3   4
ATOM      4  N   CYS A   1      -9.750  -2.602 123.247  0.00  0.00    +0.000 NA
ATOM      5  H1  CYS A   1      -9.279  -1.714 123.015  0.00  0.00    +0.000 HD
ATOM      6  H2  CYS A   1     -10.596  -2.276 123.722  0.00  0.00    +0.000 HD
ENDBRANCH   3   4
BRANCH   3   7
ATOM      7  C   CYS A   1      -9.298  -2.876 125.675  0.00  0.00    +0.000 C 
ATOM      8  OXT CYS A   1      -9.119  -3.580 126.662  0.00  0.00    +0.000 OA
BRANCH   7   9
ATOM      9  O   CYS A   1      -9.918  -1.671 125.748  0.00  0.00    +0.000 OA
ATOM     10  H   CYS A   1      -9.653  -1.226 126.585  0.00  0.00    +0.000 HD
ENDBRANCH   7   9
ENDBRANCH   3   7
ENDBRANCH   2   3
ENDBRANCH   1   2
BRANCH   1  11
ATOM     11  SG  CYS A   1      -7.305   0.157 124.182  0.00  0.00    +0.000 S 
BRANCH  11  12
ATOM     12  CB  CYS A   1      -7.678   1.632 123.136  0.00  0.00    +0.000 C 
BRANCH  12  13
ATOM     13  CA  CYS A   1      -9.116   2.177 123.349  0.00  0.00    +0.000 C 
BRANCH  13  14
ATOM     14  N   CYS A   1      -9.175   3.038 124.564  0.00  0.00    +0.000 NA
ATOM     15  H1  CYS A   1      -9.082   2.504 125.424  0.00  0.00    +0.000 HD
ATOM     16  H2  CYS A   1     -10.003   3.631 124.565  0.00  0.00    +0.000 HD
ENDBRANCH  13  14
BRANCH  13  17
ATOM     17  C   CYS A   1     -10.179   1.055 123.409  0.00  0.00    +0.000 C 
ATOM     18  OXT CYS A   1     -10.536   0.385 122.445  0.00  0.00    +0.000 OA
BRANCH  17  19
ATOM     19  O   CYS A   1     -10.753   0.859 124.619  0.00  0.00    +0.000 OA
ATOM     20  H   CYS A   1     -10.385   1.418 125.324  0.00  0.00    +0.000 HD
ENDBRANCH  17  19
ENDBRANCH  13  17
ENDBRANCH  12  13
ENDBRANCH  11  12
ENDBRANCH   1  11
TORSDOF 11
ENDMDL
MODEL 4
REMARK VINA RESULT:      -4.3      1.819      1.948
REMARK  Name = Cystine
REMARK  11 active torsions:
REMARK  status: ('A' for Active; 'I' for Inactive)
REMARK    1  A    between atoms: N_1  and  CA_2
REMARK    2  A    between atoms: CA_2  and  CB_3
REMARK    3  A    between atoms: CA_2  and  C_12
REMARK    4  A    between atoms: CB_3  and  SG_4
REMARK    5  A    between atoms: SG_4  and  SG_5
REMARK    6  A    between atoms: SG_5  and  CB_6
REMARK    7  A    between atoms: CB_6  and  CA_7
REMARK    8  A    between atoms: CA_7  and  N_8
REMARK    9  A    between atoms: CA_7  and  C_9
REMARK   10  A    between atoms: C_9  and  O_10
REMARK   11  A    between atoms: C_12  and  O_13
REMARK                            x       y       z     vdW  Elec       q    Type
REMARK                         _______ _______ _______ _____ _____    ______ ____
ROOT
ATOM      1  SG  CYS A   1     -12.717   7.430 130.277  0.00  0.00    +0.000 S 
ENDROOT
BRANCH   1   2
ATOM      2  CB  CYS A   1     -12.756   6.526 128.660  0.00  0.00    +0.000 C 
BRANCH   2   3
ATOM      3  CA  CYS A   1     -12.076   7.366 127.563  0.00  0.00    +0.000 C 
BRANCH   3   4
ATOM      4  N   CYS A   1     -12.236   6.750 126.205  0.00  0.00    +0.000 NA
ATOM      5  H1  CYS A   1     -11.459   7.134 125.646  0.00  0.00    +0.000 HD
ATOM      6  H2  CYS A   1     -13.052   7.167 125.750  0.00  0.00    +0.000 HD
ENDBRANCH   3   4
BRANCH   3   7
ATOM      7  C   CYS A   1     -10.584   7.541 127.884  0.00  0.00    +0.000 C 
ATOM      8  OXT CYS A   1     -10.084   8.596 128.257  0.00  0.00    +0.000 OA
BRANCH   7   9
ATOM      9  O   CYS A   1      -9.852   6.411 127.716  0.00  0.00    +0.000 OA
ATOM     10  H   CYS A   1     -10.035   6.041 126.824  0.00  0.00    +0.000 HD
ENDBRANCH   7   9
ENDBRANCH   3   7
ENDBRANCH   2   3
ENDBRANCH   1   2
BRANCH   1  11
ATOM     11  SG  CYS A   1     -11.388   6.319 131.373  0.00  0.00    +0.000 S 
BRANCH  11  12
ATOM     12  CB  CYS A   1     -11.198   4.723 130.463  0.00  0.00    +0.000 C 
BRANCH  12  13
ATOM     13  CA  CYS A   1      -9.759   4.146 130.547  0.00  0.00    +0.000 C 
BRANCH  13  14
ATOM     14  N   CYS A   1      -9.545   3.119 129.488  0.00  0.00    +0.000 NA
ATOM     15  H1  CYS A   1     -10.408   2.859 129.018  0.00  0.00    +0.000 HD
ATOM     16  H2  CYS A   1      -9.042   2.309 129.847  0.00  0.00    +0.000 HD
ENDBRANCH  13  14
BRANCH  13  17
ATOM     17  C   CYS A   1      -9.420   3.583 131.947  0.00  0.00    +0.000 C 
ATOM     18  OXT CYS A   1      -8.532   4.019 132.673  0.00  0.00    +0.000 OA
BRANCH  17  19
ATOM     19  O   CYS A   1     -10.154   2.516 132.340  0.00  0.00    +0.000 OA
ATOM     20  H   CYS A   1     -10.793   2.716 133.045  0.00  0.00    +0.000 HD
ENDBRANCH  17  19
ENDBRANCH  13  17
ENDBRANCH  12  13
ENDBRANCH  11  12
ENDBRANCH   1  11
TORSDOF 11
ENDMDL
MODEL 5
REMARK VINA RESULT:      -4.3      7.865      8.799
REMARK  Name = Cystine
REMARK  11 active torsions:
REMARK  status: ('A' for Active; 'I' for Inactive)
REMARK    1  A    between atoms: N_1  and  CA_2
REMARK    2  A    between atoms: CA_2  and  CB_3
REMARK    3  A    between atoms: CA_2  and  C_12
REMARK    4  A    between atoms: CB_3  and  SG_4
REMARK    5  A    between atoms: SG_4  and  SG_5
REMARK    6  A    between atoms: SG_5  and  CB_6
REMARK    7  A    between atoms: CB_6  and  CA_7
REMARK    8  A    between atoms: CA_7  and  N_8
REMARK    9  A    between atoms: CA_7  and  C_9
REMARK   10  A    between atoms: C_9  and  O_10
REMARK   11  A    between atoms: C_12  and  O_13
REMARK                            x       y       z     vdW  Elec       q    Type
REMARK                         _______ _______ _______ _____ _____    ______ ____
ROOT
ATOM      1  SG  CYS A   1      -7.335   1.491 125.864  0.00  0.00    +0.000 S 
ENDROOT
BRANCH   1   2
ATOM      2  CB  CYS A   1      -6.949   2.219 124.204  0.00  0.00    +0.000 C 
BRANCH   2   3
ATOM      3  CA  CYS A   1      -7.974   3.312 123.849  0.00  0.00    +0.000 C 
BRANCH   3   4
ATOM      4  N   CYS A   1      -8.930   3.570 124.975  0.00  0.00    +0.000 NA
ATOM      5  H1  CYS A   1      -9.008   4.598 125.026  0.00  0.00    +0.000 HD
ATOM      6  H2  CYS A   1      -8.465   3.346 125.858  0.00  0.00    +0.000 HD
ENDBRANCH   3   4
BRANCH   3   7
ATOM      7  C   CYS A   1      -8.749   2.916 122.584  0.00  0.00    +0.000 C 
ATOM      8  OXT CYS A   1      -9.390   1.878 122.471  0.00  0.00    +0.000 OA
BRANCH   7   9
ATOM      9  O   CYS A   1      -8.663   3.827 121.581  0.00  0.00    +0.000 OA
ATOM     10  H   CYS A   1      -9.524   3.863 121.108  0.00  0.00    +0.000 HD
ENDBRANCH   7   9
ENDBRANCH   3   7
ENDBRANCH   2   3
ENDBRANCH   1   2
BRANCH   1  11
ATOM     11  SG  CYS A   1      -8.526  -0.105 125.381  0.00  0.00    +0.000 S 
BRANCH  11  12
ATOM     12  CB  CYS A   1      -7.720  -0.913 123.929  0.00  0.00    +0.000 C 
BRANCH  12  13
ATOM     13  CA  CYS A   1      -8.715  -1.729 123.060  0.00  0.00    +0.000 C 
BRANCH  13  14
ATOM     14  N   CYS A   1      -9.954  -0.942 122.805  0.00  0.00    +0.000 NA
ATOM     15  H1  CYS A   1     -10.150  -0.836 121.813  0.00  0.00    +0.000 HD
ATOM     16  H2  CYS A   1      -9.938  -0.047 123.293  0.00  0.00    +0.000 HD
ENDBRANCH  13  14
BRANCH  13  17
ATOM     17  C   CYS A   1      -9.048  -3.111 123.670  0.00  0.00    +0.000 C 
ATOM     18  OXT CYS A   1      -8.277  -3.767 124.364  0.00  0.00    +0.000 OA
BRANCH  17  19
ATOM     19  O   CYS A   1     -10.269  -3.606 123.361  0.00  0.00    +0.000 OA
ATOM     20  H   CYS A   1     -10.923  -3.513 124.074  0.00  0.00    +0.000 HD
ENDBRANCH  17  19
ENDBRANCH  13  17
ENDBRANCH  12  13
ENDBRANCH  11  12
ENDBRANCH   1  11
TORSDOF 11
ENDMDL
MODEL 6
REMARK VINA RESULT:      -4.2      1.417      4.311
REMARK  Name = Cystine
REMARK  11 active torsions:
REMARK  status: ('A' for Active; 'I' for Inactive)
REMARK    1  A    between atoms: N_1  and  CA_2
REMARK    2  A    between atoms: CA_2  and  CB_3
REMARK    3  A    between atoms: CA_2  and  C_12
REMARK    4  A    between atoms: CB_3  and  SG_4
REMARK    5  A    between atoms: SG_4  and  SG_5
REMARK    6  A    between atoms: SG_5  and  CB_6
REMARK    7  A    between atoms: CB_6  and  CA_7
REMARK    8  A    between atoms: CA_7  and  N_8
REMARK    9  A    between atoms: CA_7  and  C_9
REMARK   10  A    between atoms: C_9  and  O_10
REMARK   11  A    between atoms: C_12  and  O_13
REMARK                            x       y       z     vdW  Elec       q    Type
REMARK                         _______ _______ _______ _____ _____    ______ ____
ROOT
ATOM      1  SG  CYS A   1     -11.340   5.645 130.514  0.00  0.00    +0.000 S 
ENDROOT
BRANCH   1   2
ATOM      2  CB  CYS A   1     -10.069   6.308 131.688  0.00  0.00    +0.000 C 
BRANCH   2   3
ATOM      3  CA  CYS A   1      -8.714   6.469 130.973  0.00  0.00    +0.000 C 
BRANCH   3   4
ATOM      4  N   CYS A   1      -8.738   7.586 129.973  0.00  0.00    +0.000 NA
ATOM      5  H1  CYS A   1      -8.260   7.207 129.141  0.00  0.00    +0.000 HD
ATOM      6  H2  CYS A   1      -8.089   8.315 130.279  0.00  0.00    +0.000 HD
ENDBRANCH   3   4
BRANCH   3   7
ATOM      7  C   CYS A   1      -8.326   5.155 130.280  0.00  0.00    +0.000 C 
ATOM      8  OXT CYS A   1      -8.125   4.102 130.873  0.00  0.00    +0.000 OA
BRANCH   7   9
ATOM      9  O   CYS A   1      -8.220   5.258 128.931  0.00  0.00    +0.000 OA
ATOM     10  H   CYS A   1      -8.053   4.365 128.554  0.00  0.00    +0.000 HD
ENDBRANCH   7   9
ENDBRANCH   3   7
ENDBRANCH   2   3
ENDBRANCH   1   2
BRANCH   1  11
ATOM     11  SG  CYS A   1     -12.650   7.212 130.348  0.00  0.00    +0.000 S 
BRANCH  11  12
ATOM     12  CB  CYS A   1     -11.914   8.351 129.094  0.00  0.00    +0.000 C 
BRANCH  12  13
ATOM     13  CA  CYS A   1     -12.286   7.968 127.636  0.00  0.00    +0.000 C 
BRANCH  13  14
ATOM     14  N   CYS A   1     -13.286   6.863 127.624  0.00  0.00    +0.000 NA
ATOM     15  H1  CYS A   1     -14.000   6.977 128.340  0.00  0.00    +0.000 HD
ATOM     16  H2  CYS A   1     -12.837   5.949 127.669  0.00  0.00    +0.000 HD
ENDBRANCH  13  14
BRANCH  13  17
ATOM     17  C   CYS A   1     -11.050   7.610 126.778  0.00  0.00    +0.000 C 
ATOM     18  OXT CYS A   1     -10.888   7.962 125.614  0.00  0.00    +0.000 OA
BRANCH  17  19
ATOM     19  O   CYS A   1     -10.129   6.822 127.381  0.00  0.00    +0.000 OA
ATOM     20  H   CYS A   1      -9.341   7.302 127.688  0.00  0.00    +0.000 HD
ENDBRANCH  17  19
ENDBRANCH  13  17
ENDBRANCH  12  13
ENDBRANCH  11  12
ENDBRANCH   1  11
TORSDOF 11
ENDMDL
MODEL 7
REMARK VINA RESULT:      -4.1      7.660      8.321
REMARK  Name = Cystine
REMARK  11 active torsions:
REMARK  status: ('A' for Active; 'I' for Inactive)
REMARK    1  A    between atoms: N_1  and  CA_2
REMARK    2  A    between atoms: CA_2  and  CB_3
REMARK    3  A    between atoms: CA_2  and  C_12
REMARK    4  A    between atoms: CB_3  and  SG_4
REMARK    5  A    between atoms: SG_4  and  SG_5
REMARK    6  A    between atoms: SG_5  and  CB_6
REMARK    7  A    between atoms: CB_6  and  CA_7
REMARK    8  A    between atoms: CA_7  and  N_8
REMARK    9  A    between atoms: CA_7  and  C_9
REMARK   10  A    between atoms: C_9  and  O_10
REMARK   11  A    between atoms: C_12  and  O_13
REMARK                            x       y       z     vdW  Elec       q    Type
REMARK                         _______ _______ _______ _____ _____    ______ ____
ROOT
ATOM      1  SG  CYS A   1      -6.372   3.214 122.797  0.00  0.00    +0.000 S 
ENDROOT
BRANCH   1   2
ATOM      2  CB  CYS A   1      -5.998   3.154 120.982  0.00  0.00    +0.000 C 
BRANCH   2   3
ATOM      3  CA  CYS A   1      -5.043   4.300 120.596  0.00  0.00    +0.000 C 
BRANCH   3   4
ATOM      4  N   CYS A   1      -4.623   5.105 121.789  0.00  0.00    +0.000 NA
ATOM      5  H1  CYS A   1      -3.636   5.348 121.610  0.00  0.00    +0.000 HD
ATOM      6  H2  CYS A   1      -4.545   4.480 122.595  0.00  0.00    +0.000 HD
ENDBRANCH   3   4
BRANCH   3   7
ATOM      7  C   CYS A   1      -5.712   5.213 119.558  0.00  0.00    +0.000 C 
ATOM      8  OXT CYS A   1      -6.648   4.869 118.846  0.00  0.00    +0.000 OA
BRANCH   7   9
ATOM      9  O   CYS A   1      -5.168   6.454 119.490  0.00  0.00    +0.000 OA
ATOM     10  H   CYS A   1      -5.891   7.116 119.407  0.00  0.00    +0.000 HD
ENDBRANCH   7   9
ENDBRANCH   3   7
ENDBRANCH   2   3
ENDBRANCH   1   2
BRANCH   1  11
ATOM     11  SG  CYS A   1      -8.382   2.815 122.847  0.00  0.00    +0.000 S 
BRANCH  11  12
ATOM     12  CB  CYS A   1      -8.849   2.814 124.634  0.00  0.00    +0.000 C 
BRANCH  12  13
ATOM     13  CA  CYS A   1      -7.788   3.497 125.538  0.00  0.00    +0.000 C 
BRANCH  13  14
ATOM     14  N   CYS A   1      -7.774   2.873 126.891  0.00  0.00    +0.000 NA
ATOM     15  H1  CYS A   1      -8.264   1.982 126.913  0.00  0.00    +0.000 HD
ATOM     16  H2  CYS A   1      -8.110   3.517 127.605  0.00  0.00    +0.000 HD
ENDBRANCH  13  14
BRANCH  13  17
ATOM     17  C   CYS A   1      -7.978   5.029 125.632  0.00  0.00    +0.000 C 
ATOM     18  OXT CYS A   1      -8.968   5.577 126.106  0.00  0.00    +0.000 OA
BRANCH  17  19
ATOM     19  O   CYS A   1      -6.976   5.775 125.111  0.00  0.00    +0.000 OA
ATOM     20  H   CYS A   1      -6.856   6.633 125.549  0.00  0.00    +0.000 HD
ENDBRANCH  17  19
ENDBRANCH  13  17
ENDBRANCH  12  13
ENDBRANCH  11  12
ENDBRANCH   1  11
TORSDOF 11
ENDMDL
MODEL 8
REMARK VINA RESULT:      -4.1      2.546      2.810
REMARK  Name = Cystine
REMARK  11 active torsions:
REMARK  status: ('A' for Active; 'I' for Inactive)
REMARK    1  A    between atoms: N_1  and  CA_2
REMARK    2  A    between atoms: CA_2  and  CB_3
REMARK    3  A    between atoms: CA_2  and  C_12
REMARK    4  A    between atoms: CB_3  and  SG_4
REMARK    5  A    between atoms: SG_4  and  SG_5
REMARK    6  A    between atoms: SG_5  and  CB_6
REMARK    7  A    between atoms: CB_6  and  CA_7
REMARK    8  A    between atoms: CA_7  and  N_8
REMARK    9  A    between atoms: CA_7  and  C_9
REMARK   10  A    between atoms: C_9  and  O_10
REMARK   11  A    between atoms: C_12  and  O_13
REMARK                            x       y       z     vdW  Elec       q    Type
REMARK                         _______ _______ _______ _____ _____    ______ ____
ROOT
ATOM      1  SG  CYS A   1     -11.788   7.090 130.352  0.00  0.00    +0.000 S 
ENDROOT
BRANCH   1   2
ATOM      2  CB  CYS A   1     -10.511   7.860 129.251  0.00  0.00    +0.000 C 
BRANCH   2   3
ATOM      3  CA  CYS A   1     -11.171   8.410 127.972  0.00  0.00    +0.000 C 
BRANCH   3   4
ATOM      4  N   CYS A   1     -12.667   8.342 128.039  0.00  0.00    +0.000 NA
ATOM      5  H1  CYS A   1     -12.995   8.943 127.268  0.00  0.00    +0.000 HD
ATOM      6  H2  CYS A   1     -12.982   8.861 128.863  0.00  0.00    +0.000 HD
ENDBRANCH   3   4
BRANCH   3   7
ATOM      7  C   CYS A   1     -10.667   7.635 126.745  0.00  0.00    +0.000 C 
ATOM      8  OXT CYS A   1     -10.898   7.960 125.587  0.00  0.00    +0.000 OA
BRANCH   7   9
ATOM      9  O   CYS A   1      -9.930   6.538 127.056  0.00  0.00    +0.000 OA
ATOM     10  H   CYS A   1     -10.313   5.756 126.599  0.00  0.00    +0.000 HD
ENDBRANCH   7   9
ENDBRANCH   3   7
ENDBRANCH   2   3
ENDBRANCH   1   2
BRANCH   1  11
ATOM     11  SG  CYS A   1     -11.233   5.117 130.360  0.00  0.00    +0.000 S 
BRANCH  11  12
ATOM     12  CB  CYS A   1      -9.396   5.113 130.550  0.00  0.00    +0.000 C 
BRANCH  12  13
ATOM     13  CA  CYS A   1      -8.930   4.532 131.912  0.00  0.00    +0.000 C 
BRANCH  13  14
ATOM     14  N   CYS A   1      -9.925   3.551 132.431  0.00  0.00    +0.000 NA
ATOM     15  H1  CYS A   1     -10.841   3.967 132.578  0.00  0.00    +0.000 HD
ATOM     16  H2  CYS A   1      -9.581   3.070 133.260  0.00  0.00    +0.000 HD
ENDBRANCH  13  14
BRANCH  13  17
ATOM     17  C   CYS A   1      -8.631   5.629 132.960  0.00  0.00    +0.000 C 
ATOM     18  OXT CYS A   1      -7.521   5.854 133.432  0.00  0.00    +0.000 OA
BRANCH  17  19
ATOM     19  O   CYS A   1      -9.702   6.340 133.383  0.00  0.00    +0.000 OA
ATOM     20  H   CYS A   1      -9.762   6.425 134.349  0.00  0.00    +0.000 HD
ENDBRANCH  17  19
ENDBRANCH  13  17
ENDBRANCH  12  13
ENDBRANCH  11  12
ENDBRANCH   1  11
TORSDOF 11
ENDMDL
MODEL 9
REMARK VINA RESULT:      -4.0      8.045      8.751
REMARK  Name = Cystine
REMARK  11 active torsions:
REMARK  status: ('A' for Active; 'I' for Inactive)
REMARK    1  A    between atoms: N_1  and  CA_2
REMARK    2  A    between atoms: CA_2  and  CB_3
REMARK    3  A    between atoms: CA_2  and  C_12
REMARK    4  A    between atoms: CB_3  and  SG_4
REMARK    5  A    between atoms: SG_4  and  SG_5
REMARK    6  A    between atoms: SG_5  and  CB_6
REMARK    7  A    between atoms: CB_6  and  CA_7
REMARK    8  A    between atoms: CA_7  and  N_8
REMARK    9  A    between atoms: CA_7  and  C_9
REMARK   10  A    between atoms: C_9  and  O_10
REMARK   11  A    between atoms: C_12  and  O_13
REMARK                            x       y       z     vdW  Elec       q    Type
REMARK                         _______ _______ _______ _____ _____    ______ ____
ROOT
ATOM      1  SG  CYS A   1      -6.831   1.697 124.905  0.00  0.00    +0.000 S 
ENDROOT
BRANCH   1   2
ATOM      2  CB  CYS A   1      -7.769   1.391 123.336  0.00  0.00    +0.000 C 
BRANCH   2   3
ATOM      3  CA  CYS A   1      -9.090   2.183 123.340  0.00  0.00    +0.000 C 
BRANCH   3   4
ATOM      4  N   CYS A   1      -9.197   3.087 124.532  0.00  0.00    +0.000 NA
ATOM      5  H1  CYS A   1      -8.485   3.817 124.376  0.00  0.00    +0.000 HD
ATOM      6  H2  CYS A   1      -8.824   2.597 125.349  0.00  0.00    +0.000 HD
ENDBRANCH   3   4
BRANCH   3   7
ATOM      7  C   CYS A   1     -10.283   1.216 123.308  0.00  0.00    +0.000 C 
ATOM      8  OXT CYS A   1     -11.085   1.088 124.225  0.00  0.00    +0.000 OA
BRANCH   7   9
ATOM      9  O   CYS A   1     -10.376   0.501 122.159  0.00  0.00    +0.000 OA
ATOM     10  H   CYS A   1     -10.102  -0.427 122.336  0.00  0.00    +0.000 HD
ENDBRANCH   7   9
ENDBRANCH   3   7
ENDBRANCH   2   3
ENDBRANCH   1   2
BRANCH   1  11
ATOM     11  SG  CYS A   1      -7.575   0.252 126.154  0.00  0.00    +0.000 S 
BRANCH  11  12
ATOM     12  CB  CYS A   1      -7.534  -1.319 125.184  0.00  0.00    +0.000 C 
BRANCH  12  13
ATOM     13  CA  CYS A   1      -8.940  -1.949 124.993  0.00  0.00    +0.000 C 
BRANCH  13  14
ATOM     14  N   CYS A   1      -9.164  -3.039 125.985  0.00  0.00    +0.000 NA
ATOM     15  H1  CYS A   1      -9.792  -2.760 126.734  0.00  0.00    +0.000 HD
ATOM     16  H2  CYS A   1      -8.284  -3.412 126.338  0.00  0.00    +0.000 HD
ENDBRANCH  13  14
BRANCH  13  17
ATOM     17  C   CYS A   1      -9.180  -2.451 123.550  0.00  0.00    +0.000 C 
ATOM     18  OXT CYS A   1      -8.613  -2.005 122.558  0.00  0.00    +0.000 OA
BRANCH  17  19
ATOM     19  O   CYS A   1     -10.113  -3.422 123.417  0.00  0.00    +0.000 OA
ATOM     20  H   CYS A   1     -10.817  -3.207 122.783  0.00  0.00    +0.000 HD
ENDBRANCH  17  19
ENDBRANCH  13  17
ENDBRANCH  12  13
ENDBRANCH  11  12
ENDBRANCH   1  11
TORSDOF 11
ENDMDL
