MODEL 1
REMARK VINA RESULT:      -2.4      0.000      0.000
REMARK  Name = Cysteamine
REMARK  3 active torsions:
REMARK  status: ('A' for Active; 'I' for Inactive)
REMARK    1  A    between atoms: N_1  and  C_2
REMARK    2  A    between atoms: C_2  and  C_3
REMARK    3  A    between atoms: C_3  and  S_4
REMARK                            x       y       z     vdW  Elec       q    Type
REMARK                         _______ _______ _______ _____ _____    ______ ____
ROOT
ATOM      1  C   UNL     1     -13.887  11.623 129.696  0.00  0.00    +0.000 C 
ENDROOT
BRANCH   1   2
ATOM      2  N   UNL     1     -13.883  12.666 130.724  0.00  0.00    +0.000 NA
ATOM      3  H   UNL     1     -12.943  12.751 131.112  0.00  0.00    +0.000 HD
ATOM      4  H   UNL     1     -14.481  12.384 131.501  0.00  0.00    +0.000 HD
ENDBRANCH   1   2
BRANCH   1   5
ATOM      5  C   UNL     1     -13.276  10.324 130.230  0.00  0.00    +0.000 C 
BRANCH   5   6
ATOM      6  S   UNL     1     -12.921   9.158 128.880  0.00  0.00    +0.000 S 
ATOM      7  H   UNL     1     -13.448   8.072 129.464  0.00  0.00    +0.000 HD
ENDBRANCH   5   6
ENDBRANCH   1   5
TORSDOF 3
ENDMDL
MODEL 2
REMARK VINA RESULT:      -2.4      4.890      5.089
REMARK  Name = Cysteamine
REMARK  3 active torsions:
REMARK  status: ('A' for Active; 'I' for Inactive)
REMARK    1  A    between atoms: N_1  and  C_2
REMARK    2  A    between atoms: C_2  and  C_3
REMARK    3  A    between atoms: C_3  and  S_4
REMARK                            x       y       z     vdW  Elec       q    Type
REMARK                         _______ _______ _______ _____ _____    ______ ____
ROOT
ATOM      1  C   UNL     1     -11.007   7.901 127.000  0.00  0.00    +0.000 C 
ENDROOT
BRANCH   1   2
ATOM      2  N   UNL     1     -11.576   6.776 126.256  0.00  0.00    +0.000 NA
ATOM      3  H   UNL     1     -11.414   6.916 125.258  0.00  0.00    +0.000 HD
ATOM      4  H   UNL     1     -12.589   6.765 126.374  0.00  0.00    +0.000 HD
ENDBRANCH   1   2
BRANCH   1   5
ATOM      5  C   UNL     1     -11.977   8.393 128.077  0.00  0.00    +0.000 C 
BRANCH   5   6
ATOM      6  S   UNL     1     -13.417   7.291 128.221  0.00  0.00    +0.000 S 
ATOM      7  H   UNL     1     -13.203   6.600 127.091  0.00  0.00    +0.000 HD
ENDBRANCH   5   6
ENDBRANCH   1   5
TORSDOF 3
ENDMDL
MODEL 3
REMARK VINA RESULT:      -2.3      4.854      5.051
REMARK  Name = Cysteamine
REMARK  3 active torsions:
REMARK  status: ('A' for Active; 'I' for Inactive)
REMARK    1  A    between atoms: N_1  and  C_2
REMARK    2  A    between atoms: C_2  and  C_3
REMARK    3  A    between atoms: C_3  and  S_4
REMARK                            x       y       z     vdW  Elec       q    Type
REMARK                         _______ _______ _______ _____ _____    ______ ____
ROOT
ATOM      1  C   UNL     1     -12.952   7.125 127.209  0.00  0.00    +0.000 C 
ENDROOT
BRANCH   1   2
ATOM      2  N   UNL     1     -11.906   6.734 126.261  0.00  0.00    +0.000 NA
ATOM      3  H   UNL     1     -11.456   7.572 125.892  0.00  0.00    +0.000 HD
ATOM      4  H   UNL     1     -12.328   6.268 125.458  0.00  0.00    +0.000 HD
ENDBRANCH   1   2
BRANCH   1   5
ATOM      5  C   UNL     1     -12.464   8.244 128.133  0.00  0.00    +0.000 C 
BRANCH   5   6
ATOM      6  S   UNL     1     -10.648   8.360 128.127  0.00  0.00    +0.000 S 
ATOM      7  H   UNL     1     -10.409   7.143 128.638  0.00  0.00    +0.000 HD
ENDBRANCH   5   6
ENDBRANCH   1   5
TORSDOF 3
ENDMDL
MODEL 4
REMARK VINA RESULT:      -2.2      4.330      4.391
REMARK  Name = Cysteamine
REMARK  3 active torsions:
REMARK  status: ('A' for Active; 'I' for Inactive)
REMARK    1  A    between atoms: N_1  and  C_2
REMARK    2  A    between atoms: C_2  and  C_3
REMARK    3  A    between atoms: C_3  and  S_4
REMARK                            x       y       z     vdW  Elec       q    Type
REMARK                         _______ _______ _______ _____ _____    ______ ____
ROOT
ATOM      1  C   UNL     1     -12.832   7.373 131.300  0.00  0.00    +0.000 C 
ENDROOT
BRANCH   1   2
ATOM      2  N   UNL     1     -12.074   6.241 131.837  0.00  0.00    +0.000 NA
ATOM      3  H   UNL     1     -12.452   5.986 132.750  0.00  0.00    +0.000 HD
ATOM      4  H   UNL     1     -11.108   6.524 132.005  0.00  0.00    +0.000 HD
ENDBRANCH   1   2
BRANCH   1   5
ATOM      5  C   UNL     1     -12.912   7.303 129.773  0.00  0.00    +0.000 C 
BRANCH   5   6
ATOM      6  S   UNL     1     -12.667   8.943 129.024  0.00  0.00    +0.000 S 
ATOM      7  H   UNL     1     -13.521   8.782 128.002  0.00  0.00    +0.000 HD
ENDBRANCH   5   6
ENDBRANCH   1   5
TORSDOF 3
ENDMDL
MODEL 5
REMARK VINA RESULT:      -2.2      3.044      3.239
REMARK  Name = Cysteamine
REMARK  3 active torsions:
REMARK  status: ('A' for Active; 'I' for Inactive)
REMARK    1  A    between atoms: N_1  and  C_2
REMARK    2  A    between atoms: C_2  and  C_3
REMARK    3  A    between atoms: C_3  and  S_4
REMARK                            x       y       z     vdW  Elec       q    Type
REMARK                         _______ _______ _______ _____ _____    ______ ____
ROOT
ATOM      1  C   UNL     1     -12.879   8.792 128.436  0.00  0.00    +0.000 C 
ENDROOT
BRANCH   1   2
ATOM      2  N   UNL     1     -13.098  10.149 128.942  0.00  0.00    +0.000 NA
ATOM      3  H   UNL     1     -12.298  10.732 128.698  0.00  0.00    +0.000 HD
ATOM      4  H   UNL     1     -13.132  10.133 129.961  0.00  0.00    +0.000 HD
ENDBRANCH   1   2
BRANCH   1   5
ATOM      5  C   UNL     1     -11.384   8.497 128.289  0.00  0.00    +0.000 C 
BRANCH   5   6
ATOM      6  S   UNL     1     -11.038   7.597 126.746  0.00  0.00    +0.000 S 
ATOM      7  H   UNL     1     -11.786   8.367 125.942  0.00  0.00    +0.000 HD
ENDBRANCH   5   6
ENDBRANCH   1   5
TORSDOF 3
ENDMDL
MODEL 6
REMARK VINA RESULT:      -2.1      9.101      9.342
REMARK  Name = Cysteamine
REMARK  3 active torsions:
REMARK  status: ('A' for Active; 'I' for Inactive)
REMARK    1  A    between atoms: N_1  and  C_2
REMARK    2  A    between atoms: C_2  and  C_3
REMARK    3  A    between atoms: C_3  and  S_4
REMARK                            x       y       z     vdW  Elec       q    Type
REMARK                         _______ _______ _______ _____ _____    ______ ____
ROOT
ATOM      1  C   UNL     1     -10.140   9.024 137.897  0.00  0.00    +0.000 C 
ENDROOT
BRANCH   1   2
ATOM      2  N   UNL     1     -10.211   8.742 136.462  0.00  0.00    +0.000 NA
ATOM      3  H   UNL     1     -10.935   8.043 136.292  0.00  0.00    +0.000 HD
ATOM      4  H   UNL     1      -9.336   8.318 136.152  0.00  0.00    +0.000 HD
ENDBRANCH   1   2
BRANCH   1   5
ATOM      5  C   UNL     1      -8.768   8.648 138.462  0.00  0.00    +0.000 C 
BRANCH   5   6
ATOM      6  S   UNL     1      -8.270   6.980 137.933  0.00  0.00    +0.000 S 
ATOM      7  H   UNL     1      -8.384   6.391 139.133  0.00  0.00    +0.000 HD
ENDBRANCH   5   6
ENDBRANCH   1   5
TORSDOF 3
ENDMDL
MODEL 7
REMARK VINA RESULT:      -2.1      2.401      2.470
REMARK  Name = Cysteamine
REMARK  3 active torsions:
REMARK  status: ('A' for Active; 'I' for Inactive)
REMARK    1  A    between atoms: N_1  and  C_2
REMARK    2  A    between atoms: C_2  and  C_3
REMARK    3  A    between atoms: C_3  and  S_4
REMARK                            x       y       z     vdW  Elec       q    Type
REMARK                         _______ _______ _______ _____ _____    ______ ____
ROOT
ATOM      1  C   UNL     1     -13.210   9.329 128.681  0.00  0.00    +0.000 C 
ENDROOT
BRANCH   1   2
ATOM      2  N   UNL     1     -13.299  10.690 129.212  0.00  0.00    +0.000 NA
ATOM      3  H   UNL     1     -12.500  10.866 129.822  0.00  0.00    +0.000 HD
ATOM      4  H   UNL     1     -14.125  10.773 129.804  0.00  0.00    +0.000 HD
ENDBRANCH   1   2
BRANCH   1   5
ATOM      5  C   UNL     1     -12.397   8.428 129.614  0.00  0.00    +0.000 C 
BRANCH   5   6
ATOM      6  S   UNL     1     -12.633   6.671 129.205  0.00  0.00    +0.000 S 
ATOM      7  H   UNL     1     -13.086   6.857 127.957  0.00  0.00    +0.000 HD
ENDBRANCH   5   6
ENDBRANCH   1   5
TORSDOF 3
ENDMDL
MODEL 8
REMARK VINA RESULT:      -2.1     16.023     16.100
REMARK  Name = Cysteamine
REMARK  3 active torsions:
REMARK  status: ('A' for Active; 'I' for Inactive)
REMARK    1  A    between atoms: N_1  and  C_2
REMARK    2  A    between atoms: C_2  and  C_3
REMARK    3  A    between atoms: C_3  and  S_4
REMARK                            x       y       z     vdW  Elec       q    Type
REMARK                         _______ _______ _______ _____ _____    ______ ____
ROOT
ATOM      1  C   UNL     1      -8.678  -3.103 123.625  0.00  0.00    +0.000 C 
ENDROOT
BRANCH   1   2
ATOM      2  N   UNL     1     -10.093  -3.420 123.420  0.00  0.00    +0.000 NA
ATOM      3  H   UNL     1     -10.637  -2.557 123.438  0.00  0.00    +0.000 HD
ATOM      4  H   UNL     1     -10.435  -3.981 124.199  0.00  0.00    +0.000 HD
ENDBRANCH   1   2
BRANCH   1   5
ATOM      5  C   UNL     1      -8.133  -3.810 124.869  0.00  0.00    +0.000 C 
BRANCH   5   6
ATOM      6  S   UNL     1      -8.926  -3.186 126.383  0.00  0.00    +0.000 S 
ATOM      7  H   UNL     1      -7.908  -2.413 126.790  0.00  0.00    +0.000 HD
ENDBRANCH   5   6
ENDBRANCH   1   5
TORSDOF 3
ENDMDL
MODEL 9
REMARK VINA RESULT:      -2.1      4.159      4.376
REMARK  Name = Cysteamine
REMARK  3 active torsions:
REMARK  status: ('A' for Active; 'I' for Inactive)
REMARK    1  A    between atoms: N_1  and  C_2
REMARK    2  A    between atoms: C_2  and  C_3
REMARK    3  A    between atoms: C_3  and  S_4
REMARK                            x       y       z     vdW  Elec       q    Type
REMARK                         _______ _______ _______ _____ _____    ______ ____
ROOT
ATOM      1  C   UNL     1     -11.078   8.328 127.600  0.00  0.00    +0.000 C 
ENDROOT
BRANCH   1   2
ATOM      2  N   UNL     1     -10.006   8.111 128.574  0.00  0.00    +0.000 NA
ATOM      3  H   UNL     1      -9.533   7.231 128.364  0.00  0.00    +0.000 HD
ATOM      4  H   UNL     1     -10.407   7.997 129.505  0.00  0.00    +0.000 HD
ENDBRANCH   1   2
BRANCH   1   5
ATOM      5  C   UNL     1     -12.428   8.499 128.300  0.00  0.00    +0.000 C 
BRANCH   5   6
ATOM      6  S   UNL     1     -13.188   6.888 128.671  0.00  0.00    +0.000 S 
ATOM      7  H   UNL     1     -12.053   6.245 128.985  0.00  0.00    +0.000 HD
ENDBRANCH   5   6
ENDBRANCH   1   5
TORSDOF 3
ENDMDL
