MODEL 1
REMARK VINA RESULT:      -3.6      0.000      0.000
REMARK  Name = Cysteine
REMARK  5 active torsions:
REMARK  status: ('A' for Active; 'I' for Inactive)
REMARK    1  A    between atoms: N_1  and  CA_2
REMARK    2  A    between atoms: CA_2  and  CB_3
REMARK    3  A    between atoms: CA_2  and  C_5
REMARK    4  A    between atoms: CB_3  and  SG_4
REMARK    5  A    between atoms: C_5  and  O_6
REMARK                            x       y       z     vdW  Elec       q    Type
REMARK                         _______ _______ _______ _____ _____    ______ ____
ROOT
ATOM      1  CA  CYS A   1     -10.981   7.136 127.836  0.00  0.00    +0.000 C 
ENDROOT
BRANCH   1   2
ATOM      2  N   CYS A   1      -9.659   6.439 127.919  0.00  0.00    +0.000 NA
ATOM      3  H1  CYS A   1      -9.848   5.468 127.629  0.00  0.00    +0.000 HD
ATOM      4  H2  CYS A   1      -9.414   6.318 128.906  0.00  0.00    +0.000 HD
ENDBRANCH   1   2
BRANCH   1   5
ATOM      5  C   CYS A   1     -11.392   7.326 126.371  0.00  0.00    +0.000 C 
ATOM      6  OXT CYS A   1     -10.800   8.059 125.586  0.00  0.00    +0.000 OA
BRANCH   5   7
ATOM      7  O   CYS A   1     -12.471   6.594 126.005  0.00  0.00    +0.000 OA
ATOM      8  H   CYS A   1     -12.830   6.133 126.799  0.00  0.00    +0.000 HD
ENDBRANCH   5   7
ENDBRANCH   1   5
BRANCH   1   9
ATOM      9  CB  CYS A   1     -10.951   8.509 128.529  0.00  0.00    +0.000 C 
BRANCH   9  10
ATOM     10  SG  CYS A   1     -12.612   9.060 129.070  0.00  0.00    +0.000 S 
ATOM     11  HG  CYS A   1     -13.328   8.100 128.464  0.00  0.00    +0.000 HD
ENDBRANCH   9  10
ENDBRANCH   1   9
TORSDOF 5
ENDMDL
MODEL 2
REMARK VINA RESULT:      -3.6      1.740      1.818
REMARK  Name = Cysteine
REMARK  5 active torsions:
REMARK  status: ('A' for Active; 'I' for Inactive)
REMARK    1  A    between atoms: N_1  and  CA_2
REMARK    2  A    between atoms: CA_2  and  CB_3
REMARK    3  A    between atoms: CA_2  and  C_5
REMARK    4  A    between atoms: CB_3  and  SG_4
REMARK    5  A    between atoms: C_5  and  O_6
REMARK                            x       y       z     vdW  Elec       q    Type
REMARK                         _______ _______ _______ _____ _____    ______ ____
ROOT
ATOM      1  CA  CYS A   1     -10.821   8.139 127.741  0.00  0.00    +0.000 C 
ENDROOT
BRANCH   1   2
ATOM      2  N   CYS A   1     -11.958   8.958 128.267  0.00  0.00    +0.000 NA
ATOM      3  H1  CYS A   1     -12.775   8.679 127.705  0.00  0.00    +0.000 HD
ATOM      4  H2  CYS A   1     -11.825   9.930 127.973  0.00  0.00    +0.000 HD
ENDBRANCH   1   2
BRANCH   1   5
ATOM      5  C   CYS A   1     -11.155   7.601 126.345  0.00  0.00    +0.000 C 
ATOM      6  OXT CYS A   1     -10.772   8.123 125.303  0.00  0.00    +0.000 OA
BRANCH   5   7
ATOM      7  O   CYS A   1     -11.907   6.474 126.356  0.00  0.00    +0.000 OA
ATOM      8  H   CYS A   1     -11.697   5.958 127.169  0.00  0.00    +0.000 HD
ENDBRANCH   5   7
ENDBRANCH   1   5
BRANCH   1   9
ATOM      9  CB  CYS A   1     -10.489   6.956 128.666  0.00  0.00    +0.000 C 
BRANCH   9  10
ATOM     10  SG  CYS A   1     -11.706   6.758 130.020  0.00  0.00    +0.000 S 
ATOM     11  HG  CYS A   1     -10.991   7.342 130.994  0.00  0.00    +0.000 HD
ENDBRANCH   9  10
ENDBRANCH   1   9
TORSDOF 5
ENDMDL
MODEL 3
REMARK VINA RESULT:      -3.6      2.267      2.481
REMARK  Name = Cysteine
REMARK  5 active torsions:
REMARK  status: ('A' for Active; 'I' for Inactive)
REMARK    1  A    between atoms: N_1  and  CA_2
REMARK    2  A    between atoms: CA_2  and  CB_3
REMARK    3  A    between atoms: CA_2  and  C_5
REMARK    4  A    between atoms: CB_3  and  SG_4
REMARK    5  A    between atoms: C_5  and  O_6
REMARK                            x       y       z     vdW  Elec       q    Type
REMARK                         _______ _______ _______ _____ _____    ______ ____
ROOT
ATOM      1  CA  CYS A   1     -12.068   7.369 127.558  0.00  0.00    +0.000 C 
ENDROOT
BRANCH   1   2
ATOM      2  N   CYS A   1     -12.224   6.718 126.220  0.00  0.00    +0.000 NA
ATOM      3  H1  CYS A   1     -11.330   6.234 126.050  0.00  0.00    +0.000 HD
ATOM      4  H2  CYS A   1     -12.206   7.444 125.498  0.00  0.00    +0.000 HD
ENDBRANCH   1   2
BRANCH   1   5
ATOM      5  C   CYS A   1     -10.583   7.537 127.899  0.00  0.00    +0.000 C 
ATOM      6  OXT CYS A   1     -10.078   8.600 128.246  0.00  0.00    +0.000 OA
BRANCH   5   7
ATOM      7  O   CYS A   1      -9.865   6.392 127.800  0.00  0.00    +0.000 OA
ATOM      8  H   CYS A   1      -8.910   6.620 127.715  0.00  0.00    +0.000 HD
ENDBRANCH   5   7
ENDBRANCH   1   5
BRANCH   1   9
ATOM      9  CB  CYS A   1     -12.749   6.559 128.674  0.00  0.00    +0.000 C 
BRANCH   9  10
ATOM     10  SG  CYS A   1     -12.715   7.420 130.290  0.00  0.00    +0.000 S 
ATOM     11  HG  CYS A   1     -13.972   7.892 130.270  0.00  0.00    +0.000 HD
ENDBRANCH   9  10
ENDBRANCH   1   9
TORSDOF 5
ENDMDL
MODEL 4
REMARK VINA RESULT:      -3.4      3.923      4.321
REMARK  Name = Cysteine
REMARK  5 active torsions:
REMARK  status: ('A' for Active; 'I' for Inactive)
REMARK    1  A    between atoms: N_1  and  CA_2
REMARK    2  A    between atoms: CA_2  and  CB_3
REMARK    3  A    between atoms: CA_2  and  C_5
REMARK    4  A    between atoms: CB_3  and  SG_4
REMARK    5  A    between atoms: C_5  and  O_6
REMARK                            x       y       z     vdW  Elec       q    Type
REMARK                         _______ _______ _______ _____ _____    ______ ____
ROOT
ATOM      1  CA  CYS A   1     -11.328   6.285 129.986  0.00  0.00    +0.000 C 
ENDROOT
BRANCH   1   2
ATOM      2  N   CYS A   1     -12.375   6.127 128.929  0.00  0.00    +0.000 NA
ATOM      3  H1  CYS A   1     -12.431   7.045 128.464  0.00  0.00    +0.000 HD
ATOM      4  H2  CYS A   1     -13.292   6.067 129.381  0.00  0.00    +0.000 HD
ENDBRANCH   1   2
BRANCH   1   5
ATOM      5  C   CYS A   1     -11.983   6.508 131.354  0.00  0.00    +0.000 C 
ATOM      6  OXT CYS A   1     -13.049   7.093 131.513  0.00  0.00    +0.000 OA
BRANCH   5   7
ATOM      7  O   CYS A   1     -11.283   5.985 132.389  0.00  0.00    +0.000 OA
ATOM      8  H   CYS A   1     -11.357   5.002 132.361  0.00  0.00    +0.000 HD
ENDBRANCH   5   7
ENDBRANCH   1   5
BRANCH   1   9
ATOM      9  CB  CYS A   1     -10.382   7.459 129.687  0.00  0.00    +0.000 C 
BRANCH   9  10
ATOM     10  SG  CYS A   1     -10.840   8.361 128.161  0.00  0.00    +0.000 S 
ATOM     11  HG  CYS A   1     -12.173   8.327 128.323  0.00  0.00    +0.000 HD
ENDBRANCH   9  10
ENDBRANCH   1   9
TORSDOF 5
ENDMDL
MODEL 5
REMARK VINA RESULT:      -3.3      4.456      4.699
REMARK  Name = Cysteine
REMARK  5 active torsions:
REMARK  status: ('A' for Active; 'I' for Inactive)
REMARK    1  A    between atoms: N_1  and  CA_2
REMARK    2  A    between atoms: CA_2  and  CB_3
REMARK    3  A    between atoms: CA_2  and  C_5
REMARK    4  A    between atoms: CB_3  and  SG_4
REMARK    5  A    between atoms: C_5  and  O_6
REMARK                            x       y       z     vdW  Elec       q    Type
REMARK                         _______ _______ _______ _____ _____    ______ ____
ROOT
ATOM      1  CA  CYS A   1     -11.757   6.646 130.778  0.00  0.00    +0.000 C 
ENDROOT
BRANCH   1   2
ATOM      2  N   CYS A   1     -12.929   7.148 131.561  0.00  0.00    +0.000 NA
ATOM      3  H1  CYS A   1     -12.726   6.897 132.540  0.00  0.00    +0.000 HD
ATOM      4  H2  CYS A   1     -13.738   6.553 131.359  0.00  0.00    +0.000 HD
ENDBRANCH   1   2
BRANCH   1   5
ATOM      5  C   CYS A   1     -10.575   6.361 131.712  0.00  0.00    +0.000 C 
ATOM      6  OXT CYS A   1      -9.445   6.808 131.540  0.00  0.00    +0.000 OA
BRANCH   5   7
ATOM      7  O   CYS A   1     -10.888   5.573 132.769  0.00  0.00    +0.000 OA
ATOM      8  H   CYS A   1     -11.869   5.500 132.833  0.00  0.00    +0.000 HD
ENDBRANCH   5   7
ENDBRANCH   1   5
BRANCH   1   9
ATOM      9  CB  CYS A   1     -11.312   7.651 129.702  0.00  0.00    +0.000 C 
BRANCH   9  10
ATOM     10  SG  CYS A   1     -12.631   8.844 129.266  0.00  0.00    +0.000 S 
ATOM     11  HG  CYS A   1     -13.180   8.962 130.485  0.00  0.00    +0.000 HD
ENDBRANCH   9  10
ENDBRANCH   1   9
TORSDOF 5
ENDMDL
MODEL 6
REMARK VINA RESULT:      -3.2      3.893      4.206
REMARK  Name = Cysteine
REMARK  5 active torsions:
REMARK  status: ('A' for Active; 'I' for Inactive)
REMARK    1  A    between atoms: N_1  and  CA_2
REMARK    2  A    between atoms: CA_2  and  CB_3
REMARK    3  A    between atoms: CA_2  and  C_5
REMARK    4  A    between atoms: CB_3  and  SG_4
REMARK    5  A    between atoms: C_5  and  O_6
REMARK                            x       y       z     vdW  Elec       q    Type
REMARK                         _______ _______ _______ _____ _____    ______ ____
ROOT
ATOM      1  CA  CYS A   1     -11.382   6.505 130.566  0.00  0.00    +0.000 C 
ENDROOT
BRANCH   1   2
ATOM      2  N   CYS A   1     -11.936   6.125 131.904  0.00  0.00    +0.000 NA
ATOM      3  H1  CYS A   1     -12.956   6.246 131.817  0.00  0.00    +0.000 HD
ATOM      4  H2  CYS A   1     -11.697   6.858 132.578  0.00  0.00    +0.000 HD
ENDBRANCH   1   2
BRANCH   1   5
ATOM      5  C   CYS A   1      -9.917   6.938 130.701  0.00  0.00    +0.000 C 
ATOM      6  OXT CYS A   1      -9.229   6.720 131.693  0.00  0.00    +0.000 OA
BRANCH   5   7
ATOM      7  O   CYS A   1      -9.433   7.579 129.610  0.00  0.00    +0.000 OA
ATOM      8  H   CYS A   1      -9.986   8.375 129.434  0.00  0.00    +0.000 HD
ENDBRANCH   5   7
ENDBRANCH   1   5
BRANCH   1   9
ATOM      9  CB  CYS A   1     -12.182   7.645 129.915  0.00  0.00    +0.000 C 
BRANCH   9  10
ATOM     10  SG  CYS A   1     -13.245   7.064 128.542  0.00  0.00    +0.000 S 
ATOM     11  HG  CYS A   1     -13.682   8.265 128.129  0.00  0.00    +0.000 HD
ENDBRANCH   9  10
ENDBRANCH   1   9
TORSDOF 5
ENDMDL
MODEL 7
REMARK VINA RESULT:      -3.1      2.439      2.826
REMARK  Name = Cysteine
REMARK  5 active torsions:
REMARK  status: ('A' for Active; 'I' for Inactive)
REMARK    1  A    between atoms: N_1  and  CA_2
REMARK    2  A    between atoms: CA_2  and  CB_3
REMARK    3  A    between atoms: CA_2  and  C_5
REMARK    4  A    between atoms: CB_3  and  SG_4
REMARK    5  A    between atoms: C_5  and  O_6
REMARK                            x       y       z     vdW  Elec       q    Type
REMARK                         _______ _______ _______ _____ _____    ______ ____
ROOT
ATOM      1  CA  CYS A   1     -10.931   7.958 129.059  0.00  0.00    +0.000 C 
ENDROOT
BRANCH   1   2
ATOM      2  N   CYS A   1     -10.741   8.840 127.865  0.00  0.00    +0.000 NA
ATOM      3  H1  CYS A   1      -9.728   8.824 127.677  0.00  0.00    +0.000 HD
ATOM      4  H2  CYS A   1     -10.885   9.813 128.149  0.00  0.00    +0.000 HD
ENDBRANCH   1   2
BRANCH   1   5
ATOM      5  C   CYS A   1     -10.424   6.542 128.761  0.00  0.00    +0.000 C 
ATOM      6  OXT CYS A   1     -10.607   5.581 129.502  0.00  0.00    +0.000 OA
BRANCH   5   7
ATOM      7  O   CYS A   1      -9.760   6.433 127.585  0.00  0.00    +0.000 OA
ATOM      8  H   CYS A   1      -9.675   7.328 127.182  0.00  0.00    +0.000 HD
ENDBRANCH   5   7
ENDBRANCH   1   5
BRANCH   1   9
ATOM      9  CB  CYS A   1     -12.406   7.881 129.488  0.00  0.00    +0.000 C 
BRANCH   9  10
ATOM     10  SG  CYS A   1     -13.504   7.319 128.134  0.00  0.00    +0.000 S 
ATOM     11  HG  CYS A   1     -14.677   7.591 128.727  0.00  0.00    +0.000 HD
ENDBRANCH   9  10
ENDBRANCH   1   9
TORSDOF 5
ENDMDL
MODEL 8
REMARK VINA RESULT:      -3.1      2.914      3.299
REMARK  Name = Cysteine
REMARK  5 active torsions:
REMARK  status: ('A' for Active; 'I' for Inactive)
REMARK    1  A    between atoms: N_1  and  CA_2
REMARK    2  A    between atoms: CA_2  and  CB_3
REMARK    3  A    between atoms: CA_2  and  C_5
REMARK    4  A    between atoms: CB_3  and  SG_4
REMARK    5  A    between atoms: C_5  and  O_6
REMARK                            x       y       z     vdW  Elec       q    Type
REMARK                         _______ _______ _______ _____ _____    ______ ____
ROOT
ATOM      1  CA  CYS A   1     -12.959   7.331 130.026  0.00  0.00    +0.000 C 
ENDROOT
BRANCH   1   2
ATOM      2  N   CYS A   1     -12.879   7.009 131.485  0.00  0.00    +0.000 NA
ATOM      3  H1  CYS A   1     -11.883   6.818 131.665  0.00  0.00    +0.000 HD
ATOM      4  H2  CYS A   1     -13.300   6.089 131.642  0.00  0.00    +0.000 HD
ENDBRANCH   1   2
BRANCH   1   5
ATOM      5  C   CYS A   1     -12.273   6.235 129.201  0.00  0.00    +0.000 C 
ATOM      6  OXT CYS A   1     -11.804   5.210 129.685  0.00  0.00    +0.000 OA
BRANCH   5   7
ATOM      7  O   CYS A   1     -12.240   6.489 127.871  0.00  0.00    +0.000 OA
ATOM      8  H   CYS A   1     -12.994   6.025 127.438  0.00  0.00    +0.000 HD
ENDBRANCH   5   7
ENDBRANCH   1   5
BRANCH   1   9
ATOM      9  CB  CYS A   1     -12.307   8.684 129.698  0.00  0.00    +0.000 C 
BRANCH   9  10
ATOM     10  SG  CYS A   1     -13.452   9.829 128.843  0.00  0.00    +0.000 S 
ATOM     11  HG  CYS A   1     -14.508   9.671 129.657  0.00  0.00    +0.000 HD
ENDBRANCH   9  10
ENDBRANCH   1   9
TORSDOF 5
ENDMDL
MODEL 9
REMARK VINA RESULT:      -3.1      7.427      7.878
REMARK  Name = Cysteine
REMARK  5 active torsions:
REMARK  status: ('A' for Active; 'I' for Inactive)
REMARK    1  A    between atoms: N_1  and  CA_2
REMARK    2  A    between atoms: CA_2  and  CB_3
REMARK    3  A    between atoms: CA_2  and  C_5
REMARK    4  A    between atoms: CB_3  and  SG_4
REMARK    5  A    between atoms: C_5  and  O_6
REMARK                            x       y       z     vdW  Elec       q    Type
REMARK                         _______ _______ _______ _____ _____    ______ ____
ROOT
ATOM      1  CA  CYS A   1      -9.248   1.842 123.485  0.00  0.00    +0.000 C 
ENDROOT
BRANCH   1   2
ATOM      2  N   CYS A   1      -9.478   2.811 124.602  0.00  0.00    +0.000 NA
ATOM      3  H1  CYS A   1     -10.252   2.410 125.152  0.00  0.00    +0.000 HD
ATOM      4  H2  CYS A   1      -9.911   3.656 124.219  0.00  0.00    +0.000 HD
ENDBRANCH   1   2
BRANCH   1   5
ATOM      5  C   CYS A   1     -10.531   1.055 123.191  0.00  0.00    +0.000 C 
ATOM      6  OXT CYS A   1     -10.616   0.187 122.328  0.00  0.00    +0.000 OA
BRANCH   5   7
ATOM      7  O   CYS A   1     -11.575   1.390 123.986  0.00  0.00    +0.000 OA
ATOM      8  H   CYS A   1     -11.272   1.402 124.924  0.00  0.00    +0.000 HD
ENDBRANCH   5   7
ENDBRANCH   1   5
BRANCH   1   9
ATOM      9  CB  CYS A   1      -8.117   0.852 123.806  0.00  0.00    +0.000 C 
BRANCH   9  10
ATOM     10  SG  CYS A   1      -8.472  -0.165 125.287  0.00  0.00    +0.000 S 
ATOM     11  HG  CYS A   1      -7.331  -0.873 125.299  0.00  0.00    +0.000 HD
ENDBRANCH   9  10
ENDBRANCH   1   9
TORSDOF 5
ENDMDL
