MODEL 1
REMARK VINA RESULT:      -6.2      0.000      0.000
REMARK  Name = Cytarabine
REMARK  5 active torsions:
REMARK  status: ('A' for Active; 'I' for Inactive)
REMARK    1  A    between atoms: N1_6  and  C1*_9
REMARK    2  A    between atoms: C4*_11  and  C5*_12
REMARK    3  A    between atoms: C5*_12  and  O5*_13
REMARK    4  A    between atoms: C3*_14  and  O3*_15
REMARK    5  A    between atoms: C2*_16  and  O2*_17
REMARK                            x       y       z     vdW  Elec       q    Type
REMARK                         _______ _______ _______ _____ _____    ______ ____
ROOT
ATOM      1  C1*   C A   1     -12.239   6.484 129.644  0.00  0.00    +0.000 C 
ATOM      2  O4*   C A   1     -11.988   6.256 128.241  0.00  0.00    +0.000 OA
ATOM      3  C4*   C A   1     -12.298   7.473 127.511  0.00  0.00    +0.000 C 
ATOM      4  C3*   C A   1     -12.449   8.608 128.534  0.00  0.00    +0.000 C 
ATOM      5  C2*   C A   1     -12.960   7.840 129.751  0.00  0.00    +0.000 C 
ENDROOT
BRANCH   1  11
ATOM      6  N4    C A   1      -7.603   6.174 132.663  0.00  0.00    +0.000 N 
ATOM      7  C4    C A   1      -8.728   6.317 131.917  0.00  0.00    +0.000 A 
ATOM      8  N3    C A   1      -9.842   6.021 132.495  0.00  0.00    +0.000 NA
ATOM      9  C2    C A   1     -11.007   6.221 131.819  0.00  0.00    +0.000 A 
ATOM     10  O2    C A   1     -12.044   6.233 132.472  0.00  0.00    +0.000 OA
ATOM     11  N1    C A   1     -10.984   6.362 130.428  0.00  0.00    +0.000 N 
ATOM     12  C6    C A   1      -9.769   6.572 129.796  0.00  0.00    +0.000 A 
ATOM     13  C5    C A   1      -8.655   6.749 130.512  0.00  0.00    +0.000 A 
ATOM     14  H41   C A   1      -7.707   5.759 133.583  0.00  0.00    +0.000 HD
ATOM     15  H42   C A   1      -6.676   6.322 132.302  0.00  0.00    +0.000 HD
ENDBRANCH   1  11
BRANCH   4  16
ATOM     16  O3*   C A   1     -13.265   9.700 128.128  0.00  0.00    +0.000 OA
ATOM     17  H3*   C A   1     -12.805  10.539 128.253  0.00  0.00    +0.000 HD
ENDBRANCH   4  16
BRANCH   5  18
ATOM     18  O2*   C A   1     -12.748   8.479 131.003  0.00  0.00    +0.000 OA
ATOM     19  H2*   C A   1     -11.877   8.916 130.951  0.00  0.00    +0.000 HD
ENDBRANCH   5  18
BRANCH   3  20
ATOM     20  C5*   C A   1     -11.223   7.731 126.448  0.00  0.00    +0.000 C 
BRANCH  20  21
ATOM     21  O5*   C A   1     -10.462   6.570 126.145  0.00  0.00    +0.000 OA
ATOM     22  H5*   C A   1     -10.742   5.857 126.739  0.00  0.00    +0.000 HD
ENDBRANCH  20  21
ENDBRANCH   3  20
TORSDOF 5
ENDMDL
MODEL 2
REMARK VINA RESULT:      -6.2      1.861      3.074
REMARK  Name = Cytarabine
REMARK  5 active torsions:
REMARK  status: ('A' for Active; 'I' for Inactive)
REMARK    1  A    between atoms: N1_6  and  C1*_9
REMARK    2  A    between atoms: C4*_11  and  C5*_12
REMARK    3  A    between atoms: C5*_12  and  O5*_13
REMARK    4  A    between atoms: C3*_14  and  O3*_15
REMARK    5  A    between atoms: C2*_16  and  O2*_17
REMARK                            x       y       z     vdW  Elec       q    Type
REMARK                         _______ _______ _______ _____ _____    ______ ____
ROOT
ATOM      1  C1*   C A   1     -10.087   7.984 128.874  0.00  0.00    +0.000 C 
ATOM      2  O4*   C A   1     -11.279   8.800 128.847  0.00  0.00    +0.000 OA
ATOM      3  C4*   C A   1     -12.114   8.363 127.741  0.00  0.00    +0.000 C 
ATOM      4  C3*   C A   1     -11.570   7.015 127.247  0.00  0.00    +0.000 C 
ATOM      5  C2*   C A   1     -10.086   7.158 127.576  0.00  0.00    +0.000 C 
ENDROOT
BRANCH   1  11
ATOM      6  N4    C A   1      -9.703   4.952 133.495  0.00  0.00    +0.000 N 
ATOM      7  C4    C A   1      -9.801   5.637 132.327  0.00  0.00    +0.000 A 
ATOM      8  N3    C A   1      -8.793   6.375 132.008  0.00  0.00    +0.000 NA
ATOM      9  C2    C A   1      -8.806   7.021 130.809  0.00  0.00    +0.000 A 
ATOM     10  O2    C A   1      -7.739   7.454 130.390  0.00  0.00    +0.000 OA
ATOM     11  N1    C A   1     -10.017   7.202 130.133  0.00  0.00    +0.000 N 
ATOM     12  C6    C A   1     -11.128   6.487 130.549  0.00  0.00    +0.000 A 
ATOM     13  C5    C A   1     -11.019   5.560 131.504  0.00  0.00    +0.000 A 
ATOM     14  H41   C A   1      -8.892   5.139 134.075  0.00  0.00    +0.000 HD
ATOM     15  H42   C A   1     -10.447   4.390 133.873  0.00  0.00    +0.000 HD
ENDBRANCH   1  11
BRANCH   4  16
ATOM     16  O3*   C A   1     -11.857   6.694 125.891  0.00  0.00    +0.000 OA
ATOM     17  H3*   C A   1     -11.144   6.986 125.310  0.00  0.00    +0.000 HD
ENDBRANCH   4  16
BRANCH   5  18
ATOM     18  O2*   C A   1      -9.374   5.935 127.703  0.00  0.00    +0.000 OA
ATOM     19  H2*   C A   1      -8.426   6.165 127.748  0.00  0.00    +0.000 HD
ENDBRANCH   5  18
BRANCH   3  20
ATOM     20  C5*   C A   1     -13.582   8.321 128.182  0.00  0.00    +0.000 C 
BRANCH  20  21
ATOM     21  O5*   C A   1     -13.887   7.173 128.962  0.00  0.00    +0.000 OA
ATOM     22  H5*   C A   1     -13.160   7.026 129.587  0.00  0.00    +0.000 HD
ENDBRANCH  20  21
ENDBRANCH   3  20
TORSDOF 5
ENDMDL
MODEL 3
REMARK VINA RESULT:      -6.2      8.024      9.843
REMARK  Name = Cytarabine
REMARK  5 active torsions:
REMARK  status: ('A' for Active; 'I' for Inactive)
REMARK    1  A    between atoms: N1_6  and  C1*_9
REMARK    2  A    between atoms: C4*_11  and  C5*_12
REMARK    3  A    between atoms: C5*_12  and  O5*_13
REMARK    4  A    between atoms: C3*_14  and  O3*_15
REMARK    5  A    between atoms: C2*_16  and  O2*_17
REMARK                            x       y       z     vdW  Elec       q    Type
REMARK                         _______ _______ _______ _____ _____    ______ ____
ROOT
ATOM      1  C1*   C A   1      -6.942   2.296 123.905  0.00  0.00    +0.000 C 
ATOM      2  O4*   C A   1      -7.248   0.940 123.514  0.00  0.00    +0.000 OA
ATOM      3  C4*   C A   1      -8.665   0.703 123.732  0.00  0.00    +0.000 C 
ATOM      4  C3*   C A   1      -9.335   2.063 123.974  0.00  0.00    +0.000 C 
ATOM      5  C2*   C A   1      -8.191   2.844 124.617  0.00  0.00    +0.000 C 
ENDROOT
BRANCH   1  11
ATOM      6  N4    C A   1      -5.239   5.388 119.635  0.00  0.00    +0.000 N 
ATOM      7  C4    C A   1      -5.715   4.665 120.680  0.00  0.00    +0.000 A 
ATOM      8  N3    C A   1      -5.062   4.759 121.788  0.00  0.00    +0.000 NA
ATOM      9  C2    C A   1      -5.540   4.117 122.889  0.00  0.00    +0.000 A 
ATOM     10  O2    C A   1      -5.097   4.460 123.979  0.00  0.00    +0.000 OA
ATOM     11  N1    C A   1      -6.470   3.084 122.739  0.00  0.00    +0.000 N 
ATOM     12  C6    C A   1      -7.092   2.916 121.512  0.00  0.00    +0.000 A 
ATOM     13  C5    C A   1      -6.892   3.794 120.526  0.00  0.00    +0.000 A 
ATOM     14  H41   C A   1      -4.358   5.873 119.769  0.00  0.00    +0.000 HD
ATOM     15  H42   C A   1      -5.634   5.350 118.709  0.00  0.00    +0.000 HD
ENDBRANCH   1  11
BRANCH   4  16
ATOM     16  O3*   C A   1     -10.540   2.031 124.731  0.00  0.00    +0.000 OA
ATOM     17  H3*   C A   1     -11.208   1.491 124.291  0.00  0.00    +0.000 HD
ENDBRANCH   4  16
BRANCH   5  18
ATOM     18  O2*   C A   1      -8.299   4.259 124.527  0.00  0.00    +0.000 OA
ATOM     19  H2*   C A   1      -8.902   4.448 123.783  0.00  0.00    +0.000 HD
ENDBRANCH   5  18
BRANCH   3  20
ATOM     20  C5*   C A   1      -9.251  -0.079 122.550  0.00  0.00    +0.000 C 
BRANCH  20  21
ATOM     21  O5*   C A   1     -10.654   0.099 122.416  0.00  0.00    +0.000 OA
ATOM     22  H5*   C A   1     -10.840   0.391 121.510  0.00  0.00    +0.000 HD
ENDBRANCH  20  21
ENDBRANCH   3  20
TORSDOF 5
ENDMDL
MODEL 4
REMARK VINA RESULT:      -6.1      2.719      4.933
REMARK  Name = Cytarabine
REMARK  5 active torsions:
REMARK  status: ('A' for Active; 'I' for Inactive)
REMARK    1  A    between atoms: N1_6  and  C1*_9
REMARK    2  A    between atoms: C4*_11  and  C5*_12
REMARK    3  A    between atoms: C5*_12  and  O5*_13
REMARK    4  A    between atoms: C3*_14  and  O3*_15
REMARK    5  A    between atoms: C2*_16  and  O2*_17
REMARK                            x       y       z     vdW  Elec       q    Type
REMARK                         _______ _______ _______ _____ _____    ______ ____
ROOT
ATOM      1  C1*   C A   1     -10.334   6.103 131.595  0.00  0.00    +0.000 C 
ATOM      2  O4*   C A   1      -9.089   6.627 132.104  0.00  0.00    +0.000 OA
ATOM      3  C4*   C A   1      -7.998   5.828 131.572  0.00  0.00    +0.000 C 
ATOM      4  C3*   C A   1      -8.562   4.964 130.435  0.00  0.00    +0.000 C 
ATOM      5  C2*   C A   1     -10.004   4.771 130.899  0.00  0.00    +0.000 C 
ENDROOT
BRANCH   1  11
ATOM      6  N4    C A   1     -13.024   9.747 128.403  0.00  0.00    +0.000 N 
ATOM      7  C4    C A   1     -12.369   8.809 129.134  0.00  0.00    +0.000 A 
ATOM      8  N3    C A   1     -12.946   8.421 130.220  0.00  0.00    +0.000 NA
ATOM      9  C2    C A   1     -12.371   7.426 130.950  0.00  0.00    +0.000 A 
ATOM     10  O2    C A   1     -13.069   6.865 131.787  0.00  0.00    +0.000 OA
ATOM     11  N1    C A   1     -11.023   7.114 130.754  0.00  0.00    +0.000 N 
ATOM     12  C6    C A   1     -10.373   7.622 129.640  0.00  0.00    +0.000 A 
ATOM     13  C5    C A   1     -11.051   8.305 128.714  0.00  0.00    +0.000 A 
ATOM     14  H41   C A   1     -13.867  10.142 128.805  0.00  0.00    +0.000 HD
ATOM     15  H42   C A   1     -12.645  10.164 127.569  0.00  0.00    +0.000 HD
ENDBRANCH   1  11
BRANCH   4  16
ATOM     16  O3*   C A   1      -7.852   3.761 130.165  0.00  0.00    +0.000 OA
ATOM     17  H3*   C A   1      -7.986   3.480 129.251  0.00  0.00    +0.000 HD
ENDBRANCH   4  16
BRANCH   5  18
ATOM     18  O2*   C A   1     -10.931   4.441 129.874  0.00  0.00    +0.000 OA
ATOM     19  H2*   C A   1     -10.520   3.734 129.341  0.00  0.00    +0.000 HD
ENDBRANCH   5  18
BRANCH   3  20
ATOM     20  C5*   C A   1      -6.842   6.741 131.147  0.00  0.00    +0.000 C 
BRANCH  20  21
ATOM     21  O5*   C A   1      -6.130   6.238 130.025  0.00  0.00    +0.000 OA
ATOM     22  H5*   C A   1      -5.575   5.499 130.320  0.00  0.00    +0.000 HD
ENDBRANCH  20  21
ENDBRANCH   3  20
TORSDOF 5
ENDMDL
MODEL 5
REMARK VINA RESULT:      -5.9      8.654      9.762
REMARK  Name = Cytarabine
REMARK  5 active torsions:
REMARK  status: ('A' for Active; 'I' for Inactive)
REMARK    1  A    between atoms: N1_6  and  C1*_9
REMARK    2  A    between atoms: C4*_11  and  C5*_12
REMARK    3  A    between atoms: C5*_12  and  O5*_13
REMARK    4  A    between atoms: C3*_14  and  O3*_15
REMARK    5  A    between atoms: C2*_16  and  O2*_17
REMARK                            x       y       z     vdW  Elec       q    Type
REMARK                         _______ _______ _______ _____ _____    ______ ____
ROOT
ATOM      1  C1*   C A   1      -9.614   0.307 123.757  0.00  0.00    +0.000 C 
ATOM      2  O4*   C A   1      -9.449   1.121 122.576  0.00  0.00    +0.000 OA
ATOM      3  C4*   C A   1      -9.155   2.482 122.988  0.00  0.00    +0.000 C 
ATOM      4  C3*   C A   1      -8.812   2.455 124.484  0.00  0.00    +0.000 C 
ATOM      5  C2*   C A   1      -9.650   1.270 124.957  0.00  0.00    +0.000 C 
ENDROOT
BRANCH   1  11
ATOM      6  N4    C A   1      -5.732  -3.627 124.151  0.00  0.00    +0.000 N 
ATOM      7  C4    C A   1      -6.648  -2.626 124.101  0.00  0.00    +0.000 A 
ATOM      8  N3    C A   1      -7.847  -2.926 124.470  0.00  0.00    +0.000 NA
ATOM      9  C2    C A   1      -8.786  -1.942 124.513  0.00  0.00    +0.000 A 
ATOM     10  O2    C A   1      -9.811  -2.168 125.148  0.00  0.00    +0.000 OA
ATOM     11  N1    C A   1      -8.574  -0.750 123.814  0.00  0.00    +0.000 N 
ATOM     12  C6    C A   1      -7.306  -0.480 123.323  0.00  0.00    +0.000 A 
ATOM     13  C5    C A   1      -6.282  -1.288 123.609  0.00  0.00    +0.000 A 
ATOM     14  H41   C A   1      -6.071  -4.554 124.384  0.00  0.00    +0.000 HD
ATOM     15  H42   C A   1      -4.782  -3.524 123.836  0.00  0.00    +0.000 HD
ENDBRANCH   1  11
BRANCH   4  16
ATOM     16  O3*   C A   1      -9.035   3.669 125.191  0.00  0.00    +0.000 OA
ATOM     17  H3*   C A   1      -9.650   4.238 124.712  0.00  0.00    +0.000 HD
ENDBRANCH   4  16
BRANCH   5  18
ATOM     18  O2*   C A   1      -9.212   0.661 126.164  0.00  0.00    +0.000 OA
ATOM     19  H2*   C A   1      -9.982   0.188 126.535  0.00  0.00    +0.000 HD
ENDBRANCH   5  18
BRANCH   3  20
ATOM     20  C5*   C A   1      -8.047   3.067 122.104  0.00  0.00    +0.000 C 
BRANCH  20  21
ATOM     21  O5*   C A   1      -7.123   3.862 122.836  0.00  0.00    +0.000 OA
ATOM     22  H5*   C A   1      -7.374   4.793 122.735  0.00  0.00    +0.000 HD
ENDBRANCH  20  21
ENDBRANCH   3  20
TORSDOF 5
ENDMDL
MODEL 6
REMARK VINA RESULT:      -5.8      2.475      3.029
REMARK  Name = Cytarabine
REMARK  5 active torsions:
REMARK  status: ('A' for Active; 'I' for Inactive)
REMARK    1  A    between atoms: N1_6  and  C1*_9
REMARK    2  A    between atoms: C4*_11  and  C5*_12
REMARK    3  A    between atoms: C5*_12  and  O5*_13
REMARK    4  A    between atoms: C3*_14  and  O3*_15
REMARK    5  A    between atoms: C2*_16  and  O2*_17
REMARK                            x       y       z     vdW  Elec       q    Type
REMARK                         _______ _______ _______ _____ _____    ______ ____
ROOT
ATOM      1  C1*   C A   1     -10.787   6.814 131.031  0.00  0.00    +0.000 C 
ATOM      2  O4*   C A   1     -12.133   6.949 130.524  0.00  0.00    +0.000 OA
ATOM      3  C4*   C A   1     -12.068   7.477 129.172  0.00  0.00    +0.000 C 
ATOM      4  C3*   C A   1     -10.611   7.372 128.698  0.00  0.00    +0.000 C 
ATOM      5  C2*   C A   1      -9.861   7.512 130.020  0.00  0.00    +0.000 C 
ENDROOT
BRANCH   1  11
ATOM      6  N4    C A   1      -9.444   1.533 132.038  0.00  0.00    +0.000 N 
ATOM      7  C4    C A   1      -9.736   2.823 131.734  0.00  0.00    +0.000 A 
ATOM      8  N3    C A   1      -9.335   3.716 132.574  0.00  0.00    +0.000 NA
ATOM      9  C2    C A   1      -9.531   5.031 132.280  0.00  0.00    +0.000 A 
ATOM     10  O2    C A   1      -8.884   5.854 132.916  0.00  0.00    +0.000 OA
ATOM     11  N1    C A   1     -10.474   5.390 131.312  0.00  0.00    +0.000 N 
ATOM     12  C6    C A   1     -10.987   4.407 130.480  0.00  0.00    +0.000 A 
ATOM     13  C5    C A   1     -10.506   3.162 130.526  0.00  0.00    +0.000 A 
ATOM     14  H41   C A   1      -9.018   1.355 132.941  0.00  0.00    +0.000 HD
ATOM     15  H42   C A   1      -9.754   0.750 131.487  0.00  0.00    +0.000 HD
ENDBRANCH   1  11
BRANCH   4  16
ATOM     16  O3*   C A   1     -10.224   8.294 127.687  0.00  0.00    +0.000 OA
ATOM     17  H3*   C A   1     -10.377   7.926 126.808  0.00  0.00    +0.000 HD
ENDBRANCH   4  16
BRANCH   5  18
ATOM     18  O2*   C A   1      -8.541   6.983 130.026  0.00  0.00    +0.000 OA
ATOM     19  H2*   C A   1      -8.548   6.204 129.437  0.00  0.00    +0.000 HD
ENDBRANCH   5  18
BRANCH   3  20
ATOM     20  C5*   C A   1     -13.070   6.739 128.276  0.00  0.00    +0.000 C 
BRANCH  20  21
ATOM     21  O5*   C A   1     -12.641   6.658 126.924  0.00  0.00    +0.000 OA
ATOM     22  H5*   C A   1     -12.813   7.513 126.497  0.00  0.00    +0.000 HD
ENDBRANCH  20  21
ENDBRANCH   3  20
TORSDOF 5
ENDMDL
MODEL 7
REMARK VINA RESULT:      -5.7      7.715      9.184
REMARK  Name = Cytarabine
REMARK  5 active torsions:
REMARK  status: ('A' for Active; 'I' for Inactive)
REMARK    1  A    between atoms: N1_6  and  C1*_9
REMARK    2  A    between atoms: C4*_11  and  C5*_12
REMARK    3  A    between atoms: C5*_12  and  O5*_13
REMARK    4  A    between atoms: C3*_14  and  O3*_15
REMARK    5  A    between atoms: C2*_16  and  O2*_17
REMARK                            x       y       z     vdW  Elec       q    Type
REMARK                         _______ _______ _______ _____ _____    ______ ____
ROOT
ATOM      1  C1*   C A   1      -8.090   1.284 123.611  0.00  0.00    +0.000 C 
ATOM      2  O4*   C A   1      -6.744   1.762 123.823  0.00  0.00    +0.000 OA
ATOM      3  C4*   C A   1      -6.809   3.053 124.486  0.00  0.00    +0.000 C 
ATOM      4  C3*   C A   1      -8.246   3.247 124.992  0.00  0.00    +0.000 C 
ATOM      5  C2*   C A   1      -9.033   2.450 123.956  0.00  0.00    +0.000 C 
ENDROOT
BRANCH   1  11
ATOM      6  N4    C A   1      -9.139  -3.370 126.428  0.00  0.00    +0.000 N 
ATOM      7  C4    C A   1      -8.922  -2.197 125.783  0.00  0.00    +0.000 A 
ATOM      8  N3    C A   1      -9.330  -2.129 124.561  0.00  0.00    +0.000 NA
ATOM      9  C2    C A   1      -9.208  -0.949 123.892  0.00  0.00    +0.000 A 
ATOM     10  O2    C A   1      -9.866  -0.811 122.867  0.00  0.00    +0.000 OA
ATOM     11  N1    C A   1      -8.324   0.026 124.364  0.00  0.00    +0.000 N 
ATOM     12  C6    C A   1      -7.800  -0.107 125.640  0.00  0.00    +0.000 A 
ATOM     13  C5    C A   1      -8.219  -1.086 126.445  0.00  0.00    +0.000 A 
ATOM     14  H41   C A   1      -9.519  -4.137 125.881  0.00  0.00    +0.000 HD
ATOM     15  H42   C A   1      -8.816  -3.557 127.363  0.00  0.00    +0.000 HD
ENDBRANCH   1  11
BRANCH   4  16
ATOM     16  O3*   C A   1      -8.664   4.597 125.157  0.00  0.00    +0.000 OA
ATOM     17  H3*   C A   1      -8.890   4.994 124.307  0.00  0.00    +0.000 HD
ENDBRANCH   4  16
BRANCH   5  18
ATOM     18  O2*   C A   1     -10.318   2.012 124.377  0.00  0.00    +0.000 OA
ATOM     19  H2*   C A   1     -10.972   2.541 123.880  0.00  0.00    +0.000 HD
ENDBRANCH   5  18
BRANCH   3  20
ATOM     20  C5*   C A   1      -5.744   3.128 125.587  0.00  0.00    +0.000 C 
BRANCH  20  21
ATOM     21  O5*   C A   1      -6.250   3.661 126.804  0.00  0.00    +0.000 OA
ATOM     22  H5*   C A   1      -7.059   3.178 127.036  0.00  0.00    +0.000 HD
ENDBRANCH  20  21
ENDBRANCH   3  20
TORSDOF 5
ENDMDL
MODEL 8
REMARK VINA RESULT:      -5.7      1.877      2.833
REMARK  Name = Cytarabine
REMARK  5 active torsions:
REMARK  status: ('A' for Active; 'I' for Inactive)
REMARK    1  A    between atoms: N1_6  and  C1*_9
REMARK    2  A    between atoms: C4*_11  and  C5*_12
REMARK    3  A    between atoms: C5*_12  and  O5*_13
REMARK    4  A    between atoms: C3*_14  and  O3*_15
REMARK    5  A    between atoms: C2*_16  and  O2*_17
REMARK                            x       y       z     vdW  Elec       q    Type
REMARK                         _______ _______ _______ _____ _____    ______ ____
ROOT
ATOM      1  C1*   C A   1     -10.679   5.375 130.238  0.00  0.00    +0.000 C 
ATOM      2  O4*   C A   1     -11.012   6.054 129.008  0.00  0.00    +0.000 OA
ATOM      3  C4*   C A   1     -11.924   7.143 129.311  0.00  0.00    +0.000 C 
ATOM      4  C3*   C A   1     -11.917   7.350 130.832  0.00  0.00    +0.000 C 
ATOM      5  C2*   C A   1     -11.618   5.935 131.320  0.00  0.00    +0.000 C 
ENDROOT
BRANCH   1  11
ATOM      6  N4    C A   1      -5.292   5.750 131.477  0.00  0.00    +0.000 N 
ATOM      7  C4    C A   1      -6.625   5.687 131.234  0.00  0.00    +0.000 A 
ATOM      8  N3    C A   1      -7.126   4.508 131.081  0.00  0.00    +0.000 NA
ATOM      9  C2    C A   1      -8.471   4.382 130.913  0.00  0.00    +0.000 A 
ATOM     10  O2    C A   1      -8.959   3.270 131.079  0.00  0.00    +0.000 OA
ATOM     11  N1    C A   1      -9.227   5.493 130.525  0.00  0.00    +0.000 N 
ATOM     12  C6    C A   1      -8.649   6.750 130.587  0.00  0.00    +0.000 A 
ATOM     13  C5    C A   1      -7.433   6.912 131.114  0.00  0.00    +0.000 A 
ATOM     14  H41   C A   1      -4.770   4.881 131.429  0.00  0.00    +0.000 HD
ATOM     15  H42   C A   1      -4.783   6.615 131.559  0.00  0.00    +0.000 HD
ENDBRANCH   1  11
BRANCH   4  16
ATOM     16  O3*   C A   1     -13.090   7.940 131.380  0.00  0.00    +0.000 OA
ATOM     17  H3*   C A   1     -13.438   8.623 130.794  0.00  0.00    +0.000 HD
ENDBRANCH   4  16
BRANCH   5  18
ATOM     18  O2*   C A   1     -11.065   5.849 132.627  0.00  0.00    +0.000 OA
ATOM     19  H2*   C A   1     -10.722   4.941 132.728  0.00  0.00    +0.000 HD
ENDBRANCH   5  18
BRANCH   3  20
ATOM     20  C5*   C A   1     -11.533   8.390 128.509  0.00  0.00    +0.000 C 
BRANCH  20  21
ATOM     21  O5*   C A   1     -12.396   9.492 128.754  0.00  0.00    +0.000 OA
ATOM     22  H5*   C A   1     -13.133   9.187 129.305  0.00  0.00    +0.000 HD
ENDBRANCH  20  21
ENDBRANCH   3  20
TORSDOF 5
ENDMDL
MODEL 9
REMARK VINA RESULT:      -5.4      8.891     10.658
REMARK  Name = Cytarabine
REMARK  5 active torsions:
REMARK  status: ('A' for Active; 'I' for Inactive)
REMARK    1  A    between atoms: N1_6  and  C1*_9
REMARK    2  A    between atoms: C4*_11  and  C5*_12
REMARK    3  A    between atoms: C5*_12  and  O5*_13
REMARK    4  A    between atoms: C3*_14  and  O3*_15
REMARK    5  A    between atoms: C2*_16  and  O2*_17
REMARK                            x       y       z     vdW  Elec       q    Type
REMARK                         _______ _______ _______ _____ _____    ______ ____
ROOT
ATOM      1  C1*   C A   1      -8.831  -0.682 125.406  0.00  0.00    +0.000 C 
ATOM      2  O4*   C A   1      -7.743  -0.877 126.334  0.00  0.00    +0.000 OA
ATOM      3  C4*   C A   1      -7.123  -2.161 126.057  0.00  0.00    +0.000 C 
ATOM      4  C3*   C A   1      -7.645  -2.651 124.699  0.00  0.00    +0.000 C 
ATOM      5  C2*   C A   1      -9.035  -2.019 124.673  0.00  0.00    +0.000 C 
ENDROOT
BRANCH   1  11
ATOM      6  N4    C A   1      -7.967   3.624 122.027  0.00  0.00    +0.000 N 
ATOM      7  C4    C A   1      -8.164   2.528 122.802  0.00  0.00    +0.000 A 
ATOM      8  N3    C A   1      -9.352   2.366 123.278  0.00  0.00    +0.000 NA
ATOM      9  C2    C A   1      -9.625   1.243 123.997  0.00  0.00    +0.000 A 
ATOM     10  O2    C A   1     -10.804   0.956 124.171  0.00  0.00    +0.000 OA
ATOM     11  N1    C A   1      -8.574   0.494 124.536  0.00  0.00    +0.000 N 
ATOM     12  C6    C A   1      -7.282   0.745 124.102  0.00  0.00    +0.000 A 
ATOM     13  C5    C A   1      -7.057   1.606 123.107  0.00  0.00    +0.000 A 
ATOM     14  H41   C A   1      -8.735   4.283 121.953  0.00  0.00    +0.000 HD
ATOM     15  H42   C A   1      -7.071   3.882 121.649  0.00  0.00    +0.000 HD
ENDBRANCH   1  11
BRANCH   4  16
ATOM     16  O3*   C A   1      -7.622  -4.059 124.501  0.00  0.00    +0.000 OA
ATOM     17  H3*   C A   1      -8.278  -4.497 125.057  0.00  0.00    +0.000 HD
ENDBRANCH   4  16
BRANCH   5  18
ATOM     18  O2*   C A   1      -9.603  -1.858 123.380  0.00  0.00    +0.000 OA
ATOM     19  H2*   C A   1      -8.946  -1.375 122.843  0.00  0.00    +0.000 HD
ENDBRANCH   5  18
BRANCH   3  20
ATOM     20  C5*   C A   1      -5.597  -2.030 126.129  0.00  0.00    +0.000 C 
BRANCH  20  21
ATOM     21  O5*   C A   1      -5.179  -0.828 126.761  0.00  0.00    +0.000 OA
ATOM     22  H5*   C A   1      -5.969  -0.333 127.029  0.00  0.00    +0.000 HD
ENDBRANCH  20  21
ENDBRANCH   3  20
TORSDOF 5
ENDMDL
