MODEL 1
REMARK VINA RESULT:      -6.7      0.000      0.000
REMARK  Name = D-alpha-Tocopherol acetate
REMARK  23 active torsions:
REMARK  status: ('A' for Active; 'I' for Inactive)
REMARK    1  A    between atoms: C_1  and  C_2
REMARK    2  A    between atoms: C_2  and  C_3
REMARK    3  A    between atoms: C_2  and  C_4
REMARK    4  A    between atoms: C_4  and  C_5
REMARK    5  A    between atoms: C_5  and  C_6
REMARK    6  A    between atoms: C_6  and  C_7
REMARK    7  A    between atoms: C_7  and  C_8
REMARK    8  A    between atoms: C_7  and  C_9
REMARK    9  A    between atoms: C_9  and  C_10
REMARK   10  A    between atoms: C_10  and  C_11
REMARK   11  A    between atoms: C_11  and  C_12
REMARK   12  A    between atoms: C_12  and  C_13
REMARK   13  A    between atoms: C_12  and  C_14
REMARK   14  A    between atoms: C_14  and  C_15
REMARK   15  A    between atoms: C_15  and  C_16
REMARK   16  A    between atoms: C_16  and  C_17
REMARK   17  A    between atoms: C_17  and  C_18
REMARK   18  A    between atoms: C_22  and  C_23
REMARK   19  A    between atoms: C_24  and  O_25
REMARK   20  A    between atoms: O_25  and  C_26
REMARK   21  A    between atoms: C_26  and  C_27
REMARK   22  A    between atoms: C_29  and  C_30
REMARK   23  A    between atoms: C_31  and  C_32
REMARK                            x       y       z     vdW  Elec       q    Type
REMARK                         _______ _______ _______ _____ _____    ______ ____
ROOT
ATOM      1  C   UNL     1      -8.474   1.473 125.343  0.00  0.00    +0.000 C 
ATOM      2  C   UNL     1      -8.927   2.708 124.542  0.00  0.00    +0.000 C 
ATOM      3  C   UNL     1      -7.037   1.060 125.051  0.00  0.00    +0.000 C 
ATOM      4  C   UNL     1      -6.204   2.238 125.316  0.00  0.00    +0.000 C 
ATOM      5  C   UNL     1      -6.547   2.859 126.639  0.00  0.00    +0.000 A 
ATOM      6  C   UNL     1      -5.653   3.817 127.099  0.00  0.00    +0.000 A 
ATOM      7  C   UNL     1      -4.546   4.029 126.104  0.00  0.00    +0.000 C 
ATOM      8  C   UNL     1      -5.873   4.452 128.359  0.00  0.00    +0.000 A 
ATOM      9  C   UNL     1      -7.029   4.128 129.131  0.00  0.00    +0.000 A 
ATOM     10  C   UNL     1      -7.319   4.769 130.473  0.00  0.00    +0.000 C 
ATOM     11  C   UNL     1      -7.958   3.170 128.596  0.00  0.00    +0.000 A 
ATOM     12  C   UNL     1      -9.211   2.765 129.340  0.00  0.00    +0.000 C 
ATOM     13  C   UNL     1      -7.717   2.575 127.332  0.00  0.00    +0.000 A 
ATOM     14  O   UNL     1      -8.658   1.737 126.764  0.00  0.00    +0.000 OA
ENDROOT
BRANCH   1  15
ATOM     15  C   UNL     1      -9.323   0.290 124.883  0.00  0.00    +0.000 C 
BRANCH  15  16
ATOM     16  C   UNL     1      -9.478   0.294 123.382  0.00  0.00    +0.000 C 
BRANCH  16  17
ATOM     17  C   UNL     1      -9.406  -1.114 122.840  0.00  0.00    +0.000 C 
BRANCH  17  18
ATOM     18  C   UNL     1      -8.298  -1.882 123.552  0.00  0.00    +0.000 C 
ATOM     19  C   UNL     1      -7.025  -1.946 122.690  0.00  0.00    +0.000 C 
BRANCH  18  20
ATOM     20  C   UNL     1      -8.828  -3.274 123.889  0.00  0.00    +0.000 C 
BRANCH  20  21
ATOM     21  C   UNL     1      -8.320  -3.696 125.247  0.00  0.00    +0.000 C 
BRANCH  21  22
ATOM     22  C   UNL     1      -8.968  -2.908 126.359  0.00  0.00    +0.000 C 
BRANCH  22  23
ATOM     23  C   UNL     1      -7.891  -2.292 127.253  0.00  0.00    +0.000 C 
ATOM     24  C   UNL     1      -6.511  -2.306 126.571  0.00  0.00    +0.000 C 
BRANCH  23  25
ATOM     25  C   UNL     1      -7.875  -3.065 128.573  0.00  0.00    +0.000 C 
BRANCH  25  26
ATOM     26  C   UNL     1      -7.759  -2.104 129.737  0.00  0.00    +0.000 C 
BRANCH  26  27
ATOM     27  C   UNL     1      -7.683  -0.665 129.276  0.00  0.00    +0.000 C 
BRANCH  27  29
ATOM     28  C   UNL     1      -6.096  -0.757 131.190  0.00  0.00    +0.000 C 
ATOM     29  C   UNL     1      -6.545   0.069 129.992  0.00  0.00    +0.000 C 
ATOM     30  C   UNL     1      -5.351   0.325 129.064  0.00  0.00    +0.000 C 
ENDBRANCH  27  29
ENDBRANCH  26  27
ENDBRANCH  25  26
ENDBRANCH  23  25
ENDBRANCH  22  23
ENDBRANCH  21  22
ENDBRANCH  20  21
ENDBRANCH  18  20
ENDBRANCH  17  18
ENDBRANCH  16  17
ENDBRANCH  15  16
ENDBRANCH   1  15
BRANCH   8  31
ATOM     31  O   UNL     1      -4.923   5.476 128.953  0.00  0.00    +0.000 OA
BRANCH  31  32
ATOM     32  C   UNL     1      -3.790   6.400 128.669  0.00  0.00    +0.000 C 
ATOM     33  C   UNL     1      -2.489   5.684 128.602  0.00  0.00    +0.000 C 
ATOM     34  O   UNL     1      -3.892   7.586 128.511  0.00  0.00    +0.000 OA
ENDBRANCH  31  32
ENDBRANCH   8  31
TORSDOF 14
ENDMDL
MODEL 2
REMARK VINA RESULT:      -6.7      2.355      5.629
REMARK  Name = D-alpha-Tocopherol acetate
REMARK  23 active torsions:
REMARK  status: ('A' for Active; 'I' for Inactive)
REMARK    1  A    between atoms: C_1  and  C_2
REMARK    2  A    between atoms: C_2  and  C_3
REMARK    3  A    between atoms: C_2  and  C_4
REMARK    4  A    between atoms: C_4  and  C_5
REMARK    5  A    between atoms: C_5  and  C_6
REMARK    6  A    between atoms: C_6  and  C_7
REMARK    7  A    between atoms: C_7  and  C_8
REMARK    8  A    between atoms: C_7  and  C_9
REMARK    9  A    between atoms: C_9  and  C_10
REMARK   10  A    between atoms: C_10  and  C_11
REMARK   11  A    between atoms: C_11  and  C_12
REMARK   12  A    between atoms: C_12  and  C_13
REMARK   13  A    between atoms: C_12  and  C_14
REMARK   14  A    between atoms: C_14  and  C_15
REMARK   15  A    between atoms: C_15  and  C_16
REMARK   16  A    between atoms: C_16  and  C_17
REMARK   17  A    between atoms: C_17  and  C_18
REMARK   18  A    between atoms: C_22  and  C_23
REMARK   19  A    between atoms: C_24  and  O_25
REMARK   20  A    between atoms: O_25  and  C_26
REMARK   21  A    between atoms: C_26  and  C_27
REMARK   22  A    between atoms: C_29  and  C_30
REMARK   23  A    between atoms: C_31  and  C_32
REMARK                            x       y       z     vdW  Elec       q    Type
REMARK                         _______ _______ _______ _____ _____    ______ ____
ROOT
ATOM      1  C   UNL     1      -6.837  -0.645 131.157  0.00  0.00    +0.000 C 
ATOM      2  C   UNL     1      -6.044   0.189 132.180  0.00  0.00    +0.000 C 
ATOM      3  C   UNL     1      -8.321  -0.751 131.488  0.00  0.00    +0.000 C 
ATOM      4  C   UNL     1      -8.820   0.624 131.602  0.00  0.00    +0.000 C 
ATOM      5  C   UNL     1      -8.374   1.462 130.439  0.00  0.00    +0.000 A 
ATOM      6  C   UNL     1      -8.998   2.697 130.317  0.00  0.00    +0.000 A 
ATOM      7  C   UNL     1      -9.971   2.911 131.443  0.00  0.00    +0.000 C 
ATOM      8  C   UNL     1      -8.664   3.561 129.231  0.00  0.00    +0.000 A 
ATOM      9  C   UNL     1      -7.665   3.172 128.288  0.00  0.00    +0.000 A 
ATOM     10  C   UNL     1      -7.265   4.047 127.117  0.00  0.00    +0.000 C 
ATOM     11  C   UNL     1      -7.004   1.910 128.478  0.00  0.00    +0.000 A 
ATOM     12  C   UNL     1      -5.932   1.414 127.533  0.00  0.00    +0.000 C 
ATOM     13  C   UNL     1      -7.347   1.086 129.580  0.00  0.00    +0.000 A 
ATOM     14  O   UNL     1      -6.643  -0.076 129.829  0.00  0.00    +0.000 OA
ENDROOT
BRANCH   1  15
ATOM     15  C   UNL     1      -6.317  -2.079 131.229  0.00  0.00    +0.000 C 
BRANCH  15  16
ATOM     16  C   UNL     1      -7.383  -3.057 130.800  0.00  0.00    +0.000 C 
BRANCH  16  17
ATOM     17  C   UNL     1      -7.160  -3.486 129.369  0.00  0.00    +0.000 C 
BRANCH  17  18
ATOM     18  C   UNL     1      -8.302  -2.977 128.497  0.00  0.00    +0.000 C 
ATOM     19  C   UNL     1      -9.080  -4.144 127.865  0.00  0.00    +0.000 C 
BRANCH  18  20
ATOM     20  C   UNL     1      -7.712  -2.046 127.439  0.00  0.00    +0.000 C 
BRANCH  20  21
ATOM     21  C   UNL     1      -8.723  -1.818 126.342  0.00  0.00    +0.000 C 
BRANCH  21  22
ATOM     22  C   UNL     1      -9.011  -0.350 126.142  0.00  0.00    +0.000 C 
BRANCH  22  23
ATOM     23  C   UNL     1      -8.228   0.173 124.936  0.00  0.00    +0.000 C 
ATOM     24  C   UNL     1      -8.595   1.633 124.611  0.00  0.00    +0.000 C 
BRANCH  23  25
ATOM     25  C   UNL     1      -8.509  -0.754 123.753  0.00  0.00    +0.000 C 
BRANCH  25  26
ATOM     26  C   UNL     1      -7.219  -1.086 123.035  0.00  0.00    +0.000 C 
BRANCH  26  27
ATOM     27  C   UNL     1      -6.790  -2.518 123.276  0.00  0.00    +0.000 C 
BRANCH  27  29
ATOM     28  C   UNL     1      -5.104  -1.809 124.965  0.00  0.00    +0.000 C 
ATOM     29  C   UNL     1      -5.309  -2.576 123.665  0.00  0.00    +0.000 C 
ATOM     30  C   UNL     1      -4.815  -4.018 123.833  0.00  0.00    +0.000 C 
ENDBRANCH  27  29
ENDBRANCH  26  27
ENDBRANCH  25  26
ENDBRANCH  23  25
ENDBRANCH  22  23
ENDBRANCH  21  22
ENDBRANCH  20  21
ENDBRANCH  18  20
ENDBRANCH  17  18
ENDBRANCH  16  17
ENDBRANCH  15  16
ENDBRANCH   1  15
BRANCH   8  31
ATOM     31  O   UNL     1      -9.329   4.906 129.002  0.00  0.00    +0.000 OA
BRANCH  31  32
ATOM     32  C   UNL     1      -9.697   6.208 129.623  0.00  0.00    +0.000 C 
ATOM     33  C   UNL     1      -8.802   6.557 130.758  0.00  0.00    +0.000 C 
ATOM     34  O   UNL     1     -10.606   6.908 129.268  0.00  0.00    +0.000 OA
ENDBRANCH  31  32
ENDBRANCH   8  31
TORSDOF 14
ENDMDL
MODEL 3
REMARK VINA RESULT:      -6.7      2.894      5.786
REMARK  Name = D-alpha-Tocopherol acetate
REMARK  23 active torsions:
REMARK  status: ('A' for Active; 'I' for Inactive)
REMARK    1  A    between atoms: C_1  and  C_2
REMARK    2  A    between atoms: C_2  and  C_3
REMARK    3  A    between atoms: C_2  and  C_4
REMARK    4  A    between atoms: C_4  and  C_5
REMARK    5  A    between atoms: C_5  and  C_6
REMARK    6  A    between atoms: C_6  and  C_7
REMARK    7  A    between atoms: C_7  and  C_8
REMARK    8  A    between atoms: C_7  and  C_9
REMARK    9  A    between atoms: C_9  and  C_10
REMARK   10  A    between atoms: C_10  and  C_11
REMARK   11  A    between atoms: C_11  and  C_12
REMARK   12  A    between atoms: C_12  and  C_13
REMARK   13  A    between atoms: C_12  and  C_14
REMARK   14  A    between atoms: C_14  and  C_15
REMARK   15  A    between atoms: C_15  and  C_16
REMARK   16  A    between atoms: C_16  and  C_17
REMARK   17  A    between atoms: C_17  and  C_18
REMARK   18  A    between atoms: C_22  and  C_23
REMARK   19  A    between atoms: C_24  and  O_25
REMARK   20  A    between atoms: O_25  and  C_26
REMARK   21  A    between atoms: C_26  and  C_27
REMARK   22  A    between atoms: C_29  and  C_30
REMARK   23  A    between atoms: C_31  and  C_32
REMARK                            x       y       z     vdW  Elec       q    Type
REMARK                         _______ _______ _______ _____ _____    ______ ____
ROOT
ATOM      1  C   UNL     1      -7.687   0.356 131.843  0.00  0.00    +0.000 C 
ATOM      2  C   UNL     1      -9.081  -0.153 131.437  0.00  0.00    +0.000 C 
ATOM      3  C   UNL     1      -6.729   0.490 130.666  0.00  0.00    +0.000 C 
ATOM      4  C   UNL     1      -7.387   1.368 129.693  0.00  0.00    +0.000 C 
ATOM      5  C   UNL     1      -7.932   2.601 130.354  0.00  0.00    +0.000 A 
ATOM      6  C   UNL     1      -8.344   3.610 129.493  0.00  0.00    +0.000 A 
ATOM      7  C   UNL     1      -8.172   3.186 128.061  0.00  0.00    +0.000 C 
ATOM      8  C   UNL     1      -8.855   4.834 130.021  0.00  0.00    +0.000 A 
ATOM      9  C   UNL     1      -8.975   5.010 131.432  0.00  0.00    +0.000 A 
ATOM     10  C   UNL     1      -9.512   6.284 132.052  0.00  0.00    +0.000 C 
ATOM     11  C   UNL     1      -8.587   3.923 132.289  0.00  0.00    +0.000 A 
ATOM     12  C   UNL     1      -8.680   4.016 133.796  0.00  0.00    +0.000 C 
ATOM     13  C   UNL     1      -8.103   2.714 131.729  0.00  0.00    +0.000 A 
ATOM     14  O   UNL     1      -7.831   1.628 132.540  0.00  0.00    +0.000 OA
ENDROOT
BRANCH   1  15
ATOM     15  C   UNL     1      -7.054  -0.702 132.744  0.00  0.00    +0.000 C 
BRANCH  15  16
ATOM     16  C   UNL     1      -6.276  -1.704 131.927  0.00  0.00    +0.000 C 
BRANCH  16  17
ATOM     17  C   UNL     1      -7.017  -3.018 131.858  0.00  0.00    +0.000 C 
BRANCH  17  18
ATOM     18  C   UNL     1      -6.981  -3.553 130.431  0.00  0.00    +0.000 C 
ATOM     19  C   UNL     1      -5.554  -3.510 129.858  0.00  0.00    +0.000 C 
BRANCH  18  20
ATOM     20  C   UNL     1      -7.958  -2.732 129.592  0.00  0.00    +0.000 C 
BRANCH  20  21
ATOM     21  C   UNL     1      -8.427  -3.548 128.412  0.00  0.00    +0.000 C 
BRANCH  21  22
ATOM     22  C   UNL     1      -7.998  -2.936 127.101  0.00  0.00    +0.000 C 
BRANCH  22  23
ATOM     23  C   UNL     1      -7.848  -1.422 127.259  0.00  0.00    +0.000 C 
ATOM     24  C   UNL     1      -8.758  -0.656 126.281  0.00  0.00    +0.000 C 
BRANCH  23  25
ATOM     25  C   UNL     1      -6.374  -1.070 127.050  0.00  0.00    +0.000 C 
BRANCH  25  26
ATOM     26  C   UNL     1      -5.682  -2.169 126.273  0.00  0.00    +0.000 C 
BRANCH  26  27
ATOM     27  C   UNL     1      -5.284  -1.715 124.885  0.00  0.00    +0.000 C 
BRANCH  27  29
ATOM     28  C   UNL     1      -6.232  -1.969 122.598  0.00  0.00    +0.000 C 
ATOM     29  C   UNL     1      -5.760  -2.723 123.834  0.00  0.00    +0.000 C 
ATOM     30  C   UNL     1      -4.655  -3.713 123.444  0.00  0.00    +0.000 C 
ENDBRANCH  27  29
ENDBRANCH  26  27
ENDBRANCH  25  26
ENDBRANCH  23  25
ENDBRANCH  22  23
ENDBRANCH  21  22
ENDBRANCH  20  21
ENDBRANCH  18  20
ENDBRANCH  17  18
ENDBRANCH  16  17
ENDBRANCH  15  16
ENDBRANCH   1  15
BRANCH   8  31
ATOM     31  O   UNL     1      -9.285   6.001 129.150  0.00  0.00    +0.000 OA
BRANCH  31  32
ATOM     32  C   UNL     1     -10.442   6.811 128.679  0.00  0.00    +0.000 C 
ATOM     33  C   UNL     1     -10.209   8.269 128.851  0.00  0.00    +0.000 C 
ATOM     34  O   UNL     1     -11.454   6.361 128.213  0.00  0.00    +0.000 OA
ENDBRANCH  31  32
ENDBRANCH   8  31
TORSDOF 14
ENDMDL
MODEL 4
REMARK VINA RESULT:      -6.6      2.285      5.250
REMARK  Name = D-alpha-Tocopherol acetate
REMARK  23 active torsions:
REMARK  status: ('A' for Active; 'I' for Inactive)
REMARK    1  A    between atoms: C_1  and  C_2
REMARK    2  A    between atoms: C_2  and  C_3
REMARK    3  A    between atoms: C_2  and  C_4
REMARK    4  A    between atoms: C_4  and  C_5
REMARK    5  A    between atoms: C_5  and  C_6
REMARK    6  A    between atoms: C_6  and  C_7
REMARK    7  A    between atoms: C_7  and  C_8
REMARK    8  A    between atoms: C_7  and  C_9
REMARK    9  A    between atoms: C_9  and  C_10
REMARK   10  A    between atoms: C_10  and  C_11
REMARK   11  A    between atoms: C_11  and  C_12
REMARK   12  A    between atoms: C_12  and  C_13
REMARK   13  A    between atoms: C_12  and  C_14
REMARK   14  A    between atoms: C_14  and  C_15
REMARK   15  A    between atoms: C_15  and  C_16
REMARK   16  A    between atoms: C_16  and  C_17
REMARK   17  A    between atoms: C_17  and  C_18
REMARK   18  A    between atoms: C_22  and  C_23
REMARK   19  A    between atoms: C_24  and  O_25
REMARK   20  A    between atoms: O_25  and  C_26
REMARK   21  A    between atoms: C_26  and  C_27
REMARK   22  A    between atoms: C_29  and  C_30
REMARK   23  A    between atoms: C_31  and  C_32
REMARK                            x       y       z     vdW  Elec       q    Type
REMARK                         _______ _______ _______ _____ _____    ______ ____
ROOT
ATOM      1  C   UNL     1      -7.929   1.373 129.026  0.00  0.00    +0.000 C 
ATOM      2  C   UNL     1      -8.503   2.748 129.413  0.00  0.00    +0.000 C 
ATOM      3  C   UNL     1      -8.616   0.752 127.816  0.00  0.00    +0.000 C 
ATOM      4  C   UNL     1      -8.510   1.732 126.730  0.00  0.00    +0.000 C 
ATOM      5  C   UNL     1      -7.107   2.254 126.604  0.00  0.00    +0.000 A 
ATOM      6  C   UNL     1      -6.843   2.986 125.455  0.00  0.00    +0.000 A 
ATOM      7  C   UNL     1      -8.081   3.112 124.611  0.00  0.00    +0.000 C 
ATOM      8  C   UNL     1      -5.533   3.507 125.226  0.00  0.00    +0.000 A 
ATOM      9  C   UNL     1      -4.503   3.304 126.194  0.00  0.00    +0.000 A 
ATOM     10  C   UNL     1      -3.096   3.834 126.009  0.00  0.00    +0.000 C 
ATOM     11  C   UNL     1      -4.830   2.587 127.395  0.00  0.00    +0.000 A 
ATOM     12  C   UNL     1      -3.807   2.324 128.478  0.00  0.00    +0.000 C 
ATOM     13  C   UNL     1      -6.148   2.102 127.598  0.00  0.00    +0.000 A 
ATOM     14  O   UNL     1      -6.496   1.506 128.795  0.00  0.00    +0.000 OA
ENDROOT
BRANCH   1  15
ATOM     15  C   UNL     1      -8.219   0.412 130.177  0.00  0.00    +0.000 C 
BRANCH  15  16
ATOM     16  C   UNL     1      -7.971  -1.015 129.757  0.00  0.00    +0.000 C 
BRANCH  16  17
ATOM     17  C   UNL     1      -6.803  -1.595 130.520  0.00  0.00    +0.000 C 
BRANCH  17  18
ATOM     18  C   UNL     1      -5.784  -2.167 129.541  0.00  0.00    +0.000 C 
ATOM     19  C   UNL     1      -4.474  -1.360 129.571  0.00  0.00    +0.000 C 
BRANCH  18  20
ATOM     20  C   UNL     1      -6.415  -2.177 128.151  0.00  0.00    +0.000 C 
BRANCH  20  21
ATOM     21  C   UNL     1      -5.333  -2.152 127.100  0.00  0.00    +0.000 C 
BRANCH  21  22
ATOM     22  C   UNL     1      -5.525  -1.018 126.123  0.00  0.00    +0.000 C 
BRANCH  22  23
ATOM     23  C   UNL     1      -6.111  -1.553 124.815  0.00  0.00    +0.000 C 
ATOM     24  C   UNL     1      -5.089  -2.407 124.042  0.00  0.00    +0.000 C 
BRANCH  23  25
ATOM     25  C   UNL     1      -6.586  -0.358 123.987  0.00  0.00    +0.000 C 
BRANCH  25  26
ATOM     26  C   UNL     1      -7.940  -0.652 123.378  0.00  0.00    +0.000 C 
BRANCH  26  27
ATOM     27  C   UNL     1      -8.942  -1.101 124.420  0.00  0.00    +0.000 C 
BRANCH  27  29
ATOM     28  C   UNL     1      -9.470  -2.989 125.954  0.00  0.00    +0.000 C 
ATOM     29  C   UNL     1      -8.888  -2.623 124.595  0.00  0.00    +0.000 C 
ATOM     30  C   UNL     1      -9.657  -3.357 123.490  0.00  0.00    +0.000 C 
ENDBRANCH  27  29
ENDBRANCH  26  27
ENDBRANCH  25  26
ENDBRANCH  23  25
ENDBRANCH  22  23
ENDBRANCH  21  22
ENDBRANCH  20  21
ENDBRANCH  18  20
ENDBRANCH  17  18
ENDBRANCH  16  17
ENDBRANCH  15  16
ENDBRANCH   1  15
BRANCH   8  31
ATOM     31  O   UNL     1      -5.150   4.280 123.976  0.00  0.00    +0.000 OA
BRANCH  31  32
ATOM     32  C   UNL     1      -5.267   4.338 122.493  0.00  0.00    +0.000 C 
ATOM     33  C   UNL     1      -6.005   3.170 121.945  0.00  0.00    +0.000 C 
ATOM     34  O   UNL     1      -4.823   5.214 121.802  0.00  0.00    +0.000 OA
ENDBRANCH  31  32
ENDBRANCH   8  31
TORSDOF 14
ENDMDL
MODEL 5
REMARK VINA RESULT:      -6.5      2.867      5.592
REMARK  Name = D-alpha-Tocopherol acetate
REMARK  23 active torsions:
REMARK  status: ('A' for Active; 'I' for Inactive)
REMARK    1  A    between atoms: C_1  and  C_2
REMARK    2  A    between atoms: C_2  and  C_3
REMARK    3  A    between atoms: C_2  and  C_4
REMARK    4  A    between atoms: C_4  and  C_5
REMARK    5  A    between atoms: C_5  and  C_6
REMARK    6  A    between atoms: C_6  and  C_7
REMARK    7  A    between atoms: C_7  and  C_8
REMARK    8  A    between atoms: C_7  and  C_9
REMARK    9  A    between atoms: C_9  and  C_10
REMARK   10  A    between atoms: C_10  and  C_11
REMARK   11  A    between atoms: C_11  and  C_12
REMARK   12  A    between atoms: C_12  and  C_13
REMARK   13  A    between atoms: C_12  and  C_14
REMARK   14  A    between atoms: C_14  and  C_15
REMARK   15  A    between atoms: C_15  and  C_16
REMARK   16  A    between atoms: C_16  and  C_17
REMARK   17  A    between atoms: C_17  and  C_18
REMARK   18  A    between atoms: C_22  and  C_23
REMARK   19  A    between atoms: C_24  and  O_25
REMARK   20  A    between atoms: O_25  and  C_26
REMARK   21  A    between atoms: C_26  and  C_27
REMARK   22  A    between atoms: C_29  and  C_30
REMARK   23  A    between atoms: C_31  and  C_32
REMARK                            x       y       z     vdW  Elec       q    Type
REMARK                         _______ _______ _______ _____ _____    ______ ____
ROOT
ATOM      1  C   UNL     1      -8.419  -2.696 126.698  0.00  0.00    +0.000 C 
ATOM      2  C   UNL     1      -9.682  -2.904 125.843  0.00  0.00    +0.000 C 
ATOM      3  C   UNL     1      -7.137  -3.118 125.991  0.00  0.00    +0.000 C 
ATOM      4  C   UNL     1      -7.092  -2.369 124.731  0.00  0.00    +0.000 C 
ATOM      5  C   UNL     1      -7.375  -0.911 124.954  0.00  0.00    +0.000 A 
ATOM      6  C   UNL     1      -7.107  -0.078 123.877  0.00  0.00    +0.000 A 
ATOM      7  C   UNL     1      -6.619  -0.876 122.699  0.00  0.00    +0.000 C 
ATOM      8  C   UNL     1      -7.318   1.329 123.993  0.00  0.00    +0.000 A 
ATOM      9  C   UNL     1      -7.836   1.877 125.205  0.00  0.00    +0.000 A 
ATOM     10  C   UNL     1      -8.084   3.360 125.387  0.00  0.00    +0.000 C 
ATOM     11  C   UNL     1      -8.152   0.976 126.279  0.00  0.00    +0.000 A 
ATOM     12  C   UNL     1      -8.707   1.463 127.599  0.00  0.00    +0.000 C 
ATOM     13  C   UNL     1      -7.948  -0.419 126.120  0.00  0.00    +0.000 A 
ATOM     14  O   UNL     1      -8.348  -1.299 127.107  0.00  0.00    +0.000 OA
ENDROOT
BRANCH   1  15
ATOM     15  C   UNL     1      -8.524  -3.625 127.906  0.00  0.00    +0.000 C 
BRANCH  15  16
ATOM     16  C   UNL     1      -8.168  -2.891 129.176  0.00  0.00    +0.000 C 
BRANCH  16  17
ATOM     17  C   UNL     1      -6.939  -3.499 129.810  0.00  0.00    +0.000 C 
BRANCH  17  18
ATOM     18  C   UNL     1      -5.687  -2.904 129.175  0.00  0.00    +0.000 C 
ATOM     19  C   UNL     1      -4.414  -3.554 129.744  0.00  0.00    +0.000 C 
BRANCH  18  20
ATOM     20  C   UNL     1      -5.709  -1.395 129.407  0.00  0.00    +0.000 C 
BRANCH  20  21
ATOM     21  C   UNL     1      -5.268  -1.090 130.818  0.00  0.00    +0.000 C 
BRANCH  21  22
ATOM     22  C   UNL     1      -6.082   0.022 131.432  0.00  0.00    +0.000 C 
BRANCH  22  23
ATOM     23  C   UNL     1      -6.897  -0.519 132.608  0.00  0.00    +0.000 C 
ATOM     24  C   UNL     1      -6.312  -1.840 133.143  0.00  0.00    +0.000 C 
BRANCH  23  25
ATOM     25  C   UNL     1      -8.342  -0.693 132.140  0.00  0.00    +0.000 C 
BRANCH  25  26
ATOM     26  C   UNL     1      -8.730   0.442 131.217  0.00  0.00    +0.000 C 
BRANCH  26  27
ATOM     27  C   UNL     1      -9.815   1.311 131.816  0.00  0.00    +0.000 C 
BRANCH  27  29
ATOM     28  C   UNL     1      -8.785   2.937 133.394  0.00  0.00    +0.000 C 
ATOM     29  C   UNL     1      -9.320   2.751 131.980  0.00  0.00    +0.000 C 
ATOM     30  C   UNL     1      -8.226   3.103 130.964  0.00  0.00    +0.000 C 
ENDBRANCH  27  29
ENDBRANCH  26  27
ENDBRANCH  25  26
ENDBRANCH  23  25
ENDBRANCH  22  23
ENDBRANCH  21  22
ENDBRANCH  20  21
ENDBRANCH  18  20
ENDBRANCH  17  18
ENDBRANCH  16  17
ENDBRANCH  15  16
ENDBRANCH   1  15
BRANCH   8  31
ATOM     31  O   UNL     1      -7.009   2.313 122.878  0.00  0.00    +0.000 OA
BRANCH  31  32
ATOM     32  C   UNL     1      -6.113   3.417 122.437  0.00  0.00    +0.000 C 
ATOM     33  C   UNL     1      -5.878   3.393 120.970  0.00  0.00    +0.000 C 
ATOM     34  O   UNL     1      -5.625   4.239 123.164  0.00  0.00    +0.000 OA
ENDBRANCH  31  32
ENDBRANCH   8  31
TORSDOF 14
ENDMDL
MODEL 6
REMARK VINA RESULT:      -6.5      3.378      8.976
REMARK  Name = D-alpha-Tocopherol acetate
REMARK  23 active torsions:
REMARK  status: ('A' for Active; 'I' for Inactive)
REMARK    1  A    between atoms: C_1  and  C_2
REMARK    2  A    between atoms: C_2  and  C_3
REMARK    3  A    between atoms: C_2  and  C_4
REMARK    4  A    between atoms: C_4  and  C_5
REMARK    5  A    between atoms: C_5  and  C_6
REMARK    6  A    between atoms: C_6  and  C_7
REMARK    7  A    between atoms: C_7  and  C_8
REMARK    8  A    between atoms: C_7  and  C_9
REMARK    9  A    between atoms: C_9  and  C_10
REMARK   10  A    between atoms: C_10  and  C_11
REMARK   11  A    between atoms: C_11  and  C_12
REMARK   12  A    between atoms: C_12  and  C_13
REMARK   13  A    between atoms: C_12  and  C_14
REMARK   14  A    between atoms: C_14  and  C_15
REMARK   15  A    between atoms: C_15  and  C_16
REMARK   16  A    between atoms: C_16  and  C_17
REMARK   17  A    between atoms: C_17  and  C_18
REMARK   18  A    between atoms: C_22  and  C_23
REMARK   19  A    between atoms: C_24  and  O_25
REMARK   20  A    between atoms: O_25  and  C_26
REMARK   21  A    between atoms: C_26  and  C_27
REMARK   22  A    between atoms: C_29  and  C_30
REMARK   23  A    between atoms: C_31  and  C_32
REMARK                            x       y       z     vdW  Elec       q    Type
REMARK                         _______ _______ _______ _____ _____    ______ ____
ROOT
ATOM      1  C   UNL     1      -7.210  -0.623 131.314  0.00  0.00    +0.000 C 
ATOM      2  C   UNL     1      -8.711  -0.501 131.634  0.00  0.00    +0.000 C 
ATOM      3  C   UNL     1      -6.734  -2.066 131.200  0.00  0.00    +0.000 C 
ATOM      4  C   UNL     1      -7.579  -2.703 130.185  0.00  0.00    +0.000 C 
ATOM      5  C   UNL     1      -7.682  -1.853 128.952  0.00  0.00    +0.000 A 
ATOM      6  C   UNL     1      -8.242  -2.474 127.843  0.00  0.00    +0.000 A 
ATOM      7  C   UNL     1      -8.657  -3.880 128.176  0.00  0.00    +0.000 C 
ATOM      8  C   UNL     1      -8.364  -1.761 126.612  0.00  0.00    +0.000 A 
ATOM      9  C   UNL     1      -7.941  -0.400 126.528  0.00  0.00    +0.000 A 
ATOM     10  C   UNL     1      -8.047   0.409 125.252  0.00  0.00    +0.000 C 
ATOM     11  C   UNL     1      -7.415   0.224 127.712  0.00  0.00    +0.000 A 
ATOM     12  C   UNL     1      -6.944   1.661 127.721  0.00  0.00    +0.000 C 
ATOM     13  C   UNL     1      -7.329  -0.510 128.923  0.00  0.00    +0.000 A 
ATOM     14  O   UNL     1      -6.925   0.114 130.089  0.00  0.00    +0.000 OA
ENDROOT
BRANCH   1  15
ATOM     15  C   UNL     1      -6.438  -0.048 132.500  0.00  0.00    +0.000 C 
BRANCH  15  16
ATOM     16  C   UNL     1      -7.192   1.101 133.122  0.00  0.00    +0.000 C 
BRANCH  16  17
ATOM     17  C   UNL     1      -6.587   2.419 132.698  0.00  0.00    +0.000 C 
BRANCH  17  18
ATOM     18  C   UNL     1      -7.695   3.440 132.464  0.00  0.00    +0.000 C 
ATOM     19  C   UNL     1      -8.684   3.466 133.642  0.00  0.00    +0.000 C 
BRANCH  18  20
ATOM     20  C   UNL     1      -8.387   3.095 131.147  0.00  0.00    +0.000 C 
BRANCH  20  21
ATOM     21  C   UNL     1      -8.625   4.355 130.352  0.00  0.00    +0.000 C 
BRANCH  21  22
ATOM     22  C   UNL     1     -10.096   4.680 130.242  0.00  0.00    +0.000 C 
BRANCH  22  23
ATOM     23  C   UNL     1     -10.318   6.171 130.502  0.00  0.00    +0.000 C 
ATOM     24  C   UNL     1      -9.050   6.845 131.058  0.00  0.00    +0.000 C 
BRANCH  23  25
ATOM     25  C   UNL     1     -11.498   6.312 131.464  0.00  0.00    +0.000 C 
BRANCH  25  26
ATOM     26  C   UNL     1     -12.474   7.345 130.944  0.00  0.00    +0.000 C 
BRANCH  26  27
ATOM     27  C   UNL     1     -12.975   7.001 129.558  0.00  0.00    +0.000 C 
BRANCH  27  29
ATOM     28  C   UNL     1     -12.880   9.487 129.499  0.00  0.00    +0.000 C 
ATOM     29  C   UNL     1     -12.909   8.228 128.643  0.00  0.00    +0.000 C 
ATOM     30  C   UNL     1     -11.680   8.198 127.727  0.00  0.00    +0.000 C 
ENDBRANCH  27  29
ENDBRANCH  26  27
ENDBRANCH  25  26
ENDBRANCH  23  25
ENDBRANCH  22  23
ENDBRANCH  21  22
ENDBRANCH  20  21
ENDBRANCH  18  20
ENDBRANCH  17  18
ENDBRANCH  16  17
ENDBRANCH  15  16
ENDBRANCH   1  15
BRANCH   8  31
ATOM     31  O   UNL     1      -8.924  -2.379 125.343  0.00  0.00    +0.000 OA
BRANCH  31  32
ATOM     32  C   UNL     1      -8.602  -2.845 123.967  0.00  0.00    +0.000 C 
ATOM     33  C   UNL     1      -9.767  -3.494 123.310  0.00  0.00    +0.000 C 
ATOM     34  O   UNL     1      -7.534  -2.723 123.431  0.00  0.00    +0.000 OA
ENDBRANCH  31  32
ENDBRANCH   8  31
TORSDOF 14
ENDMDL
MODEL 7
REMARK VINA RESULT:      -6.5      8.628     12.883
REMARK  Name = D-alpha-Tocopherol acetate
REMARK  23 active torsions:
REMARK  status: ('A' for Active; 'I' for Inactive)
REMARK    1  A    between atoms: C_1  and  C_2
REMARK    2  A    between atoms: C_2  and  C_3
REMARK    3  A    between atoms: C_2  and  C_4
REMARK    4  A    between atoms: C_4  and  C_5
REMARK    5  A    between atoms: C_5  and  C_6
REMARK    6  A    between atoms: C_6  and  C_7
REMARK    7  A    between atoms: C_7  and  C_8
REMARK    8  A    between atoms: C_7  and  C_9
REMARK    9  A    between atoms: C_9  and  C_10
REMARK   10  A    between atoms: C_10  and  C_11
REMARK   11  A    between atoms: C_11  and  C_12
REMARK   12  A    between atoms: C_12  and  C_13
REMARK   13  A    between atoms: C_12  and  C_14
REMARK   14  A    between atoms: C_14  and  C_15
REMARK   15  A    between atoms: C_15  and  C_16
REMARK   16  A    between atoms: C_16  and  C_17
REMARK   17  A    between atoms: C_17  and  C_18
REMARK   18  A    between atoms: C_22  and  C_23
REMARK   19  A    between atoms: C_24  and  O_25
REMARK   20  A    between atoms: O_25  and  C_26
REMARK   21  A    between atoms: C_26  and  C_27
REMARK   22  A    between atoms: C_29  and  C_30
REMARK   23  A    between atoms: C_31  and  C_32
REMARK                            x       y       z     vdW  Elec       q    Type
REMARK                         _______ _______ _______ _____ _____    ______ ____
ROOT
ATOM      1  C   UNL     1      -7.918   7.314 137.693  0.00  0.00    +0.000 C 
ATOM      2  C   UNL     1      -7.746   6.750 139.114  0.00  0.00    +0.000 C 
ATOM      3  C   UNL     1      -9.258   8.007 137.478  0.00  0.00    +0.000 C 
ATOM      4  C   UNL     1      -9.359   9.044 138.511  0.00  0.00    +0.000 C 
ATOM      5  C   UNL     1      -8.101   9.860 138.587  0.00  0.00    +0.000 A 
ATOM      6  C   UNL     1      -8.186  11.020 139.346  0.00  0.00    +0.000 A 
ATOM      7  C   UNL     1      -9.553  11.154 139.957  0.00  0.00    +0.000 C 
ATOM      8  C   UNL     1      -7.053  11.880 139.463  0.00  0.00    +0.000 A 
ATOM      9  C   UNL     1      -5.822  11.533 138.828  0.00  0.00    +0.000 A 
ATOM     10  C   UNL     1      -4.585  12.404 138.918  0.00  0.00    +0.000 C 
ATOM     11  C   UNL     1      -5.759  10.299 138.095  0.00  0.00    +0.000 A 
ATOM     12  C   UNL     1      -4.499   9.846 137.391  0.00  0.00    +0.000 C 
ATOM     13  C   UNL     1      -6.899   9.459 138.018  0.00  0.00    +0.000 A 
ATOM     14  O   UNL     1      -6.814   8.222 137.407  0.00  0.00    +0.000 OA
ENDROOT
BRANCH   1  15
ATOM     15  C   UNL     1      -7.930   6.132 136.726  0.00  0.00    +0.000 C 
BRANCH  15  16
ATOM     16  C   UNL     1      -6.694   6.138 135.859  0.00  0.00    +0.000 C 
BRANCH  16  17
ATOM     17  C   UNL     1      -6.765   5.032 134.832  0.00  0.00    +0.000 C 
BRANCH  17  18
ATOM     18  C   UNL     1      -8.036   5.182 134.003  0.00  0.00    +0.000 C 
ATOM     19  C   UNL     1      -8.736   3.825 133.811  0.00  0.00    +0.000 C 
BRANCH  18  20
ATOM     20  C   UNL     1      -7.659   5.823 132.670  0.00  0.00    +0.000 C 
BRANCH  20  21
ATOM     21  C   UNL     1      -8.681   5.457 131.622  0.00  0.00    +0.000 C 
BRANCH  21  22
ATOM     22  C   UNL     1      -9.723   6.537 131.453  0.00  0.00    +0.000 C 
BRANCH  22  23
ATOM     23  C   UNL     1     -11.122   5.923 131.522  0.00  0.00    +0.000 C 
ATOM     24  C   UNL     1     -11.394   4.995 130.323  0.00  0.00    +0.000 C 
BRANCH  23  25
ATOM     25  C   UNL     1     -12.136   7.065 131.591  0.00  0.00    +0.000 C 
BRANCH  25  26
ATOM     26  C   UNL     1     -12.828   7.228 130.254  0.00  0.00    +0.000 C 
BRANCH  26  27
ATOM     27  C   UNL     1     -12.599   8.603 129.664  0.00  0.00    +0.000 C 
BRANCH  27  29
ATOM     28  C   UNL     1     -10.605   8.390 128.189  0.00  0.00    +0.000 C 
ATOM     29  C   UNL     1     -12.125   8.491 128.211  0.00  0.00    +0.000 C 
ATOM     30  C   UNL     1     -12.733   7.278 127.498  0.00  0.00    +0.000 C 
ENDBRANCH  27  29
ENDBRANCH  26  27
ENDBRANCH  25  26
ENDBRANCH  23  25
ENDBRANCH  22  23
ENDBRANCH  21  22
ENDBRANCH  20  21
ENDBRANCH  18  20
ENDBRANCH  17  18
ENDBRANCH  16  17
ENDBRANCH  15  16
ENDBRANCH   1  15
BRANCH   8  31
ATOM     31  O   UNL     1      -7.075  13.187 140.237  0.00  0.00    +0.000 OA
BRANCH  31  32
ATOM     32  C   UNL     1      -7.818  14.455 140.471  0.00  0.00    +0.000 C 
ATOM     33  C   UNL     1      -8.818  14.323 141.562  0.00  0.00    +0.000 C 
ATOM     34  O   UNL     1      -7.647  15.475 139.860  0.00  0.00    +0.000 OA
ENDBRANCH  31  32
ENDBRANCH   8  31
TORSDOF 14
ENDMDL
MODEL 8
REMARK VINA RESULT:      -6.4      2.569      5.890
REMARK  Name = D-alpha-Tocopherol acetate
REMARK  23 active torsions:
REMARK  status: ('A' for Active; 'I' for Inactive)
REMARK    1  A    between atoms: C_1  and  C_2
REMARK    2  A    between atoms: C_2  and  C_3
REMARK    3  A    between atoms: C_2  and  C_4
REMARK    4  A    between atoms: C_4  and  C_5
REMARK    5  A    between atoms: C_5  and  C_6
REMARK    6  A    between atoms: C_6  and  C_7
REMARK    7  A    between atoms: C_7  and  C_8
REMARK    8  A    between atoms: C_7  and  C_9
REMARK    9  A    between atoms: C_9  and  C_10
REMARK   10  A    between atoms: C_10  and  C_11
REMARK   11  A    between atoms: C_11  and  C_12
REMARK   12  A    between atoms: C_12  and  C_13
REMARK   13  A    between atoms: C_12  and  C_14
REMARK   14  A    between atoms: C_14  and  C_15
REMARK   15  A    between atoms: C_15  and  C_16
REMARK   16  A    between atoms: C_16  and  C_17
REMARK   17  A    between atoms: C_17  and  C_18
REMARK   18  A    between atoms: C_22  and  C_23
REMARK   19  A    between atoms: C_24  and  O_25
REMARK   20  A    between atoms: O_25  and  C_26
REMARK   21  A    between atoms: C_26  and  C_27
REMARK   22  A    between atoms: C_29  and  C_30
REMARK   23  A    between atoms: C_31  and  C_32
REMARK                            x       y       z     vdW  Elec       q    Type
REMARK                         _______ _______ _______ _____ _____    ______ ____
ROOT
ATOM      1  C   UNL     1      -8.160  -2.477 126.880  0.00  0.00    +0.000 C 
ATOM      2  C   UNL     1      -9.424  -2.785 126.057  0.00  0.00    +0.000 C 
ATOM      3  C   UNL     1      -6.868  -2.848 126.162  0.00  0.00    +0.000 C 
ATOM      4  C   UNL     1      -6.889  -2.141 124.877  0.00  0.00    +0.000 C 
ATOM      5  C   UNL     1      -7.252  -0.695 125.058  0.00  0.00    +0.000 A 
ATOM      6  C   UNL     1      -7.052   0.115 123.948  0.00  0.00    +0.000 A 
ATOM      7  C   UNL     1      -6.540  -0.694 122.788  0.00  0.00    +0.000 C 
ATOM      8  C   UNL     1      -7.342   1.510 124.022  0.00  0.00    +0.000 A 
ATOM      9  C   UNL     1      -7.870   2.069 125.225  0.00  0.00    +0.000 A 
ATOM     10  C   UNL     1      -8.201   3.541 125.363  0.00  0.00    +0.000 C 
ATOM     11  C   UNL     1      -8.113   1.189 126.335  0.00  0.00    +0.000 A 
ATOM     12  C   UNL     1      -8.672   1.688 127.649  0.00  0.00    +0.000 C 
ATOM     13  C   UNL     1      -7.832  -0.197 126.218  0.00  0.00    +0.000 A 
ATOM     14  O   UNL     1      -8.163  -1.065 127.242  0.00  0.00    +0.000 OA
ENDROOT
BRANCH   1  15
ATOM     15  C   UNL     1      -8.189  -3.367 128.120  0.00  0.00    +0.000 C 
BRANCH  15  16
ATOM     16  C   UNL     1      -7.817  -2.580 129.353  0.00  0.00    +0.000 C 
BRANCH  16  17
ATOM     17  C   UNL     1      -6.563  -3.142 129.979  0.00  0.00    +0.000 C 
BRANCH  17  18
ATOM     18  C   UNL     1      -5.349  -2.363 129.486  0.00  0.00    +0.000 C 
ATOM     19  C   UNL     1      -4.269  -3.310 128.934  0.00  0.00    +0.000 C 
BRANCH  18  20
ATOM     20  C   UNL     1      -4.826  -1.516 130.644  0.00  0.00    +0.000 C 
BRANCH  20  21
ATOM     21  C   UNL     1      -4.107  -0.304 130.104  0.00  0.00    +0.000 C 
BRANCH  21  22
ATOM     22  C   UNL     1      -4.398   0.931 130.922  0.00  0.00    +0.000 C 
BRANCH  22  23
ATOM     23  C   UNL     1      -5.010   2.012 130.031  0.00  0.00    +0.000 C 
ATOM     24  C   UNL     1      -6.439   2.374 130.478  0.00  0.00    +0.000 C 
BRANCH  23  25
ATOM     25  C   UNL     1      -4.984   1.504 128.588  0.00  0.00    +0.000 C 
BRANCH  25  26
ATOM     26  C   UNL     1      -4.986   2.672 127.625  0.00  0.00    +0.000 C 
BRANCH  26  27
ATOM     27  C   UNL     1      -4.036   2.451 126.468  0.00  0.00    +0.000 C 
BRANCH  27  29
ATOM     28  C   UNL     1      -3.182   4.491 127.610  0.00  0.00    +0.000 C 
ATOM     29  C   UNL     1      -2.977   3.557 126.424  0.00  0.00    +0.000 C 
ATOM     30  C   UNL     1      -1.552   2.992 126.452  0.00  0.00    +0.000 C 
ENDBRANCH  27  29
ENDBRANCH  26  27
ENDBRANCH  25  26
ENDBRANCH  23  25
ENDBRANCH  22  23
ENDBRANCH  21  22
ENDBRANCH  20  21
ENDBRANCH  18  20
ENDBRANCH  17  18
ENDBRANCH  16  17
ENDBRANCH  15  16
ENDBRANCH   1  15
BRANCH   8  31
ATOM     31  O   UNL     1      -7.111   2.472 122.869  0.00  0.00    +0.000 OA
BRANCH  31  32
ATOM     32  C   UNL     1      -6.148   3.418 122.244  0.00  0.00    +0.000 C 
ATOM     33  C   UNL     1      -5.412   4.218 123.259  0.00  0.00    +0.000 C 
ATOM     34  O   UNL     1      -5.971   3.540 121.062  0.00  0.00    +0.000 OA
ENDBRANCH  31  32
ENDBRANCH   8  31
TORSDOF 14
ENDMDL
MODEL 9
REMARK VINA RESULT:      -6.4      2.328      5.662
REMARK  Name = D-alpha-Tocopherol acetate
REMARK  23 active torsions:
REMARK  status: ('A' for Active; 'I' for Inactive)
REMARK    1  A    between atoms: C_1  and  C_2
REMARK    2  A    between atoms: C_2  and  C_3
REMARK    3  A    between atoms: C_2  and  C_4
REMARK    4  A    between atoms: C_4  and  C_5
REMARK    5  A    between atoms: C_5  and  C_6
REMARK    6  A    between atoms: C_6  and  C_7
REMARK    7  A    between atoms: C_7  and  C_8
REMARK    8  A    between atoms: C_7  and  C_9
REMARK    9  A    between atoms: C_9  and  C_10
REMARK   10  A    between atoms: C_10  and  C_11
REMARK   11  A    between atoms: C_11  and  C_12
REMARK   12  A    between atoms: C_12  and  C_13
REMARK   13  A    between atoms: C_12  and  C_14
REMARK   14  A    between atoms: C_14  and  C_15
REMARK   15  A    between atoms: C_15  and  C_16
REMARK   16  A    between atoms: C_16  and  C_17
REMARK   17  A    between atoms: C_17  and  C_18
REMARK   18  A    between atoms: C_22  and  C_23
REMARK   19  A    between atoms: C_24  and  O_25
REMARK   20  A    between atoms: O_25  and  C_26
REMARK   21  A    between atoms: C_26  and  C_27
REMARK   22  A    between atoms: C_29  and  C_30
REMARK   23  A    between atoms: C_31  and  C_32
REMARK                            x       y       z     vdW  Elec       q    Type
REMARK                         _______ _______ _______ _____ _____    ______ ____
ROOT
ATOM      1  C   UNL     1      -6.677  -0.842 130.930  0.00  0.00    +0.000 C 
ATOM      2  C   UNL     1      -5.817  -0.001 131.890  0.00  0.00    +0.000 C 
ATOM      3  C   UNL     1      -8.113  -1.020 131.408  0.00  0.00    +0.000 C 
ATOM      4  C   UNL     1      -8.653   0.328 131.611  0.00  0.00    +0.000 C 
ATOM      5  C   UNL     1      -8.364   1.214 130.434  0.00  0.00    +0.000 A 
ATOM      6  C   UNL     1      -9.046   2.423 130.413  0.00  0.00    +0.000 A 
ATOM      7  C   UNL     1      -9.906   2.567 131.638  0.00  0.00    +0.000 C 
ATOM      8  C   UNL     1      -8.861   3.327 129.324  0.00  0.00    +0.000 A 
ATOM      9  C   UNL     1      -7.950   3.006 128.273  0.00  0.00    +0.000 A 
ATOM     10  C   UNL     1      -7.709   3.926 127.094  0.00  0.00    +0.000 C 
ATOM     11  C   UNL     1      -7.222   1.769 128.358  0.00  0.00    +0.000 A 
ATOM     12  C   UNL     1      -6.235   1.344 127.294  0.00  0.00    +0.000 C 
ATOM     13  C   UNL     1      -7.417   0.904 129.465  0.00  0.00    +0.000 A 
ATOM     14  O   UNL     1      -6.644  -0.233 129.606  0.00  0.00    +0.000 OA
ENDROOT
BRANCH   1  15
ATOM     15  C   UNL     1      -6.094  -2.254 130.906  0.00  0.00    +0.000 C 
BRANCH  15  16
ATOM     16  C   UNL     1      -7.170  -3.271 130.617  0.00  0.00    +0.000 C 
BRANCH  16  17
ATOM     17  C   UNL     1      -7.114  -3.701 129.170  0.00  0.00    +0.000 C 
BRANCH  17  18
ATOM     18  C   UNL     1      -8.282  -3.088 128.406  0.00  0.00    +0.000 C 
ATOM     19  C   UNL     1      -9.399  -4.121 128.177  0.00  0.00    +0.000 C 
BRANCH  18  20
ATOM     20  C   UNL     1      -7.746  -2.526 127.092  0.00  0.00    +0.000 C 
BRANCH  20  21
ATOM     21  C   UNL     1      -8.590  -3.024 125.944  0.00  0.00    +0.000 C 
BRANCH  21  22
ATOM     22  C   UNL     1      -7.751  -3.683 124.876  0.00  0.00    +0.000 C 
BRANCH  22  23
ATOM     23  C   UNL     1      -7.879  -2.908 123.564  0.00  0.00    +0.000 C 
ATOM     24  C   UNL     1      -6.600  -2.111 123.248  0.00  0.00    +0.000 C 
BRANCH  23  25
ATOM     25  C   UNL     1      -9.099  -1.992 123.674  0.00  0.00    +0.000 C 
BRANCH  25  26
ATOM     26  C   UNL     1      -8.726  -0.579 123.278  0.00  0.00    +0.000 C 
BRANCH  26  27
ATOM     27  C   UNL     1      -8.930   0.398 124.415  0.00  0.00    +0.000 C 
BRANCH  27  29
ATOM     28  C   UNL     1      -6.966   1.810 123.827  0.00  0.00    +0.000 C 
ATOM     29  C   UNL     1      -8.479   1.803 124.002  0.00  0.00    +0.000 C 
ATOM     30  C   UNL     1      -9.151   2.266 122.704  0.00  0.00    +0.000 C 
ENDBRANCH  27  29
ENDBRANCH  26  27
ENDBRANCH  25  26
ENDBRANCH  23  25
ENDBRANCH  22  23
ENDBRANCH  21  22
ENDBRANCH  20  21
ENDBRANCH  18  20
ENDBRANCH  17  18
ENDBRANCH  16  17
ENDBRANCH  15  16
ENDBRANCH   1  15
BRANCH   8  31
ATOM     31  O   UNL     1      -9.601   4.648 129.203  0.00  0.00    +0.000 OA
BRANCH  31  32
ATOM     32  C   UNL     1      -9.819   5.986 129.819  0.00  0.00    +0.000 C 
ATOM     33  C   UNL     1     -10.891   5.958 130.849  0.00  0.00    +0.000 C 
ATOM     34  O   UNL     1      -9.214   6.983 129.534  0.00  0.00    +0.000 OA
ENDBRANCH  31  32
ENDBRANCH   8  31
TORSDOF 14
ENDMDL
