MODEL 1
REMARK VINA RESULT:      -4.7      0.000      0.000
REMARK  Name = D-glucose
REMARK  10 active torsions:
REMARK  status: ('A' for Active; 'I' for Inactive)
REMARK    1  A    between atoms: C_2  and  O_3
REMARK    2  A    between atoms: C_2  and  C_4
REMARK    3  A    between atoms: C_2  and  C_6
REMARK    4  A    between atoms: C_4  and  O_5
REMARK    5  A    between atoms: C_6  and  O_8
REMARK    6  A    between atoms: C_6  and  C_9
REMARK    7  A    between atoms: C_9  and  O_11
REMARK    8  A    between atoms: C_9  and  C_12
REMARK    9  A    between atoms: C_12  and  O_14
REMARK   10  A    between atoms: C_12  and  C_15
REMARK                            x       y       z     vdW  Elec       q    Type
REMARK                         _______ _______ _______ _____ _____    ______ ____
ROOT
ATOM      1  C   UNL     1     -10.618   7.051 130.089  0.00  0.00    +0.000 C 
ENDROOT
BRANCH   1   2
ATOM      2  O   UNL     1      -9.486   6.699 129.251  0.00  0.00    +0.000 OA
ATOM      3  H   UNL     1      -8.664   6.924 129.720  0.00  0.00    +0.000 HD
ENDBRANCH   1   2
BRANCH   1   4
ATOM      4  C   UNL     1     -10.864   5.905 131.098  0.00  0.00    +0.000 C 
BRANCH   4   5
ATOM      5  O   UNL     1     -12.114   6.151 131.766  0.00  0.00    +0.000 OA
ATOM      6  H   UNL     1     -12.145   7.112 131.934  0.00  0.00    +0.000 HD
ENDBRANCH   4   5
BRANCH   4   7
ATOM      7  C   UNL     1      -9.747   5.708 132.134  0.00  0.00    +0.000 C 
BRANCH   7   8
ATOM      8  O   UNL     1     -10.025   6.468 133.301  0.00  0.00    +0.000 OA
ATOM      9  H   UNL     1     -10.544   7.233 132.978  0.00  0.00    +0.000 HD
ENDBRANCH   7   8
ENDBRANCH   4   7
ENDBRANCH   1   4
BRANCH   1  10
ATOM     10  C   UNL     1     -11.789   7.391 129.108  0.00  0.00    +0.000 C 
BRANCH  10  11
ATOM     11  O   UNL     1     -12.361   6.149 128.646  0.00  0.00    +0.000 OA
ATOM     12  H   UNL     1     -12.732   6.305 127.759  0.00  0.00    +0.000 HD
ENDBRANCH  10  11
BRANCH  10  13
ATOM     13  C   UNL     1     -11.470   8.243 127.860  0.00  0.00    +0.000 C 
BRANCH  13  14
ATOM     14  O   UNL     1     -10.364   9.114 128.065  0.00  0.00    +0.000 OA
ATOM     15  H   UNL     1      -9.539   8.584 128.141  0.00  0.00    +0.000 HD
ENDBRANCH  13  14
BRANCH  13  16
ATOM     16  C   UNL     1     -11.451   7.308 126.618  0.00  0.00    +0.000 C 
ATOM     17  O   UNL     1     -10.538   6.558 126.321  0.00  0.00    +0.000 OA
ENDBRANCH  13  16
ENDBRANCH  10  13
ENDBRANCH   1  10
TORSDOF 10
ENDMDL
MODEL 2
REMARK VINA RESULT:      -4.7      1.313      4.506
REMARK  Name = D-glucose
REMARK  10 active torsions:
REMARK  status: ('A' for Active; 'I' for Inactive)
REMARK    1  A    between atoms: C_2  and  O_3
REMARK    2  A    between atoms: C_2  and  C_4
REMARK    3  A    between atoms: C_2  and  C_6
REMARK    4  A    between atoms: C_4  and  O_5
REMARK    5  A    between atoms: C_6  and  O_8
REMARK    6  A    between atoms: C_6  and  C_9
REMARK    7  A    between atoms: C_9  and  O_11
REMARK    8  A    between atoms: C_9  and  C_12
REMARK    9  A    between atoms: C_12  and  O_14
REMARK   10  A    between atoms: C_12  and  C_15
REMARK                            x       y       z     vdW  Elec       q    Type
REMARK                         _______ _______ _______ _____ _____    ______ ____
ROOT
ATOM      1  C   UNL     1     -11.913   7.149 129.313  0.00  0.00    +0.000 C 
ENDROOT
BRANCH   1   2
ATOM      2  O   UNL     1     -12.684   5.984 128.915  0.00  0.00    +0.000 OA
ATOM      3  H   UNL     1     -13.104   6.162 128.056  0.00  0.00    +0.000 HD
ENDBRANCH   1   2
BRANCH   1   4
ATOM      4  C   UNL     1     -11.738   8.071 128.084  0.00  0.00    +0.000 C 
BRANCH   4   5
ATOM      5  O   UNL     1     -12.508   9.266 128.302  0.00  0.00    +0.000 OA
ATOM      6  H   UNL     1     -13.048   9.097 129.098  0.00  0.00    +0.000 HD
ENDBRANCH   4   5
BRANCH   4   7
ATOM      7  C   UNL     1     -12.126   7.435 126.741  0.00  0.00    +0.000 C 
BRANCH   7   8
ATOM      8  O   UNL     1     -11.129   6.509 126.334  0.00  0.00    +0.000 OA
ATOM      9  H   UNL     1     -10.717   6.208 127.170  0.00  0.00    +0.000 HD
ENDBRANCH   7   8
ENDBRANCH   4   7
ENDBRANCH   1   4
BRANCH   1  10
ATOM     10  C   UNL     1     -10.607   6.594 129.972  0.00  0.00    +0.000 C 
BRANCH  10  11
ATOM     11  O   UNL     1      -9.888   5.837 128.975  0.00  0.00    +0.000 OA
ATOM     12  H   UNL     1      -9.554   6.466 128.310  0.00  0.00    +0.000 HD
ENDBRANCH  10  11
BRANCH  10  13
ATOM     13  C   UNL     1     -10.744   5.697 131.222  0.00  0.00    +0.000 C 
BRANCH  13  14
ATOM     14  O   UNL     1     -11.931   5.970 131.958  0.00  0.00    +0.000 OA
ATOM     15  H   UNL     1     -11.792   5.735 132.902  0.00  0.00    +0.000 HD
ENDBRANCH  13  14
BRANCH  13  16
ATOM     16  C   UNL     1     -10.458   4.227 130.805  0.00  0.00    +0.000 C 
ATOM     17  O   UNL     1     -11.177   3.548 130.094  0.00  0.00    +0.000 OA
ENDBRANCH  13  16
ENDBRANCH  10  13
ENDBRANCH   1  10
TORSDOF 10
ENDMDL
MODEL 3
REMARK VINA RESULT:      -4.4      1.491      4.152
REMARK  Name = D-glucose
REMARK  10 active torsions:
REMARK  status: ('A' for Active; 'I' for Inactive)
REMARK    1  A    between atoms: C_2  and  O_3
REMARK    2  A    between atoms: C_2  and  C_4
REMARK    3  A    between atoms: C_2  and  C_6
REMARK    4  A    between atoms: C_4  and  O_5
REMARK    5  A    between atoms: C_6  and  O_8
REMARK    6  A    between atoms: C_6  and  C_9
REMARK    7  A    between atoms: C_9  and  O_11
REMARK    8  A    between atoms: C_9  and  C_12
REMARK    9  A    between atoms: C_12  and  O_14
REMARK   10  A    between atoms: C_12  and  C_15
REMARK                            x       y       z     vdW  Elec       q    Type
REMARK                         _______ _______ _______ _____ _____    ______ ____
ROOT
ATOM      1  C   UNL     1     -11.785   8.072 129.656  0.00  0.00    +0.000 C 
ENDROOT
BRANCH   1   2
ATOM      2  O   UNL     1     -12.809   9.033 130.026  0.00  0.00    +0.000 OA
ATOM      3  H   UNL     1     -12.629   9.875 129.575  0.00  0.00    +0.000 HD
ENDBRANCH   1   2
BRANCH   1   4
ATOM      4  C   UNL     1     -11.967   7.702 128.166  0.00  0.00    +0.000 C 
BRANCH   4   5
ATOM      5  O   UNL     1     -12.532   6.381 128.094  0.00  0.00    +0.000 OA
ATOM      6  H   UNL     1     -12.268   6.023 127.224  0.00  0.00    +0.000 HD
ENDBRANCH   4   5
BRANCH   4   7
ATOM      7  C   UNL     1     -10.684   7.770 127.325  0.00  0.00    +0.000 C 
BRANCH   7   8
ATOM      8  O   UNL     1      -9.932   6.575 127.484  0.00  0.00    +0.000 OA
ATOM      9  H   UNL     1     -10.536   5.968 127.961  0.00  0.00    +0.000 HD
ENDBRANCH   7   8
ENDBRANCH   4   7
ENDBRANCH   1   4
BRANCH   1  10
ATOM     10  C   UNL     1     -11.897   6.905 130.693  0.00  0.00    +0.000 C 
BRANCH  10  11
ATOM     11  O   UNL     1     -12.808   7.318 131.735  0.00  0.00    +0.000 OA
ATOM     12  H   UNL     1     -12.648   8.263 131.910  0.00  0.00    +0.000 HD
ENDBRANCH  10  11
BRANCH  10  13
ATOM     13  C   UNL     1     -10.605   6.411 131.379  0.00  0.00    +0.000 C 
BRANCH  13  14
ATOM     14  O   UNL     1     -10.702   6.432 132.798  0.00  0.00    +0.000 OA
ATOM     15  H   UNL     1     -10.907   5.529 133.127  0.00  0.00    +0.000 HD
ENDBRANCH  13  14
BRANCH  13  16
ATOM     16  C   UNL     1     -10.159   5.089 130.692  0.00  0.00    +0.000 C 
ATOM     17  O   UNL     1     -10.660   4.619 129.685  0.00  0.00    +0.000 OA
ENDBRANCH  13  16
ENDBRANCH  10  13
ENDBRANCH   1  10
TORSDOF 10
ENDMDL
MODEL 4
REMARK VINA RESULT:      -4.4      1.675      4.421
REMARK  Name = D-glucose
REMARK  10 active torsions:
REMARK  status: ('A' for Active; 'I' for Inactive)
REMARK    1  A    between atoms: C_2  and  O_3
REMARK    2  A    between atoms: C_2  and  C_4
REMARK    3  A    between atoms: C_2  and  C_6
REMARK    4  A    between atoms: C_4  and  O_5
REMARK    5  A    between atoms: C_6  and  O_8
REMARK    6  A    between atoms: C_6  and  C_9
REMARK    7  A    between atoms: C_9  and  O_11
REMARK    8  A    between atoms: C_9  and  C_12
REMARK    9  A    between atoms: C_12  and  O_14
REMARK   10  A    between atoms: C_12  and  C_15
REMARK                            x       y       z     vdW  Elec       q    Type
REMARK                         _______ _______ _______ _____ _____    ______ ____
ROOT
ATOM      1  C   UNL     1     -12.137   7.252 129.355  0.00  0.00    +0.000 C 
ENDROOT
BRANCH   1   2
ATOM      2  O   UNL     1     -12.158   6.180 128.374  0.00  0.00    +0.000 OA
ATOM      3  H   UNL     1     -11.789   6.511 127.538  0.00  0.00    +0.000 HD
ENDBRANCH   1   2
BRANCH   1   4
ATOM      4  C   UNL     1     -12.359   8.596 128.624  0.00  0.00    +0.000 C 
BRANCH   4   5
ATOM      5  O   UNL     1     -11.100   9.023 128.072  0.00  0.00    +0.000 OA
ATOM      6  H   UNL     1     -11.038   8.608 127.191  0.00  0.00    +0.000 HD
ENDBRANCH   4   5
BRANCH   4   7
ATOM      7  C   UNL     1     -12.955   9.712 129.495  0.00  0.00    +0.000 C 
BRANCH   7   8
ATOM      8  O   UNL     1     -13.571  10.693 128.674  0.00  0.00    +0.000 OA
ATOM      9  H   UNL     1     -14.436  10.302 128.431  0.00  0.00    +0.000 HD
ENDBRANCH   7   8
ENDBRANCH   4   7
ENDBRANCH   1   4
BRANCH   1  10
ATOM     10  C   UNL     1     -10.795   7.087 130.141  0.00  0.00    +0.000 C 
BRANCH  10  11
ATOM     11  O   UNL     1      -9.768   6.706 129.200  0.00  0.00    +0.000 OA
ATOM     12  H   UNL     1      -9.996   5.824 128.854  0.00  0.00    +0.000 HD
ENDBRANCH  10  11
BRANCH  10  13
ATOM     13  C   UNL     1     -10.750   6.075 131.307  0.00  0.00    +0.000 C 
BRANCH  13  14
ATOM     14  O   UNL     1     -11.967   6.044 132.045  0.00  0.00    +0.000 OA
ATOM     15  H   UNL     1     -11.947   6.740 132.739  0.00  0.00    +0.000 HD
ENDBRANCH  13  14
BRANCH  13  16
ATOM     16  C   UNL     1     -10.180   4.732 130.770  0.00  0.00    +0.000 C 
ATOM     17  O   UNL     1     -10.742   4.001 129.973  0.00  0.00    +0.000 OA
ENDBRANCH  13  16
ENDBRANCH  10  13
ENDBRANCH   1  10
TORSDOF 10
ENDMDL
MODEL 5
REMARK VINA RESULT:      -4.4      1.384      4.570
REMARK  Name = D-glucose
REMARK  10 active torsions:
REMARK  status: ('A' for Active; 'I' for Inactive)
REMARK    1  A    between atoms: C_2  and  O_3
REMARK    2  A    between atoms: C_2  and  C_4
REMARK    3  A    between atoms: C_2  and  C_6
REMARK    4  A    between atoms: C_4  and  O_5
REMARK    5  A    between atoms: C_6  and  O_8
REMARK    6  A    between atoms: C_6  and  C_9
REMARK    7  A    between atoms: C_9  and  O_11
REMARK    8  A    between atoms: C_9  and  C_12
REMARK    9  A    between atoms: C_12  and  O_14
REMARK   10  A    between atoms: C_12  and  C_15
REMARK                            x       y       z     vdW  Elec       q    Type
REMARK                         _______ _______ _______ _____ _____    ______ ____
ROOT
ATOM      1  C   UNL     1     -10.456   7.188 128.714  0.00  0.00    +0.000 C 
ENDROOT
BRANCH   1   2
ATOM      2  O   UNL     1      -9.392   7.695 129.563  0.00  0.00    +0.000 OA
ATOM      3  H   UNL     1      -9.705   8.498 130.014  0.00  0.00    +0.000 HD
ENDBRANCH   1   2
BRANCH   1   4
ATOM      4  C   UNL     1     -10.810   8.267 127.665  0.00  0.00    +0.000 C 
BRANCH   4   5
ATOM      5  O   UNL     1     -12.021   8.922 128.081  0.00  0.00    +0.000 OA
ATOM      6  H   UNL     1     -12.618   8.900 127.308  0.00  0.00    +0.000 HD
ENDBRANCH   4   5
BRANCH   4   7
ATOM      7  C   UNL     1     -10.964   7.743 126.229  0.00  0.00    +0.000 C 
BRANCH   7   8
ATOM      8  O   UNL     1     -11.880   6.658 126.202  0.00  0.00    +0.000 OA
ATOM      9  H   UNL     1     -11.333   5.881 125.963  0.00  0.00    +0.000 HD
ENDBRANCH   7   8
ENDBRANCH   4   7
ENDBRANCH   1   4
BRANCH   1  10
ATOM     10  C   UNL     1     -11.601   6.741 129.682  0.00  0.00    +0.000 C 
BRANCH  10  11
ATOM     11  O   UNL     1     -11.909   7.850 130.553  0.00  0.00    +0.000 OA
ATOM     12  H   UNL     1     -11.080   8.131 130.980  0.00  0.00    +0.000 HD
ENDBRANCH  10  11
BRANCH  10  13
ATOM     13  C   UNL     1     -11.361   5.505 130.576  0.00  0.00    +0.000 C 
BRANCH  13  14
ATOM     14  O   UNL     1     -10.484   4.561 129.973  0.00  0.00    +0.000 OA
ATOM     15  H   UNL     1     -10.782   3.650 130.191  0.00  0.00    +0.000 HD
ENDBRANCH  13  14
BRANCH  13  16
ATOM     16  C   UNL     1     -11.038   5.996 132.016  0.00  0.00    +0.000 C 
ATOM     17  O   UNL     1      -9.997   6.530 132.356  0.00  0.00    +0.000 OA
ENDBRANCH  13  16
ENDBRANCH  10  13
ENDBRANCH   1  10
TORSDOF 10
ENDMDL
MODEL 6
REMARK VINA RESULT:      -4.4      1.573      4.095
REMARK  Name = D-glucose
REMARK  10 active torsions:
REMARK  status: ('A' for Active; 'I' for Inactive)
REMARK    1  A    between atoms: C_2  and  O_3
REMARK    2  A    between atoms: C_2  and  C_4
REMARK    3  A    between atoms: C_2  and  C_6
REMARK    4  A    between atoms: C_4  and  O_5
REMARK    5  A    between atoms: C_6  and  O_8
REMARK    6  A    between atoms: C_6  and  C_9
REMARK    7  A    between atoms: C_9  and  O_11
REMARK    8  A    between atoms: C_9  and  C_12
REMARK    9  A    between atoms: C_12  and  O_14
REMARK   10  A    between atoms: C_12  and  C_15
REMARK                            x       y       z     vdW  Elec       q    Type
REMARK                         _______ _______ _______ _____ _____    ______ ____
ROOT
ATOM      1  C   UNL     1     -12.189   7.155 130.328  0.00  0.00    +0.000 C 
ENDROOT
BRANCH   1   2
ATOM      2  O   UNL     1     -13.068   6.973 131.470  0.00  0.00    +0.000 OA
ATOM      3  H   UNL     1     -12.587   7.217 132.279  0.00  0.00    +0.000 HD
ENDBRANCH   1   2
BRANCH   1   4
ATOM      4  C   UNL     1     -13.049   7.504 129.091  0.00  0.00    +0.000 C 
BRANCH   4   5
ATOM      5  O   UNL     1     -12.934   6.428 128.143  0.00  0.00    +0.000 OA
ATOM      6  H   UNL     1     -12.057   6.529 127.726  0.00  0.00    +0.000 HD
ENDBRANCH   4   5
BRANCH   4   7
ATOM      7  C   UNL     1     -12.696   8.837 128.416  0.00  0.00    +0.000 C 
BRANCH   7   8
ATOM      8  O   UNL     1     -11.289   8.943 128.252  0.00  0.00    +0.000 OA
ATOM      9  H   UNL     1     -10.917   8.365 128.950  0.00  0.00    +0.000 HD
ENDBRANCH   7   8
ENDBRANCH   4   7
ENDBRANCH   1   4
BRANCH   1  10
ATOM     10  C   UNL     1     -11.322   5.855 130.242  0.00  0.00    +0.000 C 
BRANCH  10  11
ATOM     11  O   UNL     1     -11.264   5.268 131.560  0.00  0.00    +0.000 OA
ATOM     12  H   UNL     1     -11.635   4.369 131.501  0.00  0.00    +0.000 HD
ENDBRANCH  10  11
BRANCH  10  13
ATOM     13  C   UNL     1      -9.872   5.977 129.727  0.00  0.00    +0.000 C 
BRANCH  13  14
ATOM     14  O   UNL     1      -9.813   6.263 128.334  0.00  0.00    +0.000 OA
ATOM     15  H   UNL     1     -10.725   6.309 127.970  0.00  0.00    +0.000 HD
ENDBRANCH  13  14
BRANCH  13  16
ATOM     16  C   UNL     1      -9.080   6.896 130.700  0.00  0.00    +0.000 C 
ATOM     17  O   UNL     1      -8.954   6.704 131.897  0.00  0.00    +0.000 OA
ENDBRANCH  13  16
ENDBRANCH  10  13
ENDBRANCH   1  10
TORSDOF 10
ENDMDL
MODEL 7
REMARK VINA RESULT:      -4.3      1.302      2.635
REMARK  Name = D-glucose
REMARK  10 active torsions:
REMARK  status: ('A' for Active; 'I' for Inactive)
REMARK    1  A    between atoms: C_2  and  O_3
REMARK    2  A    between atoms: C_2  and  C_4
REMARK    3  A    between atoms: C_2  and  C_6
REMARK    4  A    between atoms: C_4  and  O_5
REMARK    5  A    between atoms: C_6  and  O_8
REMARK    6  A    between atoms: C_6  and  C_9
REMARK    7  A    between atoms: C_9  and  O_11
REMARK    8  A    between atoms: C_9  and  C_12
REMARK    9  A    between atoms: C_12  and  O_14
REMARK   10  A    between atoms: C_12  and  C_15
REMARK                            x       y       z     vdW  Elec       q    Type
REMARK                         _______ _______ _______ _____ _____    ______ ____
ROOT
ATOM      1  C   UNL     1     -10.528   6.344 129.136  0.00  0.00    +0.000 C 
ENDROOT
BRANCH   1   2
ATOM      2  O   UNL     1     -11.819   5.678 129.113  0.00  0.00    +0.000 OA
ATOM      3  H   UNL     1     -12.449   6.195 129.644  0.00  0.00    +0.000 HD
ENDBRANCH   1   2
BRANCH   1   4
ATOM      4  C   UNL     1     -10.307   6.948 130.542  0.00  0.00    +0.000 C 
BRANCH   4   5
ATOM      5  O   UNL     1      -8.906   7.239 130.693  0.00  0.00    +0.000 OA
ATOM      6  H   UNL     1      -8.752   8.077 130.216  0.00  0.00    +0.000 HD
ENDBRANCH   4   5
BRANCH   4   7
ATOM      7  C   UNL     1     -10.787   6.067 131.705  0.00  0.00    +0.000 C 
BRANCH   7   8
ATOM      8  O   UNL     1     -12.186   6.225 131.890  0.00  0.00    +0.000 OA
ATOM      9  H   UNL     1     -12.521   5.314 132.022  0.00  0.00    +0.000 HD
ENDBRANCH   7   8
ENDBRANCH   4   7
ENDBRANCH   1   4
BRANCH   1  10
ATOM     10  C   UNL     1     -10.540   7.342 127.931  0.00  0.00    +0.000 C 
BRANCH  10  11
ATOM     11  O   UNL     1     -10.008   8.604 128.391  0.00  0.00    +0.000 OA
ATOM     12  H   UNL     1     -10.363   9.303 127.812  0.00  0.00    +0.000 HD
ENDBRANCH  10  11
BRANCH  10  13
ATOM     13  C   UNL     1     -11.888   7.635 127.238  0.00  0.00    +0.000 C 
BRANCH  13  14
ATOM     14  O   UNL     1     -12.362   6.526 126.482  0.00  0.00    +0.000 OA
ATOM     15  H   UNL     1     -11.648   6.206 125.887  0.00  0.00    +0.000 HD
ENDBRANCH  13  14
BRANCH  13  16
ATOM     16  C   UNL     1     -12.846   8.279 128.280  0.00  0.00    +0.000 C 
ATOM     17  O   UNL     1     -12.655   9.340 128.846  0.00  0.00    +0.000 OA
ENDBRANCH  13  16
ENDBRANCH  10  13
ENDBRANCH   1  10
TORSDOF 10
ENDMDL
MODEL 8
REMARK VINA RESULT:      -4.3      1.680      2.720
REMARK  Name = D-glucose
REMARK  10 active torsions:
REMARK  status: ('A' for Active; 'I' for Inactive)
REMARK    1  A    between atoms: C_2  and  O_3
REMARK    2  A    between atoms: C_2  and  C_4
REMARK    3  A    between atoms: C_2  and  C_6
REMARK    4  A    between atoms: C_4  and  O_5
REMARK    5  A    between atoms: C_6  and  O_8
REMARK    6  A    between atoms: C_6  and  C_9
REMARK    7  A    between atoms: C_9  and  O_11
REMARK    8  A    between atoms: C_9  and  C_12
REMARK    9  A    between atoms: C_12  and  O_14
REMARK   10  A    between atoms: C_12  and  C_15
REMARK                            x       y       z     vdW  Elec       q    Type
REMARK                         _______ _______ _______ _____ _____    ______ ____
ROOT
ATOM      1  C   UNL     1     -10.411   7.014 129.433  0.00  0.00    +0.000 C 
ENDROOT
BRANCH   1   2
ATOM      2  O   UNL     1      -9.727   6.193 128.450  0.00  0.00    +0.000 OA
ATOM      3  H   UNL     1      -9.174   5.541 128.914  0.00  0.00    +0.000 HD
ENDBRANCH   1   2
BRANCH   1   4
ATOM      4  C   UNL     1      -9.649   6.919 130.775  0.00  0.00    +0.000 C 
BRANCH   4   5
ATOM      5  O   UNL     1      -8.246   7.093 130.512  0.00  0.00    +0.000 OA
ATOM      6  H   UNL     1      -7.944   6.261 130.098  0.00  0.00    +0.000 HD
ENDBRANCH   4   5
BRANCH   4   7
ATOM      7  C   UNL     1      -9.879   5.616 131.554  0.00  0.00    +0.000 C 
BRANCH   7   8
ATOM      8  O   UNL     1     -10.662   5.871 132.711  0.00  0.00    +0.000 OA
ATOM      9  H   UNL     1     -10.378   6.760 133.008  0.00  0.00    +0.000 HD
ENDBRANCH   7   8
ENDBRANCH   4   7
ENDBRANCH   1   4
BRANCH   1  10
ATOM     10  C   UNL     1     -11.901   6.535 129.430  0.00  0.00    +0.000 C 
BRANCH  10  11
ATOM     11  O   UNL     1     -12.321   6.389 128.057  0.00  0.00    +0.000 OA
ATOM     12  H   UNL     1     -12.413   5.436 127.875  0.00  0.00    +0.000 HD
ENDBRANCH  10  11
BRANCH  10  13
ATOM     13  C   UNL     1     -12.952   7.414 130.142  0.00  0.00    +0.000 C 
BRANCH  13  14
ATOM     14  O   UNL     1     -13.059   7.115 131.529  0.00  0.00    +0.000 OA
ATOM     15  H   UNL     1     -12.505   6.331 131.739  0.00  0.00    +0.000 HD
ENDBRANCH  13  14
BRANCH  13  16
ATOM     16  C   UNL     1     -12.719   8.894 129.724  0.00  0.00    +0.000 C 
ATOM     17  O   UNL     1     -13.015   9.371 128.643  0.00  0.00    +0.000 OA
ENDBRANCH  13  16
ENDBRANCH  10  13
ENDBRANCH   1  10
TORSDOF 10
ENDMDL
MODEL 9
REMARK VINA RESULT:      -4.3      1.411      4.179
REMARK  Name = D-glucose
REMARK  10 active torsions:
REMARK  status: ('A' for Active; 'I' for Inactive)
REMARK    1  A    between atoms: C_2  and  O_3
REMARK    2  A    between atoms: C_2  and  C_4
REMARK    3  A    between atoms: C_2  and  C_6
REMARK    4  A    between atoms: C_4  and  O_5
REMARK    5  A    between atoms: C_6  and  O_8
REMARK    6  A    between atoms: C_6  and  C_9
REMARK    7  A    between atoms: C_9  and  O_11
REMARK    8  A    between atoms: C_9  and  C_12
REMARK    9  A    between atoms: C_12  and  O_14
REMARK   10  A    between atoms: C_12  and  C_15
REMARK                            x       y       z     vdW  Elec       q    Type
REMARK                         _______ _______ _______ _____ _____    ______ ____
ROOT
ATOM      1  C   UNL     1     -10.081   6.472 128.918  0.00  0.00    +0.000 C 
ENDROOT
BRANCH   1   2
ATOM      2  O   UNL     1      -9.744   7.710 129.598  0.00  0.00    +0.000 OA
ATOM      3  H   UNL     1     -10.442   8.364 129.425  0.00  0.00    +0.000 HD
ENDBRANCH   1   2
BRANCH   1   4
ATOM      4  C   UNL     1     -10.581   6.808 127.494  0.00  0.00    +0.000 C 
BRANCH   4   5
ATOM      5  O   UNL     1      -9.618   6.310 126.548  0.00  0.00    +0.000 OA
ATOM      6  H   UNL     1     -10.080   6.277 125.687  0.00  0.00    +0.000 HD
ENDBRANCH   4   5
BRANCH   4   7
ATOM      7  C   UNL     1     -10.843   8.299 127.239  0.00  0.00    +0.000 C 
BRANCH   7   8
ATOM      8  O   UNL     1     -11.935   8.745 128.030  0.00  0.00    +0.000 OA
ATOM      9  H   UNL     1     -12.665   8.130 127.808  0.00  0.00    +0.000 HD
ENDBRANCH   7   8
ENDBRANCH   4   7
ENDBRANCH   1   4
BRANCH   1  10
ATOM     10  C   UNL     1     -11.081   5.724 129.860  0.00  0.00    +0.000 C 
BRANCH  10  11
ATOM     11  O   UNL     1     -12.390   5.773 129.253  0.00  0.00    +0.000 OA
ATOM     12  H   UNL     1     -12.669   4.857 129.074  0.00  0.00    +0.000 HD
ENDBRANCH  10  11
BRANCH  10  13
ATOM     13  C   UNL     1     -11.228   6.224 131.314  0.00  0.00    +0.000 C 
BRANCH  13  14
ATOM     14  O   UNL     1      -9.990   6.651 131.869  0.00  0.00    +0.000 OA
ATOM     15  H   UNL     1      -9.967   7.633 131.903  0.00  0.00    +0.000 HD
ENDBRANCH  13  14
BRANCH  13  16
ATOM     16  C   UNL     1     -12.438   7.199 131.378  0.00  0.00    +0.000 C 
ATOM     17  O   UNL     1     -12.582   8.185 130.677  0.00  0.00    +0.000 OA
ENDBRANCH  13  16
ENDBRANCH  10  13
ENDBRANCH   1  10
TORSDOF 10
ENDMDL
