MODEL 1
REMARK VINA RESULT:      -4.4      0.000      0.000
REMARK  Name = D-Methionine
REMARK  7 active torsions:
REMARK  status: ('A' for Active; 'I' for Inactive)
REMARK    1  A    between atoms: CE_1  and  SD_2
REMARK    2  A    between atoms: SD_2  and  CG_3
REMARK    3  A    between atoms: CG_3  and  CB_4
REMARK    4  A    between atoms: CB_4  and  CA_5
REMARK    5  A    between atoms: CA_5  and  N_6
REMARK    6  A    between atoms: CA_5  and  C_7
REMARK    7  A    between atoms: C_7  and  O_8
REMARK                            x       y       z     vdW  Elec       q    Type
REMARK                         _______ _______ _______ _____ _____    ______ ____
ROOT
ATOM      1  CA  MET A   1     -11.163   8.289 127.562  0.00  0.00    +0.000 C 
ENDROOT
BRANCH   1   2
ATOM      2  N   MET A   1     -10.077   8.271 128.556  0.00  0.00    +0.000 NA
ATOM      3  H1  MET A   1      -9.505   9.110 128.477  0.00  0.00    +0.000 HD
ATOM      4  H2  MET A   1      -9.467   7.468 128.435  0.00  0.00    +0.000 HD
ENDBRANCH   1   2
BRANCH   1   5
ATOM      5  C   MET A   1     -10.688   7.539 126.285  0.00  0.00    +0.000 C 
ATOM      6  OXT MET A   1     -10.198   6.413 126.314  0.00  0.00    +0.000 OA
BRANCH   5   7
ATOM      7  O   MET A   1     -10.846   8.174 125.103  0.00  0.00    +0.000 OA
ATOM      8  H   MET A   1     -10.187   8.017 124.404  0.00  0.00    +0.000 HD
ENDBRANCH   5   7
ENDBRANCH   1   5
BRANCH   1   9
ATOM      9  CB  MET A   1     -12.465   7.750 128.171  0.00  0.00    +0.000 C 
BRANCH   9  10
ATOM     10  CG  MET A   1     -12.264   6.608 129.175  0.00  0.00    +0.000 C 
BRANCH  10  12
ATOM     11  CE  MET A   1     -11.447   6.463 131.848  0.00  0.00    +0.000 C 
ATOM     12  SD  MET A   1     -12.725   7.239 130.825  0.00  0.00    +0.000 S 
ENDBRANCH  10  12
ENDBRANCH   9  10
ENDBRANCH   1   9
TORSDOF 6
ENDMDL
MODEL 2
REMARK VINA RESULT:      -4.1      1.567      1.784
REMARK  Name = D-Methionine
REMARK  7 active torsions:
REMARK  status: ('A' for Active; 'I' for Inactive)
REMARK    1  A    between atoms: CE_1  and  SD_2
REMARK    2  A    between atoms: SD_2  and  CG_3
REMARK    3  A    between atoms: CG_3  and  CB_4
REMARK    4  A    between atoms: CB_4  and  CA_5
REMARK    5  A    between atoms: CA_5  and  N_6
REMARK    6  A    between atoms: CA_5  and  C_7
REMARK    7  A    between atoms: C_7  and  O_8
REMARK                            x       y       z     vdW  Elec       q    Type
REMARK                         _______ _______ _______ _____ _____    ______ ____
ROOT
ATOM      1  CA  MET A   1     -12.521   7.829 128.099  0.00  0.00    +0.000 C 
ENDROOT
BRANCH   1   2
ATOM      2  N   MET A   1     -12.328   9.194 128.618  0.00  0.00    +0.000 NA
ATOM      3  H1  MET A   1     -13.089   9.802 128.319  0.00  0.00    +0.000 HD
ATOM      4  H2  MET A   1     -11.459   9.604 128.290  0.00  0.00    +0.000 HD
ENDBRANCH   1   2
BRANCH   1   5
ATOM      5  C   MET A   1     -11.223   7.382 127.369  0.00  0.00    +0.000 C 
ATOM      6  OXT MET A   1     -10.098   7.584 127.821  0.00  0.00    +0.000 OA
BRANCH   5   7
ATOM      7  O   MET A   1     -11.369   6.732 126.194  0.00  0.00    +0.000 OA
ATOM      8  H   MET A   1     -10.858   5.917 126.052  0.00  0.00    +0.000 HD
ENDBRANCH   5   7
ENDBRANCH   1   5
BRANCH   1   9
ATOM      9  CB  MET A   1     -12.982   6.884 129.217  0.00  0.00    +0.000 C 
BRANCH   9  10
ATOM     10  CG  MET A   1     -12.848   7.467 130.629  0.00  0.00    +0.000 C 
BRANCH  10  12
ATOM     11  CE  MET A   1     -11.345   5.122 130.351  0.00  0.00    +0.000 C 
ATOM     12  SD  MET A   1     -11.575   6.497 131.508  0.00  0.00    +0.000 S 
ENDBRANCH  10  12
ENDBRANCH   9  10
ENDBRANCH   1   9
TORSDOF 6
ENDMDL
MODEL 3
REMARK VINA RESULT:      -4.1      2.059      2.177
REMARK  Name = D-Methionine
REMARK  7 active torsions:
REMARK  status: ('A' for Active; 'I' for Inactive)
REMARK    1  A    between atoms: CE_1  and  SD_2
REMARK    2  A    between atoms: SD_2  and  CG_3
REMARK    3  A    between atoms: CG_3  and  CB_4
REMARK    4  A    between atoms: CB_4  and  CA_5
REMARK    5  A    between atoms: CA_5  and  N_6
REMARK    6  A    between atoms: CA_5  and  C_7
REMARK    7  A    between atoms: C_7  and  O_8
REMARK                            x       y       z     vdW  Elec       q    Type
REMARK                         _______ _______ _______ _____ _____    ______ ____
ROOT
ATOM      1  CA  MET A   1     -10.714   7.643 127.627  0.00  0.00    +0.000 C 
ENDROOT
BRANCH   1   2
ATOM      2  N   MET A   1      -9.849   6.503 127.274  0.00  0.00    +0.000 NA
ATOM      3  H1  MET A   1      -9.161   6.780 126.575  0.00  0.00    +0.000 HD
ATOM      4  H2  MET A   1     -10.383   5.728 126.893  0.00  0.00    +0.000 HD
ENDBRANCH   1   2
BRANCH   1   5
ATOM      5  C   MET A   1     -12.162   7.342 127.148  0.00  0.00    +0.000 C 
ATOM      6  OXT MET A   1     -13.160   7.767 127.724  0.00  0.00    +0.000 OA
BRANCH   5   7
ATOM      7  O   MET A   1     -12.298   6.586 126.036  0.00  0.00    +0.000 OA
ATOM      8  H   MET A   1     -12.277   7.030 125.171  0.00  0.00    +0.000 HD
ENDBRANCH   5   7
ENDBRANCH   1   5
BRANCH   1   9
ATOM      9  CB  MET A   1     -10.592   7.972 129.122  0.00  0.00    +0.000 C 
BRANCH   9  10
ATOM     10  CG  MET A   1      -9.990   6.844 129.968  0.00  0.00    +0.000 C 
BRANCH  10  12
ATOM     11  CE  MET A   1     -12.498   7.146 131.174  0.00  0.00    +0.000 C 
ATOM     12  SD  MET A   1     -11.372   5.842 130.615  0.00  0.00    +0.000 S 
ENDBRANCH  10  12
ENDBRANCH   9  10
ENDBRANCH   1   9
TORSDOF 6
ENDMDL
MODEL 4
REMARK VINA RESULT:      -4.0      3.240      4.513
REMARK  Name = D-Methionine
REMARK  7 active torsions:
REMARK  status: ('A' for Active; 'I' for Inactive)
REMARK    1  A    between atoms: CE_1  and  SD_2
REMARK    2  A    between atoms: SD_2  and  CG_3
REMARK    3  A    between atoms: CG_3  and  CB_4
REMARK    4  A    between atoms: CB_4  and  CA_5
REMARK    5  A    between atoms: CA_5  and  N_6
REMARK    6  A    between atoms: CA_5  and  C_7
REMARK    7  A    between atoms: C_7  and  O_8
REMARK                            x       y       z     vdW  Elec       q    Type
REMARK                         _______ _______ _______ _____ _____    ______ ____
ROOT
ATOM      1  CA  MET A   1     -11.698   5.982 131.042  0.00  0.00    +0.000 C 
ENDROOT
BRANCH   1   2
ATOM      2  N   MET A   1     -11.420   5.214 129.816  0.00  0.00    +0.000 NA
ATOM      3  H1  MET A   1     -10.457   5.356 129.516  0.00  0.00    +0.000 HD
ATOM      4  H2  MET A   1     -12.027   5.492 129.050  0.00  0.00    +0.000 HD
ENDBRANCH   1   2
BRANCH   1   5
ATOM      5  C   MET A   1     -10.348   6.429 131.670  0.00  0.00    +0.000 C 
ATOM      6  OXT MET A   1      -9.402   6.839 131.002  0.00  0.00    +0.000 OA
BRANCH   5   7
ATOM      7  O   MET A   1     -10.244   6.366 133.016  0.00  0.00    +0.000 OA
ATOM      8  H   MET A   1      -9.413   6.658 133.428  0.00  0.00    +0.000 HD
ENDBRANCH   5   7
ENDBRANCH   1   5
BRANCH   1   9
ATOM      9  CB  MET A   1     -12.678   7.128 130.753  0.00  0.00    +0.000 C 
BRANCH   9  10
ATOM     10  CG  MET A   1     -13.118   7.226 129.288  0.00  0.00    +0.000 C 
BRANCH  10  12
ATOM     11  CE  MET A   1     -10.871   8.457 128.162  0.00  0.00    +0.000 C 
ATOM     12  SD  MET A   1     -12.569   8.848 128.655  0.00  0.00    +0.000 S 
ENDBRANCH  10  12
ENDBRANCH   9  10
ENDBRANCH   1   9
TORSDOF 6
ENDMDL
MODEL 5
REMARK VINA RESULT:      -4.0      2.882      4.154
REMARK  Name = D-Methionine
REMARK  7 active torsions:
REMARK  status: ('A' for Active; 'I' for Inactive)
REMARK    1  A    between atoms: CE_1  and  SD_2
REMARK    2  A    between atoms: SD_2  and  CG_3
REMARK    3  A    between atoms: CG_3  and  CB_4
REMARK    4  A    between atoms: CB_4  and  CA_5
REMARK    5  A    between atoms: CA_5  and  N_6
REMARK    6  A    between atoms: CA_5  and  C_7
REMARK    7  A    between atoms: C_7  and  O_8
REMARK                            x       y       z     vdW  Elec       q    Type
REMARK                         _______ _______ _______ _____ _____    ______ ____
ROOT
ATOM      1  CA  MET A   1     -11.058   6.370 131.280  0.00  0.00    +0.000 C 
ENDROOT
BRANCH   1   2
ATOM      2  N   MET A   1     -10.791   5.958 132.669  0.00  0.00    +0.000 NA
ATOM      3  H1  MET A   1     -11.628   6.064 133.240  0.00  0.00    +0.000 HD
ATOM      4  H2  MET A   1     -10.055   6.513 133.094  0.00  0.00    +0.000 HD
ENDBRANCH   1   2
BRANCH   1   5
ATOM      5  C   MET A   1     -10.779   5.166 130.337  0.00  0.00    +0.000 C 
ATOM      6  OXT MET A   1     -10.051   5.242 129.351  0.00  0.00    +0.000 OA
BRANCH   5   7
ATOM      7  O   MET A   1     -11.367   3.990 130.650  0.00  0.00    +0.000 OA
ATOM      8  H   MET A   1     -11.591   3.380 129.926  0.00  0.00    +0.000 HD
ENDBRANCH   5   7
ENDBRANCH   1   5
BRANCH   1   9
ATOM      9  CB  MET A   1     -12.466   6.968 131.152  0.00  0.00    +0.000 C 
BRANCH   9  10
ATOM     10  CG  MET A   1     -12.946   7.143 129.707  0.00  0.00    +0.000 C 
BRANCH  10  12
ATOM     11  CE  MET A   1     -11.038   8.450 128.132  0.00  0.00    +0.000 C 
ATOM     12  SD  MET A   1     -12.475   8.823 129.169  0.00  0.00    +0.000 S 
ENDBRANCH  10  12
ENDBRANCH   9  10
ENDBRANCH   1   9
TORSDOF 6
ENDMDL
MODEL 6
REMARK VINA RESULT:      -3.9      3.832      4.863
REMARK  Name = D-Methionine
REMARK  7 active torsions:
REMARK  status: ('A' for Active; 'I' for Inactive)
REMARK    1  A    between atoms: CE_1  and  SD_2
REMARK    2  A    between atoms: SD_2  and  CG_3
REMARK    3  A    between atoms: CG_3  and  CB_4
REMARK    4  A    between atoms: CB_4  and  CA_5
REMARK    5  A    between atoms: CA_5  and  N_6
REMARK    6  A    between atoms: CA_5  and  C_7
REMARK    7  A    between atoms: C_7  and  O_8
REMARK                            x       y       z     vdW  Elec       q    Type
REMARK                         _______ _______ _______ _____ _____    ______ ____
ROOT
ATOM      1  CA  MET A   1     -11.508   6.024 130.061  0.00  0.00    +0.000 C 
ENDROOT
BRANCH   1   2
ATOM      2  N   MET A   1     -11.124   4.602 130.080  0.00  0.00    +0.000 NA
ATOM      3  H1  MET A   1     -11.673   4.074 129.405  0.00  0.00    +0.000 HD
ATOM      4  H2  MET A   1     -11.271   4.184 130.994  0.00  0.00    +0.000 HD
ENDBRANCH   1   2
BRANCH   1   5
ATOM      5  C   MET A   1     -11.945   6.445 131.492  0.00  0.00    +0.000 C 
ATOM      6  OXT MET A   1     -12.951   7.114 131.715  0.00  0.00    +0.000 OA
BRANCH   5   7
ATOM      7  O   MET A   1     -11.171   6.031 132.519  0.00  0.00    +0.000 OA
ATOM      8  H   MET A   1     -11.600   5.842 133.372  0.00  0.00    +0.000 HD
ENDBRANCH   5   7
ENDBRANCH   1   5
BRANCH   1   9
ATOM      9  CB  MET A   1     -10.385   6.881 129.459  0.00  0.00    +0.000 C 
BRANCH   9  10
ATOM     10  CG  MET A   1     -10.876   8.119 128.700  0.00  0.00    +0.000 C 
BRANCH  10  12
ATOM     11  CE  MET A   1     -12.596   7.083 126.750  0.00  0.00    +0.000 C 
ATOM     12  SD  MET A   1     -10.903   7.702 126.923  0.00  0.00    +0.000 S 
ENDBRANCH  10  12
ENDBRANCH   9  10
ENDBRANCH   1   9
TORSDOF 6
ENDMDL
MODEL 7
REMARK VINA RESULT:      -3.8      3.522      4.484
REMARK  Name = D-Methionine
REMARK  7 active torsions:
REMARK  status: ('A' for Active; 'I' for Inactive)
REMARK    1  A    between atoms: CE_1  and  SD_2
REMARK    2  A    between atoms: SD_2  and  CG_3
REMARK    3  A    between atoms: CG_3  and  CB_4
REMARK    4  A    between atoms: CB_4  and  CA_5
REMARK    5  A    between atoms: CA_5  and  N_6
REMARK    6  A    between atoms: CA_5  and  C_7
REMARK    7  A    between atoms: C_7  and  O_8
REMARK                            x       y       z     vdW  Elec       q    Type
REMARK                         _______ _______ _______ _____ _____    ______ ____
ROOT
ATOM      1  CA  MET A   1     -10.209   6.662 130.513  0.00  0.00    +0.000 C 
ENDROOT
BRANCH   1   2
ATOM      2  N   MET A   1      -8.829   7.008 130.897  0.00  0.00    +0.000 NA
ATOM      3  H1  MET A   1      -8.420   6.269 131.466  0.00  0.00    +0.000 HD
ATOM      4  H2  MET A   1      -8.790   7.869 131.432  0.00  0.00    +0.000 HD
ENDBRANCH   1   2
BRANCH   1   5
ATOM      5  C   MET A   1     -11.059   6.490 131.803  0.00  0.00    +0.000 C 
ATOM      6  OXT MET A   1     -12.287   6.439 131.794  0.00  0.00    +0.000 OA
BRANCH   5   7
ATOM      7  O   MET A   1     -10.391   6.381 132.972  0.00  0.00    +0.000 OA
ATOM      8  H   MET A   1     -10.741   6.851 133.749  0.00  0.00    +0.000 HD
ENDBRANCH   5   7
ENDBRANCH   1   5
BRANCH   1   9
ATOM      9  CB  MET A   1     -10.766   7.686 129.514  0.00  0.00    +0.000 C 
BRANCH   9  10
ATOM     10  CG  MET A   1     -11.719   7.091 128.470  0.00  0.00    +0.000 C 
BRANCH  10  12
ATOM     11  CE  MET A   1     -12.856   9.345 129.681  0.00  0.00    +0.000 C 
ATOM     12  SD  MET A   1     -13.091   8.274 128.239  0.00  0.00    +0.000 S 
ENDBRANCH  10  12
ENDBRANCH   9  10
ENDBRANCH   1   9
TORSDOF 6
ENDMDL
MODEL 8
REMARK VINA RESULT:      -3.8      2.822      3.329
REMARK  Name = D-Methionine
REMARK  7 active torsions:
REMARK  status: ('A' for Active; 'I' for Inactive)
REMARK    1  A    between atoms: CE_1  and  SD_2
REMARK    2  A    between atoms: SD_2  and  CG_3
REMARK    3  A    between atoms: CG_3  and  CB_4
REMARK    4  A    between atoms: CB_4  and  CA_5
REMARK    5  A    between atoms: CA_5  and  N_6
REMARK    6  A    between atoms: CA_5  and  C_7
REMARK    7  A    between atoms: C_7  and  O_8
REMARK                            x       y       z     vdW  Elec       q    Type
REMARK                         _______ _______ _______ _____ _____    ______ ____
ROOT
ATOM      1  CA  MET A   1     -11.084   6.072 130.287  0.00  0.00    +0.000 C 
ENDROOT
BRANCH   1   2
ATOM      2  N   MET A   1     -11.286   4.650 129.959  0.00  0.00    +0.000 NA
ATOM      3  H1  MET A   1     -10.450   4.261 129.525  0.00  0.00    +0.000 HD
ATOM      4  H2  MET A   1     -12.059   4.518 129.315  0.00  0.00    +0.000 HD
ENDBRANCH   1   2
BRANCH   1   5
ATOM      5  C   MET A   1      -9.990   6.654 129.347  0.00  0.00    +0.000 C 
ATOM      6  OXT MET A   1      -9.556   7.798 129.454  0.00  0.00    +0.000 OA
BRANCH   5   7
ATOM      7  O   MET A   1      -9.505   5.836 128.387  0.00  0.00    +0.000 OA
ATOM      8  H   MET A   1      -8.830   5.182 128.637  0.00  0.00    +0.000 HD
ENDBRANCH   5   7
ENDBRANCH   1   5
BRANCH   1   9
ATOM      9  CB  MET A   1     -12.419   6.830 130.258  0.00  0.00    +0.000 C 
BRANCH   9  10
ATOM     10  CG  MET A   1     -13.155   6.757 128.915  0.00  0.00    +0.000 C 
BRANCH  10  12
ATOM     11  CE  MET A   1     -12.843   9.429 129.688  0.00  0.00    +0.000 C 
ATOM     12  SD  MET A   1     -13.182   8.440 128.209  0.00  0.00    +0.000 S 
ENDBRANCH  10  12
ENDBRANCH   9  10
ENDBRANCH   1   9
TORSDOF 6
ENDMDL
MODEL 9
REMARK VINA RESULT:      -3.5     11.157     11.532
REMARK  Name = D-Methionine
REMARK  7 active torsions:
REMARK  status: ('A' for Active; 'I' for Inactive)
REMARK    1  A    between atoms: CE_1  and  SD_2
REMARK    2  A    between atoms: SD_2  and  CG_3
REMARK    3  A    between atoms: CG_3  and  CB_4
REMARK    4  A    between atoms: CB_4  and  CA_5
REMARK    5  A    between atoms: CA_5  and  N_6
REMARK    6  A    between atoms: CA_5  and  C_7
REMARK    7  A    between atoms: C_7  and  O_8
REMARK                            x       y       z     vdW  Elec       q    Type
REMARK                         _______ _______ _______ _____ _____    ______ ____
ROOT
ATOM      1  CA  MET A   1      -8.573  -1.837 123.562  0.00  0.00    +0.000 C 
ENDROOT
BRANCH   1   2
ATOM      2  N   MET A   1      -9.653  -1.083 122.903  0.00  0.00    +0.000 NA
ATOM      3  H1  MET A   1     -10.168  -1.682 122.260  0.00  0.00    +0.000 HD
ATOM      4  H2  MET A   1      -9.295  -0.295 122.371  0.00  0.00    +0.000 HD
ENDBRANCH   1   2
BRANCH   1   5
ATOM      5  C   MET A   1      -9.109  -3.244 123.950  0.00  0.00    +0.000 C 
ATOM      6  OXT MET A   1      -8.521  -3.992 124.727  0.00  0.00    +0.000 OA
BRANCH   5   7
ATOM      7  O   MET A   1     -10.282  -3.629 123.403  0.00  0.00    +0.000 OA
ATOM      8  H   MET A   1     -11.100  -3.467 123.905  0.00  0.00    +0.000 HD
ENDBRANCH   5   7
ENDBRANCH   1   5
BRANCH   1   9
ATOM      9  CB  MET A   1      -7.312  -1.854 122.686  0.00  0.00    +0.000 C 
BRANCH   9  10
ATOM     10  CG  MET A   1      -5.998  -1.888 123.476  0.00  0.00    +0.000 C 
BRANCH  10  12
ATOM     11  CE  MET A   1      -5.882  -2.162 126.259  0.00  0.00    +0.000 C 
ATOM     12  SD  MET A   1      -6.245  -0.912 124.999  0.00  0.00    +0.000 S 
ENDBRANCH  10  12
ENDBRANCH   9  10
ENDBRANCH   1   9
TORSDOF 6
ENDMDL
