MODEL 1
REMARK VINA RESULT:      -3.8      0.000      0.000
REMARK  Name = D-Serine
REMARK  5 active torsions:
REMARK  status: ('A' for Active; 'I' for Inactive)
REMARK    1  A    between atoms: N_1  and  CA_2
REMARK    2  A    between atoms: CA_2  and  CB_3
REMARK    3  A    between atoms: CA_2  and  C_5
REMARK    4  A    between atoms: CB_3  and  OG_4
REMARK    5  A    between atoms: C_5  and  O_6
REMARK                            x       y       z     vdW  Elec       q    Type
REMARK                         _______ _______ _______ _____ _____    ______ ____
ROOT
ATOM      1  CA  SER A   1     -10.539   7.739 127.757  0.00  0.00    +0.000 C 
ENDROOT
BRANCH   1   2
ATOM      2  N   SER A   1      -9.922   6.477 128.233  0.00  0.00    +0.000 NA
ATOM      3  H1  SER A   1      -8.952   6.669 128.495  0.00  0.00    +0.000 HD
ATOM      4  H2  SER A   1      -9.870   5.812 127.462  0.00  0.00    +0.000 HD
ENDBRANCH   1   2
BRANCH   1   5
ATOM      5  C   SER A   1     -11.230   7.502 126.399  0.00  0.00    +0.000 C 
ATOM      6  OXT SER A   1     -10.831   8.038 125.368  0.00  0.00    +0.000 OA
BRANCH   5   7
ATOM      7  O   SER A   1     -12.281   6.658 126.363  0.00  0.00    +0.000 OA
ATOM      8  H   SER A   1     -12.864   6.586 127.139  0.00  0.00    +0.000 HD
ENDBRANCH   5   7
ENDBRANCH   1   5
BRANCH   1   9
ATOM      9  CB  SER A   1     -11.460   8.332 128.833  0.00  0.00    +0.000 C 
BRANCH   9  10
ATOM     10  OG  SER A   1     -12.485   9.172 128.315  0.00  0.00    +0.000 OA
ATOM     11  H   SER A   1     -12.793   9.753 129.031  0.00  0.00    +0.000 HD
ENDBRANCH   9  10
ENDBRANCH   1   9
TORSDOF 5
ENDMDL
MODEL 2
REMARK VINA RESULT:      -3.8      1.666      1.893
REMARK  Name = D-Serine
REMARK  5 active torsions:
REMARK  status: ('A' for Active; 'I' for Inactive)
REMARK    1  A    between atoms: N_1  and  CA_2
REMARK    2  A    between atoms: CA_2  and  CB_3
REMARK    3  A    between atoms: CA_2  and  C_5
REMARK    4  A    between atoms: CB_3  and  OG_4
REMARK    5  A    between atoms: C_5  and  O_6
REMARK                            x       y       z     vdW  Elec       q    Type
REMARK                         _______ _______ _______ _____ _____    ______ ____
ROOT
ATOM      1  CA  SER A   1     -11.182   8.236 127.575  0.00  0.00    +0.000 C 
ENDROOT
BRANCH   1   2
ATOM      2  N   SER A   1     -10.069   8.327 128.550  0.00  0.00    +0.000 NA
ATOM      3  H1  SER A   1      -9.811   9.311 128.658  0.00  0.00    +0.000 HD
ATOM      4  H2  SER A   1      -9.242   7.868 128.167  0.00  0.00    +0.000 HD
ENDBRANCH   1   2
BRANCH   1   5
ATOM      5  C   SER A   1     -10.698   7.522 126.296  0.00  0.00    +0.000 C 
ATOM      6  OXT SER A   1     -10.217   6.392 126.329  0.00  0.00    +0.000 OA
BRANCH   5   7
ATOM      7  O   SER A   1     -10.842   8.165 125.120  0.00  0.00    +0.000 OA
ATOM      8  H   SER A   1     -11.622   7.984 124.569  0.00  0.00    +0.000 HD
ENDBRANCH   5   7
ENDBRANCH   1   5
BRANCH   1   9
ATOM      9  CB  SER A   1     -12.418   7.593 128.219  0.00  0.00    +0.000 C 
BRANCH   9  10
ATOM     10  OG  SER A   1     -12.248   6.220 128.550  0.00  0.00    +0.000 OA
ATOM     11  H   SER A   1     -11.426   6.129 129.061  0.00  0.00    +0.000 HD
ENDBRANCH   9  10
ENDBRANCH   1   9
TORSDOF 5
ENDMDL
MODEL 3
REMARK VINA RESULT:      -3.7      1.956      2.723
REMARK  Name = D-Serine
REMARK  5 active torsions:
REMARK  status: ('A' for Active; 'I' for Inactive)
REMARK    1  A    between atoms: N_1  and  CA_2
REMARK    2  A    between atoms: CA_2  and  CB_3
REMARK    3  A    between atoms: CA_2  and  C_5
REMARK    4  A    between atoms: CB_3  and  OG_4
REMARK    5  A    between atoms: C_5  and  O_6
REMARK                            x       y       z     vdW  Elec       q    Type
REMARK                         _______ _______ _______ _____ _____    ______ ____
ROOT
ATOM      1  CA  SER A   1     -11.990   7.048 128.464  0.00  0.00    +0.000 C 
ENDROOT
BRANCH   1   2
ATOM      2  N   SER A   1     -12.118   5.784 129.230  0.00  0.00    +0.000 NA
ATOM      3  H1  SER A   1     -11.429   5.791 129.986  0.00  0.00    +0.000 HD
ATOM      4  H2  SER A   1     -11.859   4.998 128.633  0.00  0.00    +0.000 HD
ENDBRANCH   1   2
BRANCH   1   5
ATOM      5  C   SER A   1     -10.511   7.292 128.103  0.00  0.00    +0.000 C 
ATOM      6  OXT SER A   1      -9.841   6.446 127.514  0.00  0.00    +0.000 OA
BRANCH   5   7
ATOM      7  O   SER A   1      -9.969   8.482 128.428  0.00  0.00    +0.000 OA
ATOM      8  H   SER A   1      -9.378   8.545 129.198  0.00  0.00    +0.000 HD
ENDBRANCH   5   7
ENDBRANCH   1   5
BRANCH   1   9
ATOM      9  CB  SER A   1     -12.937   7.049 127.256  0.00  0.00    +0.000 C 
BRANCH   9  10
ATOM     10  OG  SER A   1     -12.329   6.616 126.046  0.00  0.00    +0.000 OA
ATOM     11  H   SER A   1     -11.604   7.228 125.833  0.00  0.00    +0.000 HD
ENDBRANCH   9  10
ENDBRANCH   1   9
TORSDOF 5
ENDMDL
MODEL 4
REMARK VINA RESULT:      -3.6      2.378      3.191
REMARK  Name = D-Serine
REMARK  5 active torsions:
REMARK  status: ('A' for Active; 'I' for Inactive)
REMARK    1  A    between atoms: N_1  and  CA_2
REMARK    2  A    between atoms: CA_2  and  CB_3
REMARK    3  A    between atoms: CA_2  and  C_5
REMARK    4  A    between atoms: CB_3  and  OG_4
REMARK    5  A    between atoms: C_5  and  O_6
REMARK                            x       y       z     vdW  Elec       q    Type
REMARK                         _______ _______ _______ _____ _____    ______ ____
ROOT
ATOM      1  CA  SER A   1     -10.777   8.258 127.822  0.00  0.00    +0.000 C 
ENDROOT
BRANCH   1   2
ATOM      2  N   SER A   1     -11.918   9.045 128.348  0.00  0.00    +0.000 NA
ATOM      3  H1  SER A   1     -12.424   8.470 129.026  0.00  0.00    +0.000 HD
ATOM      4  H2  SER A   1     -12.582   9.228 127.595  0.00  0.00    +0.000 HD
ENDBRANCH   1   2
BRANCH   1   5
ATOM      5  C   SER A   1     -10.258   7.299 128.912  0.00  0.00    +0.000 C 
ATOM      6  OXT SER A   1      -9.354   7.622 129.681  0.00  0.00    +0.000 OA
BRANCH   5   7
ATOM      7  O   SER A   1     -10.845   6.091 129.023  0.00  0.00    +0.000 OA
ATOM      8  H   SER A   1     -11.778   6.036 129.293  0.00  0.00    +0.000 HD
ENDBRANCH   5   7
ENDBRANCH   1   5
BRANCH   1   9
ATOM      9  CB  SER A   1     -11.157   7.564 126.507  0.00  0.00    +0.000 C 
BRANCH   9  10
ATOM     10  OG  SER A   1     -10.353   6.431 126.199  0.00  0.00    +0.000 OA
ATOM     11  H   SER A   1      -9.427   6.721 126.145  0.00  0.00    +0.000 HD
ENDBRANCH   9  10
ENDBRANCH   1   9
TORSDOF 5
ENDMDL
MODEL 5
REMARK VINA RESULT:      -3.6      2.209      3.080
REMARK  Name = D-Serine
REMARK  5 active torsions:
REMARK  status: ('A' for Active; 'I' for Inactive)
REMARK    1  A    between atoms: N_1  and  CA_2
REMARK    2  A    between atoms: CA_2  and  CB_3
REMARK    3  A    between atoms: CA_2  and  C_5
REMARK    4  A    between atoms: CB_3  and  OG_4
REMARK    5  A    between atoms: C_5  and  O_6
REMARK                            x       y       z     vdW  Elec       q    Type
REMARK                         _______ _______ _______ _____ _____    ______ ____
ROOT
ATOM      1  CA  SER A   1     -11.620   7.928 128.328  0.00  0.00    +0.000 C 
ENDROOT
BRANCH   1   2
ATOM      2  N   SER A   1     -12.315   9.225 128.515  0.00  0.00    +0.000 NA
ATOM      3  H1  SER A   1     -12.945   9.374 127.723  0.00  0.00    +0.000 HD
ATOM      4  H2  SER A   1     -11.635   9.985 128.470  0.00  0.00    +0.000 HD
ENDBRANCH   1   2
BRANCH   1   5
ATOM      5  C   SER A   1     -12.586   6.769 128.643  0.00  0.00    +0.000 C 
ATOM      6  OXT SER A   1     -12.205   5.743 129.202  0.00  0.00    +0.000 OA
BRANCH   5   7
ATOM      7  O   SER A   1     -13.884   6.920 128.313  0.00  0.00    +0.000 OA
ATOM      8  H   SER A   1     -14.423   6.133 128.119  0.00  0.00    +0.000 HD
ENDBRANCH   5   7
ENDBRANCH   1   5
BRANCH   1   9
ATOM      9  CB  SER A   1     -10.983   7.850 126.933  0.00  0.00    +0.000 C 
BRANCH   9  10
ATOM     10  OG  SER A   1     -11.411   6.732 126.165  0.00  0.00    +0.000 OA
ATOM     11  H   SER A   1     -12.340   6.548 126.387  0.00  0.00    +0.000 HD
ENDBRANCH   9  10
ENDBRANCH   1   9
TORSDOF 5
ENDMDL
MODEL 6
REMARK VINA RESULT:      -3.6      8.853      9.662
REMARK  Name = D-Serine
REMARK  5 active torsions:
REMARK  status: ('A' for Active; 'I' for Inactive)
REMARK    1  A    between atoms: N_1  and  CA_2
REMARK    2  A    between atoms: CA_2  and  CB_3
REMARK    3  A    between atoms: CA_2  and  C_5
REMARK    4  A    between atoms: CB_3  and  OG_4
REMARK    5  A    between atoms: C_5  and  O_6
REMARK                            x       y       z     vdW  Elec       q    Type
REMARK                         _______ _______ _______ _____ _____    ______ ____
ROOT
ATOM      1  CA  SER A   1      -4.855   5.040 120.285  0.00  0.00    +0.000 C 
ENDROOT
BRANCH   1   2
ATOM      2  N   SER A   1      -4.293   6.207 121.006  0.00  0.00    +0.000 NA
ATOM      3  H1  SER A   1      -4.997   6.950 121.020  0.00  0.00    +0.000 HD
ATOM      4  H2  SER A   1      -3.506   6.587 120.479  0.00  0.00    +0.000 HD
ENDBRANCH   1   2
BRANCH   1   5
ATOM      5  C   SER A   1      -5.532   4.084 121.287  0.00  0.00    +0.000 C 
ATOM      6  OXT SER A   1      -5.736   2.902 121.017  0.00  0.00    +0.000 OA
BRANCH   5   7
ATOM      7  O   SER A   1      -5.874   4.574 122.496  0.00  0.00    +0.000 OA
ATOM      8  H   SER A   1      -6.764   4.401 122.848  0.00  0.00    +0.000 HD
ENDBRANCH   5   7
ENDBRANCH   1   5
BRANCH   1   9
ATOM      9  CB  SER A   1      -5.771   5.498 119.141  0.00  0.00    +0.000 C 
BRANCH   9  10
ATOM     10  OG  SER A   1      -6.938   4.701 118.982  0.00  0.00    +0.000 OA
ATOM     11  H   SER A   1      -6.663   3.808 118.713  0.00  0.00    +0.000 HD
ENDBRANCH   9  10
ENDBRANCH   1   9
TORSDOF 5
ENDMDL
MODEL 7
REMARK VINA RESULT:      -3.5      9.376      9.849
REMARK  Name = D-Serine
REMARK  5 active torsions:
REMARK  status: ('A' for Active; 'I' for Inactive)
REMARK    1  A    between atoms: N_1  and  CA_2
REMARK    2  A    between atoms: CA_2  and  CB_3
REMARK    3  A    between atoms: CA_2  and  C_5
REMARK    4  A    between atoms: CB_3  and  OG_4
REMARK    5  A    between atoms: C_5  and  O_6
REMARK                            x       y       z     vdW  Elec       q    Type
REMARK                         _______ _______ _______ _____ _____    ______ ____
ROOT
ATOM      1  CA  SER A   1      -5.853   4.853 119.166  0.00  0.00    +0.000 C 
ENDROOT
BRANCH   1   2
ATOM      2  N   SER A   1      -5.822   6.046 118.285  0.00  0.00    +0.000 NA
ATOM      3  H1  SER A   1      -5.708   6.879 118.870  0.00  0.00    +0.000 HD
ATOM      4  H2  SER A   1      -6.728   6.155 117.829  0.00  0.00    +0.000 HD
ENDBRANCH   1   2
BRANCH   1   5
ATOM      5  C   SER A   1      -5.029   5.126 120.441  0.00  0.00    +0.000 C 
ATOM      6  OXT SER A   1      -4.535   6.228 120.669  0.00  0.00    +0.000 OA
BRANCH   5   7
ATOM      7  O   SER A   1      -4.883   4.120 121.327  0.00  0.00    +0.000 OA
ATOM      8  H   SER A   1      -5.203   3.230 121.097  0.00  0.00    +0.000 HD
ENDBRANCH   5   7
ENDBRANCH   1   5
BRANCH   1   9
ATOM      9  CB  SER A   1      -7.299   4.416 119.438  0.00  0.00    +0.000 C 
BRANCH   9  10
ATOM     10  OG  SER A   1      -7.552   4.072 120.795  0.00  0.00    +0.000 OA
ATOM     11  H   SER A   1      -8.499   3.869 120.886  0.00  0.00    +0.000 HD
ENDBRANCH   9  10
ENDBRANCH   1   9
TORSDOF 5
ENDMDL
MODEL 8
REMARK VINA RESULT:      -3.5      9.205      9.488
REMARK  Name = D-Serine
REMARK  5 active torsions:
REMARK  status: ('A' for Active; 'I' for Inactive)
REMARK    1  A    between atoms: N_1  and  CA_2
REMARK    2  A    between atoms: CA_2  and  CB_3
REMARK    3  A    between atoms: CA_2  and  C_5
REMARK    4  A    between atoms: CB_3  and  OG_4
REMARK    5  A    between atoms: C_5  and  O_6
REMARK                            x       y       z     vdW  Elec       q    Type
REMARK                         _______ _______ _______ _____ _____    ______ ____
ROOT
ATOM      1  CA  SER A   1      -5.225   3.996 120.793  0.00  0.00    +0.000 C 
ENDROOT
BRANCH   1   2
ATOM      2  N   SER A   1      -6.038   3.051 121.597  0.00  0.00    +0.000 NA
ATOM      3  H1  SER A   1      -6.434   2.348 120.968  0.00  0.00    +0.000 HD
ATOM      4  H2  SER A   1      -6.838   3.544 121.994  0.00  0.00    +0.000 HD
ENDBRANCH   1   2
BRANCH   1   5
ATOM      5  C   SER A   1      -6.116   4.684 119.739  0.00  0.00    +0.000 C 
ATOM      6  OXT SER A   1      -5.667   5.521 118.959  0.00  0.00    +0.000 OA
BRANCH   5   7
ATOM      7  O   SER A   1      -7.412   4.319 119.671  0.00  0.00    +0.000 OA
ATOM      8  H   SER A   1      -7.639   3.388 119.505  0.00  0.00    +0.000 HD
ENDBRANCH   5   7
ENDBRANCH   1   5
BRANCH   1   9
ATOM      9  CB  SER A   1      -4.468   4.973 121.705  0.00  0.00    +0.000 C 
BRANCH   9  10
ATOM     10  OG  SER A   1      -4.128   6.203 121.076  0.00  0.00    +0.000 OA
ATOM     11  H   SER A   1      -3.169   6.335 121.165  0.00  0.00    +0.000 HD
ENDBRANCH   9  10
ENDBRANCH   1   9
TORSDOF 5
ENDMDL
MODEL 9
REMARK VINA RESULT:      -3.5      2.852      3.182
REMARK  Name = D-Serine
REMARK  5 active torsions:
REMARK  status: ('A' for Active; 'I' for Inactive)
REMARK    1  A    between atoms: N_1  and  CA_2
REMARK    2  A    between atoms: CA_2  and  CB_3
REMARK    3  A    between atoms: CA_2  and  C_5
REMARK    4  A    between atoms: CB_3  and  OG_4
REMARK    5  A    between atoms: C_5  and  O_6
REMARK                            x       y       z     vdW  Elec       q    Type
REMARK                         _______ _______ _______ _____ _____    ______ ____
ROOT
ATOM      1  CA  SER A   1     -12.215   7.527 130.293  0.00  0.00    +0.000 C 
ENDROOT
BRANCH   1   2
ATOM      2  N   SER A   1     -13.070   7.192 131.458  0.00  0.00    +0.000 NA
ATOM      3  H1  SER A   1     -13.786   7.917 131.554  0.00  0.00    +0.000 HD
ATOM      4  H2  SER A   1     -12.515   7.242 132.312  0.00  0.00    +0.000 HD
ENDBRANCH   1   2
BRANCH   1   5
ATOM      5  C   SER A   1     -12.188   6.341 129.308  0.00  0.00    +0.000 C 
ATOM      6  OXT SER A   1     -12.581   6.453 128.149  0.00  0.00    +0.000 OA
BRANCH   5   7
ATOM      7  O   SER A   1     -11.688   5.168 129.745  0.00  0.00    +0.000 OA
ATOM      8  H   SER A   1     -11.161   4.617 129.141  0.00  0.00    +0.000 HD
ENDBRANCH   5   7
ENDBRANCH   1   5
BRANCH   1   9
ATOM      9  CB  SER A   1     -12.654   8.855 129.661  0.00  0.00    +0.000 C 
BRANCH   9  10
ATOM     10  OG  SER A   1     -11.936   9.199 128.482  0.00  0.00    +0.000 OA
ATOM     11  H   SER A   1     -11.855   8.402 127.931  0.00  0.00    +0.000 HD
ENDBRANCH   9  10
ENDBRANCH   1   9
TORSDOF 5
ENDMDL
