MODEL 1
REMARK VINA RESULT:      -9.0      0.000      0.000
REMARK  Name = Dabigatran etexilate
REMARK  20 active torsions:
REMARK  status: ('A' for Active; 'I' for Inactive)
REMARK    1  A    between atoms: C_1  and  C_2
REMARK    2  A    between atoms: C_2  and  C_3
REMARK    3  A    between atoms: C_3  and  C_4
REMARK    4  A    between atoms: C_4  and  C_5
REMARK    5  A    between atoms: C_5  and  C_6
REMARK    6  A    between atoms: C_6  and  O_7
REMARK    7  A    between atoms: O_7  and  C_8
REMARK    8  A    between atoms: C_8  and  N_10
REMARK    9  A    between atoms: C_11  and  C_13
REMARK   10  A    between atoms: C_16  and  N_17
REMARK   11  A    between atoms: N_17  and  C_18
REMARK   12  A    between atoms: C_18  and  C_19
REMARK   13  A    between atoms: C_25  and  C_27
REMARK   14  A    between atoms: N_29  and  C_30
REMARK   15  A    between atoms: C_30  and  C_31
REMARK   16  A    between atoms: C_31  and  C_32
REMARK   17  A    between atoms: C_32  and  O_34
REMARK   18  A    between atoms: O_34  and  C_35
REMARK   19  A    between atoms: C_35  and  C_36
REMARK   20  A    between atoms: N_43  and  C_44
REMARK                            x       y       z     vdW  Elec       q    Type
REMARK                         _______ _______ _______ _____ _____    ______ ____
ROOT
ATOM      1  C   UNL     1      -3.575   4.249 129.675  0.00  0.00    +0.000 A 
ATOM      2  N   UNL     1      -4.228   3.461 130.550  0.00  0.00    +0.000 NA
ATOM      3  C   UNL     1      -5.020   4.242 131.396  0.00  0.00    +0.000 A 
ATOM      4  C   UNL     1      -4.432   5.513 131.450  0.00  0.00    +0.000 A 
ATOM      5  C   UNL     1      -5.173   6.113 132.650  0.00  0.00    +0.000 A 
ATOM      6  C   UNL     1      -6.596   6.334 132.654  0.00  0.00    +0.000 A 
ATOM      7  C   UNL     1      -7.257   5.671 131.675  0.00  0.00    +0.000 A 
ATOM      8  C   UNL     1      -6.479   4.519 131.323  0.00  0.00    +0.000 A 
ATOM      9  N   UNL     1      -4.027   5.552 129.986  0.00  0.00    +0.000 N 
ATOM     10  C   UNL     1      -4.107   6.306 128.728  0.00  0.00    +0.000 C 
ENDROOT
BRANCH   7  11
ATOM     11  C   UNL     1      -8.340   6.544 130.912  0.00  0.00    +0.000 C 
ATOM     12  O   UNL     1      -7.848   7.562 130.391  0.00  0.00    +0.000 OA
ATOM     13  N   UNL     1      -9.753   6.273 130.729  0.00  0.00    +0.000 N 
ATOM     14  C   UNL     1     -10.580   7.218 130.023  0.00  0.00    +0.000 A 
ATOM     15  N   UNL     1     -11.831   7.388 130.532  0.00  0.00    +0.000 NA
ATOM     16  C   UNL     1     -12.679   8.227 129.915  0.00  0.00    +0.000 A 
ATOM     17  C   UNL     1     -12.363   8.886 128.749  0.00  0.00    +0.000 A 
ATOM     18  C   UNL     1     -11.112   8.653 128.185  0.00  0.00    +0.000 A 
ATOM     19  C   UNL     1     -10.204   7.809 128.828  0.00  0.00    +0.000 A 
BRANCH  13  20
ATOM     20  C   UNL     1     -10.681   5.143 131.151  0.00  0.00    +0.000 C 
BRANCH  20  21
ATOM     21  C   UNL     1     -10.413   3.941 130.399  0.00  0.00    +0.000 C 
BRANCH  21  22
ATOM     22  C   UNL     1      -9.713   2.649 130.717  0.00  0.00    +0.000 C 
ATOM     23  O   UNL     1      -8.908   2.169 129.947  0.00  0.00    +0.000 OA
BRANCH  22  24
ATOM     24  O   UNL     1      -9.945   2.251 132.047  0.00  0.00    +0.000 OA
BRANCH  24  25
ATOM     25  C   UNL     1      -8.914   2.516 133.064  0.00  0.00    +0.000 C 
ATOM     26  C   UNL     1      -8.960   3.817 134.142  0.00  0.00    +0.000 C 
ENDBRANCH  24  25
ENDBRANCH  22  24
ENDBRANCH  21  22
ENDBRANCH  20  21
ENDBRANCH  13  20
ENDBRANCH   7  11
BRANCH   1  27
ATOM     27  C   UNL     1      -2.655   3.791 128.299  0.00  0.00    +0.000 C 
BRANCH  27  28
ATOM     28  N   UNL     1      -2.819   2.653 127.355  0.00  0.00    +0.000 N 
ATOM     29  H   UNL     1      -2.010   2.466 126.764  0.00  0.00    +0.000 HD
BRANCH  28  33
ATOM     30  C   UNL     1      -5.930   3.035 124.467  0.00  0.00    +0.000 A 
ATOM     31  C   UNL     1      -5.072   4.096 124.754  0.00  0.00    +0.000 A 
ATOM     32  C   UNL     1      -4.058   3.910 125.705  0.00  0.00    +0.000 A 
ATOM     33  C   UNL     1      -3.916   2.708 126.422  0.00  0.00    +0.000 A 
ATOM     34  C   UNL     1      -4.841   1.686 126.141  0.00  0.00    +0.000 A 
ATOM     35  C   UNL     1      -5.774   1.814 125.114  0.00  0.00    +0.000 A 
BRANCH  30  37
ATOM     36  N   UNL     1      -8.314   3.284 123.837  0.00  0.00    +0.000 NA
ATOM     37  C   UNL     1      -7.053   3.150 123.493  0.00  0.00    +0.000 C 
ATOM     38  N   UNL     1      -6.677   3.062 122.173  0.00  0.00    +0.000 N 
ATOM     39  H   UNL     1      -7.376   2.963 121.448  0.00  0.00    +0.000 HD
ATOM     40  H   UNL     1      -5.720   2.840 121.915  0.00  0.00    +0.000 HD
BRANCH  36  41
ATOM     41  C   UNL     1      -8.695   3.482 125.141  0.00  0.00    +0.000 C 
ATOM     42  O   UNL     1      -8.750   4.590 125.754  0.00  0.00    +0.000 OA
BRANCH  41  43
ATOM     43  O   UNL     1      -9.058   2.346 125.794  0.00  0.00    +0.000 OA
BRANCH  43  44
ATOM     44  C   UNL     1      -9.645   1.363 124.911  0.00  0.00    +0.000 C 
BRANCH  44  45
ATOM     45  C   UNL     1      -9.320  -0.044 125.386  0.00  0.00    +0.000 C 
BRANCH  45  46
ATOM     46  C   UNL     1      -8.492  -0.035 126.672  0.00  0.00    +0.000 C 
BRANCH  46  47
ATOM     47  C   UNL     1      -7.784  -1.374 126.861  0.00  0.00    +0.000 C 
BRANCH  47  49
ATOM     48  C   UNL     1      -8.678  -3.549 127.717  0.00  0.00    +0.000 C 
ATOM     49  C   UNL     1      -8.722  -2.543 126.579  0.00  0.00    +0.000 C 
ENDBRANCH  47  49
ENDBRANCH  46  47
ENDBRANCH  45  46
ENDBRANCH  44  45
ENDBRANCH  43  44
ENDBRANCH  41  43
ENDBRANCH  36  41
ENDBRANCH  30  37
ENDBRANCH  28  33
ENDBRANCH  27  28
ENDBRANCH   1  27
TORSDOF 17
ENDMDL
MODEL 2
REMARK VINA RESULT:      -9.0      2.448      3.956
REMARK  Name = Dabigatran etexilate
REMARK  20 active torsions:
REMARK  status: ('A' for Active; 'I' for Inactive)
REMARK    1  A    between atoms: C_1  and  C_2
REMARK    2  A    between atoms: C_2  and  C_3
REMARK    3  A    between atoms: C_3  and  C_4
REMARK    4  A    between atoms: C_4  and  C_5
REMARK    5  A    between atoms: C_5  and  C_6
REMARK    6  A    between atoms: C_6  and  O_7
REMARK    7  A    between atoms: O_7  and  C_8
REMARK    8  A    between atoms: C_8  and  N_10
REMARK    9  A    between atoms: C_11  and  C_13
REMARK   10  A    between atoms: C_16  and  N_17
REMARK   11  A    between atoms: N_17  and  C_18
REMARK   12  A    between atoms: C_18  and  C_19
REMARK   13  A    between atoms: C_25  and  C_27
REMARK   14  A    between atoms: N_29  and  C_30
REMARK   15  A    between atoms: C_30  and  C_31
REMARK   16  A    between atoms: C_31  and  C_32
REMARK   17  A    between atoms: C_32  and  O_34
REMARK   18  A    between atoms: O_34  and  C_35
REMARK   19  A    between atoms: C_35  and  C_36
REMARK   20  A    between atoms: N_43  and  C_44
REMARK                            x       y       z     vdW  Elec       q    Type
REMARK                         _______ _______ _______ _____ _____    ______ ____
ROOT
ATOM      1  C   UNL     1      -6.069   0.946 130.483  0.00  0.00    +0.000 A 
ATOM      2  N   UNL     1      -7.096   0.260 131.020  0.00  0.00    +0.000 NA
ATOM      3  C   UNL     1      -7.919   1.124 131.747  0.00  0.00    +0.000 A 
ATOM      4  C   UNL     1      -7.121   2.201 132.157  0.00  0.00    +0.000 A 
ATOM      5  C   UNL     1      -8.036   2.843 133.206  0.00  0.00    +0.000 A 
ATOM      6  C   UNL     1      -9.320   3.404 132.878  0.00  0.00    +0.000 A 
ATOM      7  C   UNL     1      -9.793   3.022 131.668  0.00  0.00    +0.000 A 
ATOM      8  C   UNL     1      -9.203   1.755 131.346  0.00  0.00    +0.000 A 
ATOM      9  N   UNL     1      -6.312   2.283 130.874  0.00  0.00    +0.000 N 
ATOM     10  C   UNL     1      -5.866   3.153 129.778  0.00  0.00    +0.000 C 
ENDROOT
BRANCH   7  11
ATOM     11  C   UNL     1     -10.403   4.204 130.803  0.00  0.00    +0.000 C 
ATOM     12  O   UNL     1     -11.358   3.833 130.097  0.00  0.00    +0.000 OA
ATOM     13  N   UNL     1     -10.016   5.602 130.782  0.00  0.00    +0.000 N 
ATOM     14  C   UNL     1     -10.683   6.519 129.893  0.00  0.00    +0.000 A 
ATOM     15  N   UNL     1      -9.879   7.454 129.316  0.00  0.00    +0.000 NA
ATOM     16  C   UNL     1     -10.425   8.369 128.497  0.00  0.00    +0.000 A 
ATOM     17  C   UNL     1     -11.778   8.444 128.258  0.00  0.00    +0.000 A 
ATOM     18  C   UNL     1     -12.609   7.538 128.909  0.00  0.00    +0.000 A 
ATOM     19  C   UNL     1     -12.058   6.559 129.738  0.00  0.00    +0.000 A 
BRANCH  13  20
ATOM     20  C   UNL     1      -8.970   6.425 131.520  0.00  0.00    +0.000 C 
BRANCH  20  21
ATOM     21  C   UNL     1      -7.636   5.981 131.198  0.00  0.00    +0.000 C 
BRANCH  21  22
ATOM     22  C   UNL     1      -6.310   6.680 131.067  0.00  0.00    +0.000 C 
ATOM     23  O   UNL     1      -6.198   7.684 130.396  0.00  0.00    +0.000 OA
BRANCH  22  24
ATOM     24  O   UNL     1      -5.361   6.158 131.966  0.00  0.00    +0.000 OA
BRANCH  24  25
ATOM     25  C   UNL     1      -5.782   5.827 133.338  0.00  0.00    +0.000 C 
ATOM     26  C   UNL     1      -4.843   6.120 134.713  0.00  0.00    +0.000 C 
ENDBRANCH  24  25
ENDBRANCH  22  24
ENDBRANCH  21  22
ENDBRANCH  20  21
ENDBRANCH  13  20
ENDBRANCH   7  11
BRANCH   1  27
ATOM     27  C   UNL     1      -4.907   0.415 129.336  0.00  0.00    +0.000 C 
BRANCH  27  28
ATOM     28  N   UNL     1      -5.057  -0.432 128.121  0.00  0.00    +0.000 N 
ATOM     29  H   UNL     1      -4.234  -0.470 127.521  0.00  0.00    +0.000 HD
BRANCH  28  33
ATOM     30  C   UNL     1      -8.058   0.409 125.214  0.00  0.00    +0.000 A 
ATOM     31  C   UNL     1      -6.718   0.275 124.855  0.00  0.00    +0.000 A 
ATOM     32  C   UNL     1      -5.775  -0.015 125.852  0.00  0.00    +0.000 A 
ATOM     33  C   UNL     1      -6.127  -0.113 127.210  0.00  0.00    +0.000 A 
ATOM     34  C   UNL     1      -7.482   0.089 127.533  0.00  0.00    +0.000 A 
ATOM     35  C   UNL     1      -8.446   0.254 126.541  0.00  0.00    +0.000 A 
BRANCH  30  37
ATOM     36  N   UNL     1      -9.518  -0.062 123.268  0.00  0.00    +0.000 NA
ATOM     37  C   UNL     1      -9.125   0.744 124.229  0.00  0.00    +0.000 C 
ATOM     38  N   UNL     1      -9.658   2.004 124.368  0.00  0.00    +0.000 N 
ATOM     39  H   UNL     1     -10.265   2.385 123.653  0.00  0.00    +0.000 HD
ATOM     40  H   UNL     1      -9.271   2.665 125.034  0.00  0.00    +0.000 HD
BRANCH  36  41
ATOM     41  C   UNL     1      -9.076  -1.358 123.179  0.00  0.00    +0.000 C 
ATOM     42  O   UNL     1      -8.150  -1.793 122.432  0.00  0.00    +0.000 OA
BRANCH  41  43
ATOM     43  O   UNL     1      -9.718  -2.223 124.010  0.00  0.00    +0.000 OA
BRANCH  43  44
ATOM     44  C   UNL     1      -9.049  -3.502 124.101  0.00  0.00    +0.000 C 
BRANCH  44  45
ATOM     45  C   UNL     1      -8.271  -3.605 125.403  0.00  0.00    +0.000 C 
BRANCH  45  46
ATOM     46  C   UNL     1      -9.095  -3.124 126.599  0.00  0.00    +0.000 C 
BRANCH  46  47
ATOM     47  C   UNL     1      -8.882  -4.044 127.798  0.00  0.00    +0.000 C 
BRANCH  47  49
ATOM     48  C   UNL     1      -7.013  -3.239 129.256  0.00  0.00    +0.000 C 
ATOM     49  C   UNL     1      -8.518  -3.252 129.050  0.00  0.00    +0.000 C 
ENDBRANCH  47  49
ENDBRANCH  46  47
ENDBRANCH  45  46
ENDBRANCH  44  45
ENDBRANCH  43  44
ENDBRANCH  41  43
ENDBRANCH  36  41
ENDBRANCH  30  37
ENDBRANCH  28  33
ENDBRANCH  27  28
ENDBRANCH   1  27
TORSDOF 17
ENDMDL
MODEL 3
REMARK VINA RESULT:      -8.8      2.347      3.943
REMARK  Name = Dabigatran etexilate
REMARK  20 active torsions:
REMARK  status: ('A' for Active; 'I' for Inactive)
REMARK    1  A    between atoms: C_1  and  C_2
REMARK    2  A    between atoms: C_2  and  C_3
REMARK    3  A    between atoms: C_3  and  C_4
REMARK    4  A    between atoms: C_4  and  C_5
REMARK    5  A    between atoms: C_5  and  C_6
REMARK    6  A    between atoms: C_6  and  O_7
REMARK    7  A    between atoms: O_7  and  C_8
REMARK    8  A    between atoms: C_8  and  N_10
REMARK    9  A    between atoms: C_11  and  C_13
REMARK   10  A    between atoms: C_16  and  N_17
REMARK   11  A    between atoms: N_17  and  C_18
REMARK   12  A    between atoms: C_18  and  C_19
REMARK   13  A    between atoms: C_25  and  C_27
REMARK   14  A    between atoms: N_29  and  C_30
REMARK   15  A    between atoms: C_30  and  C_31
REMARK   16  A    between atoms: C_31  and  C_32
REMARK   17  A    between atoms: C_32  and  O_34
REMARK   18  A    between atoms: O_34  and  C_35
REMARK   19  A    between atoms: C_35  and  C_36
REMARK   20  A    between atoms: N_43  and  C_44
REMARK                            x       y       z     vdW  Elec       q    Type
REMARK                         _______ _______ _______ _____ _____    ______ ____
ROOT
ATOM      1  C   UNL     1      -6.105   0.969 130.686  0.00  0.00    +0.000 A 
ATOM      2  N   UNL     1      -7.132   0.338 131.287  0.00  0.00    +0.000 NA
ATOM      3  C   UNL     1      -7.933   1.264 131.960  0.00  0.00    +0.000 A 
ATOM      4  C   UNL     1      -7.116   2.358 132.277  0.00  0.00    +0.000 A 
ATOM      5  C   UNL     1      -8.007   3.088 133.289  0.00  0.00    +0.000 A 
ATOM      6  C   UNL     1      -9.290   3.639 132.939  0.00  0.00    +0.000 A 
ATOM      7  C   UNL     1      -9.786   3.175 131.768  0.00  0.00    +0.000 A 
ATOM      8  C   UNL     1      -9.216   1.880 131.533  0.00  0.00    +0.000 A 
ATOM      9  N   UNL     1      -6.326   2.334 130.980  0.00  0.00    +0.000 N 
ATOM     10  C   UNL     1      -5.888   3.115 129.816  0.00  0.00    +0.000 C 
ENDROOT
BRANCH   7  11
ATOM     11  C   UNL     1     -10.396   4.297 130.826  0.00  0.00    +0.000 C 
ATOM     12  O   UNL     1     -11.344   3.877 130.138  0.00  0.00    +0.000 OA
ATOM     13  N   UNL     1     -10.015   5.693 130.720  0.00  0.00    +0.000 N 
ATOM     14  C   UNL     1     -10.680   6.548 129.771  0.00  0.00    +0.000 A 
ATOM     15  N   UNL     1      -9.877   7.450 129.142  0.00  0.00    +0.000 NA
ATOM     16  C   UNL     1     -10.422   8.308 128.264  0.00  0.00    +0.000 A 
ATOM     17  C   UNL     1     -11.773   8.362 128.011  0.00  0.00    +0.000 A 
ATOM     18  C   UNL     1     -12.605   7.494 128.712  0.00  0.00    +0.000 A 
ATOM     19  C   UNL     1     -12.054   6.571 129.604  0.00  0.00    +0.000 A 
BRANCH  13  20
ATOM     20  C   UNL     1      -8.978   6.566 131.413  0.00  0.00    +0.000 C 
BRANCH  20  21
ATOM     21  C   UNL     1      -7.641   6.212 131.002  0.00  0.00    +0.000 C 
BRANCH  21  22
ATOM     22  C   UNL     1      -6.274   6.736 131.345  0.00  0.00    +0.000 C 
ATOM     23  O   UNL     1      -5.613   6.226 132.224  0.00  0.00    +0.000 OA
BRANCH  22  24
ATOM     24  O   UNL     1      -5.831   7.678 130.399  0.00  0.00    +0.000 OA
BRANCH  24  25
ATOM     25  C   UNL     1      -4.390   7.780 130.110  0.00  0.00    +0.000 C 
ATOM     26  C   UNL     1      -3.506   6.602 129.280  0.00  0.00    +0.000 C 
ENDBRANCH  24  25
ENDBRANCH  22  24
ENDBRANCH  21  22
ENDBRANCH  20  21
ENDBRANCH  13  20
ENDBRANCH   7  11
BRANCH   1  27
ATOM     27  C   UNL     1      -4.968   0.339 129.564  0.00  0.00    +0.000 C 
BRANCH  27  28
ATOM     28  N   UNL     1      -5.161  -0.257 128.215  0.00  0.00    +0.000 N 
ATOM     29  H   UNL     1      -4.303  -0.552 127.749  0.00  0.00    +0.000 HD
BRANCH  28  33
ATOM     30  C   UNL     1      -7.354   2.143 125.459  0.00  0.00    +0.000 A 
ATOM     31  C   UNL     1      -7.984   1.507 126.527  0.00  0.00    +0.000 A 
ATOM     32  C   UNL     1      -7.210   0.740 127.411  0.00  0.00    +0.000 A 
ATOM     33  C   UNL     1      -5.831   0.541 127.219  0.00  0.00    +0.000 A 
ATOM     34  C   UNL     1      -5.249   1.154 126.094  0.00  0.00    +0.000 A 
ATOM     35  C   UNL     1      -5.980   2.017 125.280  0.00  0.00    +0.000 A 
BRANCH  30  37
ATOM     36  N   UNL     1      -8.990   2.461 123.624  0.00  0.00    +0.000 NA
ATOM     37  C   UNL     1      -8.098   2.955 124.454  0.00  0.00    +0.000 C 
ATOM     38  N   UNL     1      -7.752   4.285 124.422  0.00  0.00    +0.000 N 
ATOM     39  H   UNL     1      -8.076   4.881 123.672  0.00  0.00    +0.000 HD
ATOM     40  H   UNL     1      -6.981   4.639 124.982  0.00  0.00    +0.000 HD
BRANCH  36  41
ATOM     41  C   UNL     1      -9.426   1.162 123.713  0.00  0.00    +0.000 C 
ATOM     42  O   UNL     1     -10.525   0.765 124.201  0.00  0.00    +0.000 OA
BRANCH  41  43
ATOM     43  O   UNL     1      -8.561   0.248 123.197  0.00  0.00    +0.000 OA
BRANCH  43  44
ATOM     44  C   UNL     1      -8.881  -1.104 123.598  0.00  0.00    +0.000 C 
BRANCH  44  45
ATOM     45  C   UNL     1      -7.740  -1.706 124.402  0.00  0.00    +0.000 C 
BRANCH  45  46
ATOM     46  C   UNL     1      -6.395  -1.549 123.689  0.00  0.00    +0.000 C 
BRANCH  46  47
ATOM     47  C   UNL     1      -5.326  -2.396 124.375  0.00  0.00    +0.000 C 
BRANCH  47  49
ATOM     48  C   UNL     1      -4.516  -4.673 123.725  0.00  0.00    +0.000 C 
ATOM     49  C   UNL     1      -4.518  -3.198 123.361  0.00  0.00    +0.000 C 
ENDBRANCH  47  49
ENDBRANCH  46  47
ENDBRANCH  45  46
ENDBRANCH  44  45
ENDBRANCH  43  44
ENDBRANCH  41  43
ENDBRANCH  36  41
ENDBRANCH  30  37
ENDBRANCH  28  33
ENDBRANCH  27  28
ENDBRANCH   1  27
TORSDOF 17
ENDMDL
MODEL 4
REMARK VINA RESULT:      -8.7      2.540      4.133
REMARK  Name = Dabigatran etexilate
REMARK  20 active torsions:
REMARK  status: ('A' for Active; 'I' for Inactive)
REMARK    1  A    between atoms: C_1  and  C_2
REMARK    2  A    between atoms: C_2  and  C_3
REMARK    3  A    between atoms: C_3  and  C_4
REMARK    4  A    between atoms: C_4  and  C_5
REMARK    5  A    between atoms: C_5  and  C_6
REMARK    6  A    between atoms: C_6  and  O_7
REMARK    7  A    between atoms: O_7  and  C_8
REMARK    8  A    between atoms: C_8  and  N_10
REMARK    9  A    between atoms: C_11  and  C_13
REMARK   10  A    between atoms: C_16  and  N_17
REMARK   11  A    between atoms: N_17  and  C_18
REMARK   12  A    between atoms: C_18  and  C_19
REMARK   13  A    between atoms: C_25  and  C_27
REMARK   14  A    between atoms: N_29  and  C_30
REMARK   15  A    between atoms: C_30  and  C_31
REMARK   16  A    between atoms: C_31  and  C_32
REMARK   17  A    between atoms: C_32  and  O_34
REMARK   18  A    between atoms: O_34  and  C_35
REMARK   19  A    between atoms: C_35  and  C_36
REMARK   20  A    between atoms: N_43  and  C_44
REMARK                            x       y       z     vdW  Elec       q    Type
REMARK                         _______ _______ _______ _____ _____    ______ ____
ROOT
ATOM      1  C   UNL     1      -5.214   1.377 131.638  0.00  0.00    +0.000 A 
ATOM      2  N   UNL     1      -6.103   0.754 132.434  0.00  0.00    +0.000 NA
ATOM      3  C   UNL     1      -6.793   1.693 133.205  0.00  0.00    +0.000 A 
ATOM      4  C   UNL     1      -5.958   2.811 133.333  0.00  0.00    +0.000 A 
ATOM      5  C   UNL     1      -6.672   3.565 134.460  0.00  0.00    +0.000 A 
ATOM      6  C   UNL     1      -8.009   4.082 134.325  0.00  0.00    +0.000 A 
ATOM      7  C   UNL     1      -8.694   3.564 133.277  0.00  0.00    +0.000 A 
ATOM      8  C   UNL     1      -8.145   2.271 132.991  0.00  0.00    +0.000 A 
ATOM      9  N   UNL     1      -5.410   2.749 131.917  0.00  0.00    +0.000 N 
ATOM     10  C   UNL     1      -5.203   3.491 130.667  0.00  0.00    +0.000 C 
ENDROOT
BRANCH   7  11
ATOM     11  C   UNL     1      -9.486   4.639 132.420  0.00  0.00    +0.000 C 
ATOM     12  O   UNL     1      -9.566   5.740 132.994  0.00  0.00    +0.000 OA
ATOM     13  N   UNL     1     -10.056   4.495 131.094  0.00  0.00    +0.000 N 
ATOM     14  C   UNL     1     -10.772   5.592 130.497  0.00  0.00    +0.000 A 
ATOM     15  N   UNL     1     -11.876   5.244 129.780  0.00  0.00    +0.000 NA
ATOM     16  C   UNL     1     -12.584   6.204 129.163  0.00  0.00    +0.000 A 
ATOM     17  C   UNL     1     -12.212   7.529 129.170  0.00  0.00    +0.000 A 
ATOM     18  C   UNL     1     -11.041   7.876 129.836  0.00  0.00    +0.000 A 
ATOM     19  C   UNL     1     -10.308   6.897 130.512  0.00  0.00    +0.000 A 
BRANCH  13  20
ATOM     20  C   UNL     1     -10.112   3.361 130.080  0.00  0.00    +0.000 C 
BRANCH  20  21
ATOM     21  C   UNL     1      -8.868   3.244 129.360  0.00  0.00    +0.000 C 
BRANCH  21  22
ATOM     22  C   UNL     1      -8.137   4.136 128.393  0.00  0.00    +0.000 C 
ATOM     23  O   UNL     1      -7.613   5.163 128.765  0.00  0.00    +0.000 OA
BRANCH  22  24
ATOM     24  O   UNL     1      -7.971   3.512 127.142  0.00  0.00    +0.000 OA
BRANCH  24  25
ATOM     25  C   UNL     1      -6.761   3.801 126.353  0.00  0.00    +0.000 C 
ATOM     26  C   UNL     1      -5.220   3.225 126.740  0.00  0.00    +0.000 C 
ENDBRANCH  24  25
ENDBRANCH  22  24
ENDBRANCH  21  22
ENDBRANCH  20  21
ENDBRANCH  13  20
ENDBRANCH   7  11
BRANCH   1  27
ATOM     27  C   UNL     1      -4.279   0.722 130.355  0.00  0.00    +0.000 C 
BRANCH  27  28
ATOM     28  N   UNL     1      -4.571  -0.388 129.408  0.00  0.00    +0.000 N 
ATOM     29  H   UNL     1      -3.794  -0.649 128.801  0.00  0.00    +0.000 HD
BRANCH  28  33
ATOM     30  C   UNL     1      -7.686  -0.042 126.520  0.00  0.00    +0.000 A 
ATOM     31  C   UNL     1      -6.375  -0.332 126.142  0.00  0.00    +0.000 A 
ATOM     32  C   UNL     1      -5.393  -0.447 127.137  0.00  0.00    +0.000 A 
ATOM     33  C   UNL     1      -5.673  -0.218 128.496  0.00  0.00    +0.000 A 
ATOM     34  C   UNL     1      -6.997   0.130 128.823  0.00  0.00    +0.000 A 
ATOM     35  C   UNL     1      -8.006   0.126 127.862  0.00  0.00    +0.000 A 
BRANCH  30  37
ATOM     36  N   UNL     1      -9.274  -0.850 124.797  0.00  0.00    +0.000 NA
ATOM     37  C   UNL     1      -8.788   0.126 125.531  0.00  0.00    +0.000 C 
ATOM     38  N   UNL     1      -9.251   1.415 125.403  0.00  0.00    +0.000 N 
ATOM     39  H   UNL     1      -9.877   1.661 124.648  0.00  0.00    +0.000 HD
ATOM     40  H   UNL     1      -8.795   2.184 125.884  0.00  0.00    +0.000 HD
BRANCH  36  41
ATOM     41  C   UNL     1      -8.902  -2.158 124.987  0.00  0.00    +0.000 C 
ATOM     42  O   UNL     1      -8.072  -2.817 124.292  0.00  0.00    +0.000 OA
BRANCH  41  43
ATOM     43  O   UNL     1      -9.498  -2.758 126.052  0.00  0.00    +0.000 OA
BRANCH  43  44
ATOM     44  C   UNL     1      -8.594  -3.618 126.781  0.00  0.00    +0.000 C 
BRANCH  44  45
ATOM     45  C   UNL     1      -9.182  -3.988 128.133  0.00  0.00    +0.000 C 
BRANCH  45  46
ATOM     46  C   UNL     1      -8.456  -3.286 129.282  0.00  0.00    +0.000 C 
BRANCH  46  47
ATOM     47  C   UNL     1      -6.948  -3.486 129.162  0.00  0.00    +0.000 C 
BRANCH  47  49
ATOM     48  C   UNL     1      -6.042  -2.932 131.429  0.00  0.00    +0.000 C 
ATOM     49  C   UNL     1      -6.358  -4.050 130.451  0.00  0.00    +0.000 C 
ENDBRANCH  47  49
ENDBRANCH  46  47
ENDBRANCH  45  46
ENDBRANCH  44  45
ENDBRANCH  43  44
ENDBRANCH  41  43
ENDBRANCH  36  41
ENDBRANCH  30  37
ENDBRANCH  28  33
ENDBRANCH  27  28
ENDBRANCH   1  27
TORSDOF 17
ENDMDL
MODEL 5
REMARK VINA RESULT:      -8.6      2.130      4.502
REMARK  Name = Dabigatran etexilate
REMARK  20 active torsions:
REMARK  status: ('A' for Active; 'I' for Inactive)
REMARK    1  A    between atoms: C_1  and  C_2
REMARK    2  A    between atoms: C_2  and  C_3
REMARK    3  A    between atoms: C_3  and  C_4
REMARK    4  A    between atoms: C_4  and  C_5
REMARK    5  A    between atoms: C_5  and  C_6
REMARK    6  A    between atoms: C_6  and  O_7
REMARK    7  A    between atoms: O_7  and  C_8
REMARK    8  A    between atoms: C_8  and  N_10
REMARK    9  A    between atoms: C_11  and  C_13
REMARK   10  A    between atoms: C_16  and  N_17
REMARK   11  A    between atoms: N_17  and  C_18
REMARK   12  A    between atoms: C_18  and  C_19
REMARK   13  A    between atoms: C_25  and  C_27
REMARK   14  A    between atoms: N_29  and  C_30
REMARK   15  A    between atoms: C_30  and  C_31
REMARK   16  A    between atoms: C_31  and  C_32
REMARK   17  A    between atoms: C_32  and  O_34
REMARK   18  A    between atoms: O_34  and  C_35
REMARK   19  A    between atoms: C_35  and  C_36
REMARK   20  A    between atoms: N_43  and  C_44
REMARK                            x       y       z     vdW  Elec       q    Type
REMARK                         _______ _______ _______ _____ _____    ______ ____
ROOT
ATOM      1  C   UNL     1      -6.091   1.082 130.341  0.00  0.00    +0.000 A 
ATOM      2  N   UNL     1      -7.096   0.415 130.940  0.00  0.00    +0.000 NA
ATOM      3  C   UNL     1      -7.895   1.304 131.663  0.00  0.00    +0.000 A 
ATOM      4  C   UNL     1      -7.087   2.397 132.003  0.00  0.00    +0.000 A 
ATOM      5  C   UNL     1      -7.966   3.076 133.059  0.00  0.00    +0.000 A 
ATOM      6  C   UNL     1      -9.264   3.622 132.756  0.00  0.00    +0.000 A 
ATOM      7  C   UNL     1      -9.778   3.193 131.578  0.00  0.00    +0.000 A 
ATOM      8  C   UNL     1      -9.195   1.916 131.284  0.00  0.00    +0.000 A 
ATOM      9  N   UNL     1      -6.324   2.432 130.690  0.00  0.00    +0.000 N 
ATOM     10  C   UNL     1      -5.921   3.261 129.547  0.00  0.00    +0.000 C 
ENDROOT
BRANCH   7  11
ATOM     11  C   UNL     1     -10.422   4.340 130.691  0.00  0.00    +0.000 C 
ATOM     12  O   UNL     1     -11.389   3.935 130.020  0.00  0.00    +0.000 OA
ATOM     13  N   UNL     1     -10.053   5.741 130.618  0.00  0.00    +0.000 N 
ATOM     14  C   UNL     1     -10.751   6.621 129.716  0.00  0.00    +0.000 A 
ATOM     15  N   UNL     1      -9.974   7.547 129.091  0.00  0.00    +0.000 NA
ATOM     16  C   UNL     1     -10.550   8.428 128.257  0.00  0.00    +0.000 A 
ATOM     17  C   UNL     1     -11.909   8.481 128.048  0.00  0.00    +0.000 A 
ATOM     18  C   UNL     1     -12.713   7.587 128.747  0.00  0.00    +0.000 A 
ATOM     19  C   UNL     1     -12.131   6.640 129.593  0.00  0.00    +0.000 A 
BRANCH  13  20
ATOM     20  C   UNL     1      -9.000   6.599 131.304  0.00  0.00    +0.000 C 
BRANCH  20  21
ATOM     21  C   UNL     1      -7.670   6.208 130.906  0.00  0.00    +0.000 C 
BRANCH  21  22
ATOM     22  C   UNL     1      -6.290   6.652 131.311  0.00  0.00    +0.000 C 
ATOM     23  O   UNL     1      -5.815   6.320 132.376  0.00  0.00    +0.000 OA
BRANCH  22  24
ATOM     24  O   UNL     1      -5.610   7.260 130.239  0.00  0.00    +0.000 OA
BRANCH  24  25
ATOM     25  C   UNL     1      -4.256   6.794 129.895  0.00  0.00    +0.000 C 
ATOM     26  C   UNL     1      -3.814   6.209 128.372  0.00  0.00    +0.000 C 
ENDBRANCH  24  25
ENDBRANCH  22  24
ENDBRANCH  21  22
ENDBRANCH  20  21
ENDBRANCH  13  20
ENDBRANCH   7  11
BRANCH   1  27
ATOM     27  C   UNL     1      -4.968   0.510 129.174  0.00  0.00    +0.000 C 
BRANCH  27  28
ATOM     28  N   UNL     1      -4.925  -0.767 128.412  0.00  0.00    +0.000 N 
ATOM     29  H   UNL     1      -4.010  -1.010 128.034  0.00  0.00    +0.000 HD
BRANCH  28  33
ATOM     30  C   UNL     1      -7.751  -1.126 125.242  0.00  0.00    +0.000 A 
ATOM     31  C   UNL     1      -8.118  -1.343 126.569  0.00  0.00    +0.000 A 
ATOM     32  C   UNL     1      -7.149  -1.198 127.573  0.00  0.00    +0.000 A 
ATOM     33  C   UNL     1      -5.806  -0.902 127.279  0.00  0.00    +0.000 A 
ATOM     34  C   UNL     1      -5.469  -0.750 125.922  0.00  0.00    +0.000 A 
ATOM     35  C   UNL     1      -6.444  -0.769 124.926  0.00  0.00    +0.000 A 
BRANCH  30  37
ATOM     36  N   UNL     1      -9.514  -0.337 123.689  0.00  0.00    +0.000 NA
ATOM     37  C   UNL     1      -8.705  -1.285 124.107  0.00  0.00    +0.000 C 
ATOM     38  N   UNL     1      -8.714  -2.536 123.537  0.00  0.00    +0.000 N 
ATOM     39  H   UNL     1      -9.436  -2.792 122.876  0.00  0.00    +0.000 HD
ATOM     40  H   UNL     1      -8.175  -3.297 123.938  0.00  0.00    +0.000 HD
BRANCH  36  41
ATOM     41  C   UNL     1      -9.444   0.946 124.172  0.00  0.00    +0.000 C 
ATOM     42  O   UNL     1      -9.934   1.373 125.259  0.00  0.00    +0.000 OA
BRANCH  41  43
ATOM     43  O   UNL     1      -8.754   1.805 123.374  0.00  0.00    +0.000 OA
BRANCH  43  44
ATOM     44  C   UNL     1      -8.088   2.844 124.126  0.00  0.00    +0.000 C 
BRANCH  44  45
ATOM     45  C   UNL     1      -6.579   2.734 123.970  0.00  0.00    +0.000 C 
BRANCH  45  46
ATOM     46  C   UNL     1      -5.901   4.105 124.001  0.00  0.00    +0.000 C 
BRANCH  46  47
ATOM     47  C   UNL     1      -4.961   4.209 125.199  0.00  0.00    +0.000 C 
BRANCH  47  49
ATOM     48  C   UNL     1      -3.513   2.759 126.636  0.00  0.00    +0.000 C 
ATOM     49  C   UNL     1      -4.858   2.879 125.940  0.00  0.00    +0.000 C 
ENDBRANCH  47  49
ENDBRANCH  46  47
ENDBRANCH  45  46
ENDBRANCH  44  45
ENDBRANCH  43  44
ENDBRANCH  41  43
ENDBRANCH  36  41
ENDBRANCH  30  37
ENDBRANCH  28  33
ENDBRANCH  27  28
ENDBRANCH   1  27
TORSDOF 17
ENDMDL
MODEL 6
REMARK VINA RESULT:      -8.4      2.611      8.083
REMARK  Name = Dabigatran etexilate
REMARK  20 active torsions:
REMARK  status: ('A' for Active; 'I' for Inactive)
REMARK    1  A    between atoms: C_1  and  C_2
REMARK    2  A    between atoms: C_2  and  C_3
REMARK    3  A    between atoms: C_3  and  C_4
REMARK    4  A    between atoms: C_4  and  C_5
REMARK    5  A    between atoms: C_5  and  C_6
REMARK    6  A    between atoms: C_6  and  O_7
REMARK    7  A    between atoms: O_7  and  C_8
REMARK    8  A    between atoms: C_8  and  N_10
REMARK    9  A    between atoms: C_11  and  C_13
REMARK   10  A    between atoms: C_16  and  N_17
REMARK   11  A    between atoms: N_17  and  C_18
REMARK   12  A    between atoms: C_18  and  C_19
REMARK   13  A    between atoms: C_25  and  C_27
REMARK   14  A    between atoms: N_29  and  C_30
REMARK   15  A    between atoms: C_30  and  C_31
REMARK   16  A    between atoms: C_31  and  C_32
REMARK   17  A    between atoms: C_32  and  O_34
REMARK   18  A    between atoms: O_34  and  C_35
REMARK   19  A    between atoms: C_35  and  C_36
REMARK   20  A    between atoms: N_43  and  C_44
REMARK                            x       y       z     vdW  Elec       q    Type
REMARK                         _______ _______ _______ _____ _____    ______ ____
ROOT
ATOM      1  C   UNL     1      -4.567   4.649 126.693  0.00  0.00    +0.000 A 
ATOM      2  N   UNL     1      -5.743   5.243 126.416  0.00  0.00    +0.000 NA
ATOM      3  C   UNL     1      -6.503   4.426 125.575  0.00  0.00    +0.000 A 
ATOM      4  C   UNL     1      -5.604   3.622 124.863  0.00  0.00    +0.000 A 
ATOM      5  C   UNL     1      -6.526   3.072 123.769  0.00  0.00    +0.000 A 
ATOM      6  C   UNL     1      -7.662   2.235 124.058  0.00  0.00    +0.000 A 
ATOM      7  C   UNL     1      -8.041   2.256 125.358  0.00  0.00    +0.000 A 
ATOM      8  C   UNL     1      -7.619   3.506 125.919  0.00  0.00    +0.000 A 
ATOM      9  N   UNL     1      -4.645   3.408 126.022  0.00  0.00    +0.000 N 
ATOM     10  C   UNL     1      -3.945   2.413 126.844  0.00  0.00    +0.000 C 
ENDROOT
BRANCH   7  11
ATOM     11  C   UNL     1      -8.355   0.826 125.969  0.00  0.00    +0.000 C 
ATOM     12  O   UNL     1      -9.577   0.612 126.075  0.00  0.00    +0.000 OA
ATOM     13  N   UNL     1      -7.424  -0.218 126.354  0.00  0.00    +0.000 N 
ATOM     14  C   UNL     1      -7.916  -1.445 126.925  0.00  0.00    +0.000 A 
ATOM     15  N   UNL     1      -7.160  -1.961 127.933  0.00  0.00    +0.000 NA
ATOM     16  C   UNL     1      -7.530  -3.121 128.499  0.00  0.00    +0.000 A 
ATOM     17  C   UNL     1      -8.612  -3.852 128.067  0.00  0.00    +0.000 A 
ATOM     18  C   UNL     1      -9.340  -3.366 126.985  0.00  0.00    +0.000 A 
ATOM     19  C   UNL     1      -8.992  -2.145 126.404  0.00  0.00    +0.000 A 
BRANCH  13  20
ATOM     20  C   UNL     1      -5.908  -0.352 126.323  0.00  0.00    +0.000 C 
BRANCH  20  21
ATOM     21  C   UNL     1      -5.444  -0.714 125.006  0.00  0.00    +0.000 C 
BRANCH  21  22
ATOM     22  C   UNL     1      -5.994  -1.589 123.913  0.00  0.00    +0.000 C 
ATOM     23  O   UNL     1      -7.083  -1.370 123.427  0.00  0.00    +0.000 OA
BRANCH  22  24
ATOM     24  O   UNL     1      -5.019  -2.479 123.426  0.00  0.00    +0.000 OA
BRANCH  24  25
ATOM     25  C   UNL     1      -4.837  -3.778 124.095  0.00  0.00    +0.000 C 
ATOM     26  C   UNL     1      -4.204  -5.152 123.340  0.00  0.00    +0.000 C 
ENDBRANCH  24  25
ENDBRANCH  22  24
ENDBRANCH  21  22
ENDBRANCH  20  21
ENDBRANCH  13  20
ENDBRANCH   7  11
BRANCH   1  27
ATOM     27  C   UNL     1      -3.373   5.116 127.836  0.00  0.00    +0.000 C 
BRANCH  27  28
ATOM     28  N   UNL     1      -3.338   4.976 129.317  0.00  0.00    +0.000 N 
ATOM     29  H   UNL     1      -3.111   4.040 129.654  0.00  0.00    +0.000 HD
BRANCH  28  33
ATOM     30  C   UNL     1      -6.859   5.735 131.596  0.00  0.00    +0.000 A 
ATOM     31  C   UNL     1      -6.481   4.436 131.255  0.00  0.00    +0.000 A 
ATOM     32  C   UNL     1      -5.305   4.245 130.515  0.00  0.00    +0.000 A 
ATOM     33  C   UNL     1      -4.528   5.322 130.052  0.00  0.00    +0.000 A 
ATOM     34  C   UNL     1      -4.980   6.616 130.369  0.00  0.00    +0.000 A 
ATOM     35  C   UNL     1      -6.076   6.816 131.207  0.00  0.00    +0.000 A 
BRANCH  30  37
ATOM     36  N   UNL     1      -9.197   6.528 131.813  0.00  0.00    +0.000 NA
ATOM     37  C   UNL     1      -8.105   6.036 132.355  0.00  0.00    +0.000 C 
ATOM     38  N   UNL     1      -8.024   5.798 133.707  0.00  0.00    +0.000 N 
ATOM     39  H   UNL     1      -8.753   6.123 134.329  0.00  0.00    +0.000 HD
ATOM     40  H   UNL     1      -7.144   5.531 134.139  0.00  0.00    +0.000 HD
BRANCH  36  41
ATOM     41  C   UNL     1      -9.334   6.670 130.454  0.00  0.00    +0.000 C 
ATOM     42  O   UNL     1      -9.261   7.749 129.795  0.00  0.00    +0.000 OA
BRANCH  41  43
ATOM     43  O   UNL     1      -9.552   5.502 129.791  0.00  0.00    +0.000 OA
BRANCH  43  44
ATOM     44  C   UNL     1     -10.527   4.665 130.453  0.00  0.00    +0.000 C 
BRANCH  44  45
ATOM     45  C   UNL     1     -10.063   3.217 130.470  0.00  0.00    +0.000 C 
BRANCH  45  46
ATOM     46  C   UNL     1      -8.997   2.947 129.406  0.00  0.00    +0.000 C 
BRANCH  46  47
ATOM     47  C   UNL     1      -8.462   1.523 129.536  0.00  0.00    +0.000 C 
BRANCH  47  49
ATOM     48  C   UNL     1      -8.362  -0.472 131.045  0.00  0.00    +0.000 C 
ATOM     49  C   UNL     1      -8.520   1.038 130.981  0.00  0.00    +0.000 C 
ENDBRANCH  47  49
ENDBRANCH  46  47
ENDBRANCH  45  46
ENDBRANCH  44  45
ENDBRANCH  43  44
ENDBRANCH  41  43
ENDBRANCH  36  41
ENDBRANCH  30  37
ENDBRANCH  28  33
ENDBRANCH  27  28
ENDBRANCH   1  27
TORSDOF 17
ENDMDL
MODEL 7
REMARK VINA RESULT:      -8.4      2.031      3.270
REMARK  Name = Dabigatran etexilate
REMARK  20 active torsions:
REMARK  status: ('A' for Active; 'I' for Inactive)
REMARK    1  A    between atoms: C_1  and  C_2
REMARK    2  A    between atoms: C_2  and  C_3
REMARK    3  A    between atoms: C_3  and  C_4
REMARK    4  A    between atoms: C_4  and  C_5
REMARK    5  A    between atoms: C_5  and  C_6
REMARK    6  A    between atoms: C_6  and  O_7
REMARK    7  A    between atoms: O_7  and  C_8
REMARK    8  A    between atoms: C_8  and  N_10
REMARK    9  A    between atoms: C_11  and  C_13
REMARK   10  A    between atoms: C_16  and  N_17
REMARK   11  A    between atoms: N_17  and  C_18
REMARK   12  A    between atoms: C_18  and  C_19
REMARK   13  A    between atoms: C_25  and  C_27
REMARK   14  A    between atoms: N_29  and  C_30
REMARK   15  A    between atoms: C_30  and  C_31
REMARK   16  A    between atoms: C_31  and  C_32
REMARK   17  A    between atoms: C_32  and  O_34
REMARK   18  A    between atoms: O_34  and  C_35
REMARK   19  A    between atoms: C_35  and  C_36
REMARK   20  A    between atoms: N_43  and  C_44
REMARK                            x       y       z     vdW  Elec       q    Type
REMARK                         _______ _______ _______ _____ _____    ______ ____
ROOT
ATOM      1  C   UNL     1      -5.514   1.445 130.355  0.00  0.00    +0.000 A 
ATOM      2  N   UNL     1      -6.474   0.508 130.484  0.00  0.00    +0.000 NA
ATOM      3  C   UNL     1      -7.559   1.031 131.192  0.00  0.00    +0.000 A 
ATOM      4  C   UNL     1      -7.061   2.061 132.001  0.00  0.00    +0.000 A 
ATOM      5  C   UNL     1      -8.251   2.275 132.945  0.00  0.00    +0.000 A 
ATOM      6  C   UNL     1      -9.539   2.721 132.482  0.00  0.00    +0.000 A 
ATOM      7  C   UNL     1      -9.710   2.608 131.143  0.00  0.00    +0.000 A 
ATOM      8  C   UNL     1      -8.847   1.563 130.677  0.00  0.00    +0.000 A 
ATOM      9  N   UNL     1      -6.068   2.587 130.979  0.00  0.00    +0.000 N 
ATOM     10  C   UNL     1      -5.607   3.766 130.236  0.00  0.00    +0.000 C 
ENDROOT
BRANCH   7  11
ATOM     11  C   UNL     1     -10.368   3.880 130.460  0.00  0.00    +0.000 C 
ATOM     12  O   UNL     1     -11.566   3.701 130.175  0.00  0.00    +0.000 OA
ATOM     13  N   UNL     1      -9.767   5.172 130.188  0.00  0.00    +0.000 N 
ATOM     14  C   UNL     1     -10.533   6.195 129.524  0.00  0.00    +0.000 A 
ATOM     15  N   UNL     1      -9.842   6.945 128.623  0.00  0.00    +0.000 NA
ATOM     16  C   UNL     1     -10.473   7.943 127.982  0.00  0.00    +0.000 A 
ATOM     17  C   UNL     1     -11.781   8.286 128.237  0.00  0.00    +0.000 A 
ATOM     18  C   UNL     1     -12.466   7.571 129.214  0.00  0.00    +0.000 A 
ATOM     19  C   UNL     1     -11.838   6.508 129.868  0.00  0.00    +0.000 A 
BRANCH  13  20
ATOM     20  C   UNL     1      -8.391   5.776 130.433  0.00  0.00    +0.000 C 
BRANCH  20  21
ATOM     21  C   UNL     1      -8.287   6.309 131.769  0.00  0.00    +0.000 C 
BRANCH  21  22
ATOM     22  C   UNL     1      -7.462   5.945 132.973  0.00  0.00    +0.000 C 
ATOM     23  O   UNL     1      -6.251   6.014 132.943  0.00  0.00    +0.000 OA
BRANCH  22  24
ATOM     24  O   UNL     1      -8.267   5.762 134.113  0.00  0.00    +0.000 OA
BRANCH  24  25
ATOM     25  C   UNL     1      -7.670   5.171 135.323  0.00  0.00    +0.000 C 
ATOM     26  C   UNL     1      -6.326   4.145 135.311  0.00  0.00    +0.000 C 
ENDBRANCH  24  25
ENDBRANCH  22  24
ENDBRANCH  21  22
ENDBRANCH  20  21
ENDBRANCH  13  20
ENDBRANCH   7  11
BRANCH   1  27
ATOM     27  C   UNL     1      -4.089   1.397 129.398  0.00  0.00    +0.000 C 
BRANCH  27  28
ATOM     28  N   UNL     1      -3.789   2.000 128.072  0.00  0.00    +0.000 N 
ATOM     29  H   UNL     1      -3.605   3.003 128.089  0.00  0.00    +0.000 HD
BRANCH  28  33
ATOM     30  C   UNL     1      -6.653   1.838 124.920  0.00  0.00    +0.000 A 
ATOM     31  C   UNL     1      -6.283   3.049 125.502  0.00  0.00    +0.000 A 
ATOM     32  C   UNL     1      -5.326   3.044 126.527  0.00  0.00    +0.000 A 
ATOM     33  C   UNL     1      -4.773   1.853 127.029  0.00  0.00    +0.000 A 
ATOM     34  C   UNL     1      -5.220   0.650 126.452  0.00  0.00    +0.000 A 
ATOM     35  C   UNL     1      -6.076   0.648 125.352  0.00  0.00    +0.000 A 
BRANCH  30  37
ATOM     36  N   UNL     1      -8.852   1.163 123.996  0.00  0.00    +0.000 NA
ATOM     37  C   UNL     1      -7.682   1.743 123.846  0.00  0.00    +0.000 C 
ATOM     38  N   UNL     1      -7.301   2.281 122.639  0.00  0.00    +0.000 N 
ATOM     39  H   UNL     1      -7.857   2.121 121.809  0.00  0.00    +0.000 HD
ATOM     40  H   UNL     1      -6.355   2.621 122.493  0.00  0.00    +0.000 HD
BRANCH  36  41
ATOM     41  C   UNL     1      -9.292   0.718 125.218  0.00  0.00    +0.000 C 
ATOM     42  O   UNL     1      -9.410   1.406 126.276  0.00  0.00    +0.000 OA
BRANCH  41  43
ATOM     43  O   UNL     1      -9.639  -0.597 125.240  0.00  0.00    +0.000 OA
BRANCH  43  44
ATOM     44  C   UNL     1      -8.900  -1.347 126.231  0.00  0.00    +0.000 C 
BRANCH  44  45
ATOM     45  C   UNL     1      -9.078  -2.841 126.012  0.00  0.00    +0.000 C 
BRANCH  45  46
ATOM     46  C   UNL     1      -8.844  -3.235 124.552  0.00  0.00    +0.000 C 
BRANCH  46  47
ATOM     47  C   UNL     1      -7.440  -3.807 124.373  0.00  0.00    +0.000 C 
BRANCH  47  49
ATOM     48  C   UNL     1      -7.190  -1.868 122.809  0.00  0.00    +0.000 C 
ATOM     49  C   UNL     1      -6.481  -2.760 123.814  0.00  0.00    +0.000 C 
ENDBRANCH  47  49
ENDBRANCH  46  47
ENDBRANCH  45  46
ENDBRANCH  44  45
ENDBRANCH  43  44
ENDBRANCH  41  43
ENDBRANCH  36  41
ENDBRANCH  30  37
ENDBRANCH  28  33
ENDBRANCH  27  28
ENDBRANCH   1  27
TORSDOF 17
ENDMDL
MODEL 8
REMARK VINA RESULT:      -8.4      2.574      8.281
REMARK  Name = Dabigatran etexilate
REMARK  20 active torsions:
REMARK  status: ('A' for Active; 'I' for Inactive)
REMARK    1  A    between atoms: C_1  and  C_2
REMARK    2  A    between atoms: C_2  and  C_3
REMARK    3  A    between atoms: C_3  and  C_4
REMARK    4  A    between atoms: C_4  and  C_5
REMARK    5  A    between atoms: C_5  and  C_6
REMARK    6  A    between atoms: C_6  and  O_7
REMARK    7  A    between atoms: O_7  and  C_8
REMARK    8  A    between atoms: C_8  and  N_10
REMARK    9  A    between atoms: C_11  and  C_13
REMARK   10  A    between atoms: C_16  and  N_17
REMARK   11  A    between atoms: N_17  and  C_18
REMARK   12  A    between atoms: C_18  and  C_19
REMARK   13  A    between atoms: C_25  and  C_27
REMARK   14  A    between atoms: N_29  and  C_30
REMARK   15  A    between atoms: C_30  and  C_31
REMARK   16  A    between atoms: C_31  and  C_32
REMARK   17  A    between atoms: C_32  and  O_34
REMARK   18  A    between atoms: O_34  and  C_35
REMARK   19  A    between atoms: C_35  and  C_36
REMARK   20  A    between atoms: N_43  and  C_44
REMARK                            x       y       z     vdW  Elec       q    Type
REMARK                         _______ _______ _______ _____ _____    ______ ____
ROOT
ATOM      1  C   UNL     1      -4.917   4.822 126.658  0.00  0.00    +0.000 A 
ATOM      2  N   UNL     1      -6.093   5.301 126.210  0.00  0.00    +0.000 NA
ATOM      3  C   UNL     1      -6.419   4.701 124.991  0.00  0.00    +0.000 A 
ATOM      4  C   UNL     1      -5.215   4.307 124.393  0.00  0.00    +0.000 A 
ATOM      5  C   UNL     1      -5.694   4.016 122.966  0.00  0.00    +0.000 A 
ATOM      6  C   UNL     1      -6.645   2.979 122.662  0.00  0.00    +0.000 A 
ATOM      7  C   UNL     1      -7.324   2.524 123.742  0.00  0.00    +0.000 A 
ATOM      8  C   UNL     1      -7.346   3.572 124.720  0.00  0.00    +0.000 A 
ATOM      9  N   UNL     1      -4.545   3.867 125.684  0.00  0.00    +0.000 N 
ATOM     10  C   UNL     1      -3.860   2.770 126.378  0.00  0.00    +0.000 C 
ENDROOT
BRANCH   7  11
ATOM     11  C   UNL     1      -7.445   0.943 123.819  0.00  0.00    +0.000 C 
ATOM     12  O   UNL     1      -6.800   0.373 122.920  0.00  0.00    +0.000 OA
ATOM     13  N   UNL     1      -8.152   0.137 124.796  0.00  0.00    +0.000 N 
ATOM     14  C   UNL     1      -8.166  -1.297 124.669  0.00  0.00    +0.000 A 
ATOM     15  N   UNL     1      -9.345  -1.897 124.990  0.00  0.00    +0.000 NA
ATOM     16  C   UNL     1      -9.435  -3.235 124.930  0.00  0.00    +0.000 A 
ATOM     17  C   UNL     1      -8.366  -4.043 124.615  0.00  0.00    +0.000 A 
ATOM     18  C   UNL     1      -7.140  -3.436 124.363  0.00  0.00    +0.000 A 
ATOM     19  C   UNL     1      -7.033  -2.044 124.387  0.00  0.00    +0.000 A 
BRANCH  13  20
ATOM     20  C   UNL     1      -8.979   0.454 126.034  0.00  0.00    +0.000 C 
BRANCH  20  21
ATOM     21  C   UNL     1      -8.133   0.763 127.161  0.00  0.00    +0.000 C 
BRANCH  21  22
ATOM     22  C   UNL     1      -7.090  -0.008 127.921  0.00  0.00    +0.000 C 
ATOM     23  O   UNL     1      -5.950   0.398 128.004  0.00  0.00    +0.000 OA
BRANCH  22  24
ATOM     24  O   UNL     1      -7.662  -1.061 128.659  0.00  0.00    +0.000 OA
BRANCH  24  25
ATOM     25  C   UNL     1      -7.460  -2.447 128.203  0.00  0.00    +0.000 C 
ATOM     26  C   UNL     1      -8.600  -3.681 128.390  0.00  0.00    +0.000 C 
ENDBRANCH  24  25
ENDBRANCH  22  24
ENDBRANCH  21  22
ENDBRANCH  20  21
ENDBRANCH  13  20
ENDBRANCH   7  11
BRANCH   1  27
ATOM     27  C   UNL     1      -4.175   5.058 128.189  0.00  0.00    +0.000 C 
BRANCH  27  28
ATOM     28  N   UNL     1      -3.771   4.079 129.233  0.00  0.00    +0.000 N 
ATOM     29  H   UNL     1      -3.139   3.346 128.912  0.00  0.00    +0.000 HD
BRANCH  28  33
ATOM     30  C   UNL     1      -7.036   2.017 131.037  0.00  0.00    +0.000 A 
ATOM     31  C   UNL     1      -7.245   3.072 130.149  0.00  0.00    +0.000 A 
ATOM     32  C   UNL     1      -6.133   3.705 129.575  0.00  0.00    +0.000 A 
ATOM     33  C   UNL     1      -4.814   3.354 129.913  0.00  0.00    +0.000 A 
ATOM     34  C   UNL     1      -4.652   2.324 130.859  0.00  0.00    +0.000 A 
ATOM     35  C   UNL     1      -5.743   1.605 131.342  0.00  0.00    +0.000 A 
BRANCH  30  37
ATOM     36  N   UNL     1      -8.719   1.713 132.831  0.00  0.00    +0.000 NA
ATOM     37  C   UNL     1      -8.155   1.304 131.716  0.00  0.00    +0.000 C 
ATOM     38  N   UNL     1      -8.542   0.134 131.106  0.00  0.00    +0.000 N 
ATOM     39  H   UNL     1      -9.174  -0.502 131.574  0.00  0.00    +0.000 HD
ATOM     40  H   UNL     1      -8.027  -0.238 130.314  0.00  0.00    +0.000 HD
BRANCH  36  41
ATOM     41  C   UNL     1      -8.421   2.929 133.394  0.00  0.00    +0.000 C 
ATOM     42  O   UNL     1      -7.504   3.169 134.234  0.00  0.00    +0.000 OA
BRANCH  41  43
ATOM     43  O   UNL     1      -9.208   3.951 132.962  0.00  0.00    +0.000 OA
BRANCH  43  44
ATOM     44  C   UNL     1      -8.499   5.210 132.908  0.00  0.00    +0.000 C 
BRANCH  44  45
ATOM     45  C   UNL     1      -9.421   6.322 132.433  0.00  0.00    +0.000 C 
BRANCH  45  46
ATOM     46  C   UNL     1      -9.126   6.728 130.987  0.00  0.00    +0.000 C 
BRANCH  46  47
ATOM     47  C   UNL     1     -10.421   7.067 130.254  0.00  0.00    +0.000 C 
BRANCH  47  49
ATOM     48  C   UNL     1     -12.722   7.297 131.212  0.00  0.00    +0.000 C 
ATOM     49  C   UNL     1     -11.610   6.325 130.855  0.00  0.00    +0.000 C 
ENDBRANCH  47  49
ENDBRANCH  46  47
ENDBRANCH  45  46
ENDBRANCH  44  45
ENDBRANCH  43  44
ENDBRANCH  41  43
ENDBRANCH  36  41
ENDBRANCH  30  37
ENDBRANCH  28  33
ENDBRANCH  27  28
ENDBRANCH   1  27
TORSDOF 17
ENDMDL
MODEL 9
REMARK VINA RESULT:      -8.4      2.284      4.333
REMARK  Name = Dabigatran etexilate
REMARK  20 active torsions:
REMARK  status: ('A' for Active; 'I' for Inactive)
REMARK    1  A    between atoms: C_1  and  C_2
REMARK    2  A    between atoms: C_2  and  C_3
REMARK    3  A    between atoms: C_3  and  C_4
REMARK    4  A    between atoms: C_4  and  C_5
REMARK    5  A    between atoms: C_5  and  C_6
REMARK    6  A    between atoms: C_6  and  O_7
REMARK    7  A    between atoms: O_7  and  C_8
REMARK    8  A    between atoms: C_8  and  N_10
REMARK    9  A    between atoms: C_11  and  C_13
REMARK   10  A    between atoms: C_16  and  N_17
REMARK   11  A    between atoms: N_17  and  C_18
REMARK   12  A    between atoms: C_18  and  C_19
REMARK   13  A    between atoms: C_25  and  C_27
REMARK   14  A    between atoms: N_29  and  C_30
REMARK   15  A    between atoms: C_30  and  C_31
REMARK   16  A    between atoms: C_31  and  C_32
REMARK   17  A    between atoms: C_32  and  O_34
REMARK   18  A    between atoms: O_34  and  C_35
REMARK   19  A    between atoms: C_35  and  C_36
REMARK   20  A    between atoms: N_43  and  C_44
REMARK                            x       y       z     vdW  Elec       q    Type
REMARK                         _______ _______ _______ _____ _____    ______ ____
ROOT
ATOM      1  C   UNL     1      -6.114   0.429 130.272  0.00  0.00    +0.000 A 
ATOM      2  N   UNL     1      -7.149  -0.262 130.788  0.00  0.00    +0.000 NA
ATOM      3  C   UNL     1      -7.985   0.596 131.507  0.00  0.00    +0.000 A 
ATOM      4  C   UNL     1      -7.196   1.671 131.936  0.00  0.00    +0.000 A 
ATOM      5  C   UNL     1      -8.129   2.305 132.974  0.00  0.00    +0.000 A 
ATOM      6  C   UNL     1      -9.410   2.866 132.628  0.00  0.00    +0.000 A 
ATOM      7  C   UNL     1      -9.862   2.490 131.408  0.00  0.00    +0.000 A 
ATOM      8  C   UNL     1      -9.264   1.226 131.089  0.00  0.00    +0.000 A 
ATOM      9  N   UNL     1      -6.366   1.763 130.666  0.00  0.00    +0.000 N 
ATOM     10  C   UNL     1      -5.905   2.641 129.583  0.00  0.00    +0.000 C 
ENDROOT
BRANCH   7  11
ATOM     11  C   UNL     1     -10.460   3.676 130.540  0.00  0.00    +0.000 C 
ATOM     12  O   UNL     1     -11.682   3.547 130.338  0.00  0.00    +0.000 OA
ATOM     13  N   UNL     1      -9.782   4.850 130.023  0.00  0.00    +0.000 N 
ATOM     14  C   UNL     1     -10.506   5.803 129.222  0.00  0.00    +0.000 A 
ATOM     15  N   UNL     1      -9.810   6.330 128.178  0.00  0.00    +0.000 NA
ATOM     16  C   UNL     1     -10.400   7.251 127.398  0.00  0.00    +0.000 A 
ATOM     17  C   UNL     1     -11.665   7.737 127.641  0.00  0.00    +0.000 A 
ATOM     18  C   UNL     1     -12.347   7.256 128.754  0.00  0.00    +0.000 A 
ATOM     19  C   UNL     1     -11.765   6.274 129.558  0.00  0.00    +0.000 A 
BRANCH  13  20
ATOM     20  C   UNL     1      -8.356   5.373 130.105  0.00  0.00    +0.000 C 
BRANCH  20  21
ATOM     21  C   UNL     1      -8.197   6.283 131.214  0.00  0.00    +0.000 C 
BRANCH  21  22
ATOM     22  C   UNL     1      -8.565   6.221 132.671  0.00  0.00    +0.000 C 
ATOM     23  O   UNL     1      -9.713   6.366 133.031  0.00  0.00    +0.000 OA
BRANCH  22  24
ATOM     24  O   UNL     1      -7.488   5.767 133.455  0.00  0.00    +0.000 OA
BRANCH  24  25
ATOM     25  C   UNL     1      -7.692   5.555 134.898  0.00  0.00    +0.000 C 
ATOM     26  C   UNL     1      -6.536   4.880 135.930  0.00  0.00    +0.000 C 
ENDBRANCH  24  25
ENDBRANCH  22  24
ENDBRANCH  21  22
ENDBRANCH  20  21
ENDBRANCH  13  20
ENDBRANCH   7  11
BRANCH   1  27
ATOM     27  C   UNL     1      -4.933  -0.093 129.140  0.00  0.00    +0.000 C 
BRANCH  27  28
ATOM     28  N   UNL     1      -5.019  -1.081 128.031  0.00  0.00    +0.000 N 
ATOM     29  H   UNL     1      -4.157  -1.206 127.500  0.00  0.00    +0.000 HD
BRANCH  28  33
ATOM     30  C   UNL     1      -7.765  -0.482 124.827  0.00  0.00    +0.000 A 
ATOM     31  C   UNL     1      -6.389  -0.353 124.637  0.00  0.00    +0.000 A 
ATOM     32  C   UNL     1      -5.532  -0.574 125.725  0.00  0.00    +0.000 A 
ATOM     33  C   UNL     1      -6.016  -0.861 127.014  0.00  0.00    +0.000 A 
ATOM     34  C   UNL     1      -7.413  -0.923 127.170  0.00  0.00    +0.000 A 
ATOM     35  C   UNL     1      -8.270  -0.828 126.075  0.00  0.00    +0.000 A 
BRANCH  30  37
ATOM     36  N   UNL     1      -9.296   0.932 123.486  0.00  0.00    +0.000 NA
ATOM     37  C   UNL     1      -8.752  -0.238 123.738  0.00  0.00    +0.000 C 
ATOM     38  N   UNL     1      -9.100  -1.358 123.019  0.00  0.00    +0.000 N 
ATOM     39  H   UNL     1      -9.878  -1.330 122.373  0.00  0.00    +0.000 HD
ATOM     40  H   UNL     1      -8.769  -2.278 123.291  0.00  0.00    +0.000 HD
BRANCH  36  41
ATOM     41  C   UNL     1      -8.883   2.077 124.119  0.00  0.00    +0.000 C 
ATOM     42  O   UNL     1      -9.335   2.546 125.206  0.00  0.00    +0.000 OA
BRANCH  41  43
ATOM     43  O   UNL     1      -7.874   2.732 123.484  0.00  0.00    +0.000 OA
BRANCH  43  44
ATOM     44  C   UNL     1      -7.208   3.686 124.342  0.00  0.00    +0.000 C 
BRANCH  44  45
ATOM     45  C   UNL     1      -5.760   3.280 124.567  0.00  0.00    +0.000 C 
BRANCH  45  46
ATOM     46  C   UNL     1      -5.289   3.612 125.985  0.00  0.00    +0.000 C 
BRANCH  46  47
ATOM     47  C   UNL     1      -4.098   2.738 126.370  0.00  0.00    +0.000 C 
BRANCH  47  49
ATOM     48  C   UNL     1      -2.498   4.024 127.802  0.00  0.00    +0.000 C 
ATOM     49  C   UNL     1      -2.803   3.543 126.393  0.00  0.00    +0.000 C 
ENDBRANCH  47  49
ENDBRANCH  46  47
ENDBRANCH  45  46
ENDBRANCH  44  45
ENDBRANCH  43  44
ENDBRANCH  41  43
ENDBRANCH  36  41
ENDBRANCH  30  37
ENDBRANCH  28  33
ENDBRANCH  27  28
ENDBRANCH   1  27
TORSDOF 17
ENDMDL
