MODEL 1
REMARK VINA RESULT:      -9.4      0.000      0.000
REMARK  Name = Dabigatran
REMARK  10 active torsions:
REMARK  status: ('A' for Active; 'I' for Inactive)
REMARK    1  A    between atoms: C_1  and  N_2
REMARK    2  A    between atoms: C_3  and  C_4
REMARK    3  A    between atoms: C_4  and  N_5
REMARK    4  A    between atoms: N_5  and  C_6
REMARK    5  A    between atoms: C_9  and  C_12
REMARK    6  A    between atoms: C_20  and  C_22
REMARK    7  A    between atoms: N_24  and  C_25
REMARK    8  A    between atoms: C_25  and  C_26
REMARK    9  A    between atoms: C_26  and  C_27
REMARK   10  A    between atoms: C_27  and  O_28
REMARK                            x       y       z     vdW  Elec       q    Type
REMARK                         _______ _______ _______ _____ _____    ______ ____
ROOT
ATOM      1  C   UNL     1      -7.916  -1.302 132.430  0.00  0.00    +0.000 C 
ATOM      2  N   UNL     1      -7.730  -0.534 131.200  0.00  0.00    +0.000 N 
ATOM      3  C   UNL     1      -7.074  -0.610 130.009  0.00  0.00    +0.000 A 
ATOM      4  N   UNL     1      -7.328   0.424 129.201  0.00  0.00    +0.000 NA
ATOM      5  C   UNL     1      -8.205   1.226 129.861  0.00  0.00    +0.000 A 
ATOM      6  C   UNL     1      -8.404   0.628 131.088  0.00  0.00    +0.000 A 
ATOM      7  C   UNL     1      -9.191   1.101 132.028  0.00  0.00    +0.000 A 
ATOM      8  C   UNL     1      -9.841   2.201 131.587  0.00  0.00    +0.000 A 
ATOM      9  C   UNL     1      -9.778   3.005 130.478  0.00  0.00    +0.000 A 
ATOM     10  C   UNL     1      -8.886   2.456 129.540  0.00  0.00    +0.000 A 
ENDROOT
BRANCH   9  11
ATOM     11  C   UNL     1     -10.587   4.321 130.280  0.00  0.00    +0.000 C 
ATOM     12  O   UNL     1     -11.791   4.096 130.083  0.00  0.00    +0.000 OA
ATOM     13  N   UNL     1     -10.099   5.701 130.245  0.00  0.00    +0.000 N 
ATOM     14  C   UNL     1     -11.042   6.767 129.998  0.00  0.00    +0.000 A 
ATOM     15  N   UNL     1     -10.610   7.801 129.219  0.00  0.00    +0.000 NA
ATOM     16  C   UNL     1     -11.449   8.833 128.993  0.00  0.00    +0.000 A 
ATOM     17  C   UNL     1     -12.695   8.936 129.574  0.00  0.00    +0.000 A 
ATOM     18  C   UNL     1     -13.092   7.926 130.441  0.00  0.00    +0.000 A 
ATOM     19  C   UNL     1     -12.260   6.825 130.653  0.00  0.00    +0.000 A 
BRANCH  13  20
ATOM     20  C   UNL     1      -8.742   6.377 130.393  0.00  0.00    +0.000 C 
BRANCH  20  21
ATOM     21  C   UNL     1      -8.184   6.239 131.720  0.00  0.00    +0.000 C 
BRANCH  21  22
ATOM     22  C   UNL     1      -8.573   5.735 133.076  0.00  0.00    +0.000 C 
ATOM     23  O   UNL     1      -8.003   4.818 133.629  0.00  0.00    +0.000 OA
BRANCH  22  24
ATOM     24  O   UNL     1      -9.618   6.378 133.593  0.00  0.00    +0.000 OA
ATOM     25  H   UNL     1      -9.876   7.103 133.005  0.00  0.00    +0.000 HD
ENDBRANCH  22  24
ENDBRANCH  21  22
ENDBRANCH  20  21
ENDBRANCH  13  20
ENDBRANCH   9  11
BRANCH   3  26
ATOM     26  C   UNL     1      -6.176  -1.709 129.642  0.00  0.00    +0.000 C 
BRANCH  26  27
ATOM     27  N   UNL     1      -6.884  -2.817 129.043  0.00  0.00    +0.000 N 
ATOM     28  H   UNL     1      -6.266  -3.614 128.998  0.00  0.00    +0.000 HD
BRANCH  27  29
ATOM     29  C   UNL     1      -7.335  -2.732 127.745  0.00  0.00    +0.000 A 
ATOM     30  C   UNL     1      -8.565  -3.337 127.513  0.00  0.00    +0.000 A 
ATOM     31  C   UNL     1      -9.068  -3.413 126.231  0.00  0.00    +0.000 A 
ATOM     32  C   UNL     1      -8.357  -2.837 125.173  0.00  0.00    +0.000 A 
ATOM     33  C   UNL     1      -7.067  -2.337 125.400  0.00  0.00    +0.000 A 
ATOM     34  C   UNL     1      -6.545  -2.316 126.684  0.00  0.00    +0.000 A 
BRANCH  32  35
ATOM     35  C   UNL     1      -9.013  -2.710 123.842  0.00  0.00    +0.000 C 
ATOM     36  N   UNL     1      -8.547  -1.838 122.912  0.00  0.00    +0.000 N 
ATOM     37  N   UNL     1     -10.032  -3.425 123.479  0.00  0.00    +0.000 NA
ATOM     38  H   UNL     1      -7.677  -1.336 122.990  0.00  0.00    +0.000 HD
ATOM     39  H   UNL     1      -8.964  -1.904 121.993  0.00  0.00    +0.000 HD
ATOM     40  H   UNL     1     -10.334  -4.072 124.206  0.00  0.00    +0.000 HD
ENDBRANCH  32  35
ENDBRANCH  27  29
ENDBRANCH  26  27
ENDBRANCH   3  26
TORSDOF 9
ENDMDL
MODEL 2
REMARK VINA RESULT:      -8.8      3.196      9.574
REMARK  Name = Dabigatran
REMARK  10 active torsions:
REMARK  status: ('A' for Active; 'I' for Inactive)
REMARK    1  A    between atoms: C_1  and  N_2
REMARK    2  A    between atoms: C_3  and  C_4
REMARK    3  A    between atoms: C_4  and  N_5
REMARK    4  A    between atoms: N_5  and  C_6
REMARK    5  A    between atoms: C_9  and  C_12
REMARK    6  A    between atoms: C_20  and  C_22
REMARK    7  A    between atoms: N_24  and  C_25
REMARK    8  A    between atoms: C_25  and  C_26
REMARK    9  A    between atoms: C_26  and  C_27
REMARK   10  A    between atoms: C_27  and  O_28
REMARK                            x       y       z     vdW  Elec       q    Type
REMARK                         _______ _______ _______ _____ _____    ______ ____
ROOT
ATOM      1  C   UNL     1      -9.063   2.542 132.795  0.00  0.00    +0.000 C 
ATOM      2  N   UNL     1      -8.550   3.190 131.590  0.00  0.00    +0.000 N 
ATOM      3  C   UNL     1      -8.262   4.433 131.113  0.00  0.00    +0.000 A 
ATOM      4  N   UNL     1      -7.739   4.417 129.884  0.00  0.00    +0.000 NA
ATOM      5  C   UNL     1      -7.649   3.111 129.516  0.00  0.00    +0.000 A 
ATOM      6  C   UNL     1      -8.182   2.394 130.567  0.00  0.00    +0.000 A 
ATOM      7  C   UNL     1      -8.281   1.084 130.598  0.00  0.00    +0.000 A 
ATOM      8  C   UNL     1      -7.708   0.543 129.500  0.00  0.00    +0.000 A 
ATOM      9  C   UNL     1      -7.187   1.018 128.324  0.00  0.00    +0.000 A 
ATOM     10  C   UNL     1      -7.154   2.423 128.351  0.00  0.00    +0.000 A 
ENDROOT
BRANCH   9  11
ATOM     11  C   UNL     1      -6.691   0.133 127.144  0.00  0.00    +0.000 C 
ATOM     12  O   UNL     1      -5.479  -0.121 127.236  0.00  0.00    +0.000 OA
ATOM     13  N   UNL     1      -7.439  -0.351 125.982  0.00  0.00    +0.000 N 
ATOM     14  C   UNL     1      -6.745  -1.127 124.979  0.00  0.00    +0.000 A 
ATOM     15  N   UNL     1      -7.094  -0.905 123.679  0.00  0.00    +0.000 NA
ATOM     16  C   UNL     1      -6.494  -1.634 122.716  0.00  0.00    +0.000 A 
ATOM     17  C   UNL     1      -5.603  -2.652 122.983  0.00  0.00    +0.000 A 
ATOM     18  C   UNL     1      -5.323  -2.936 124.314  0.00  0.00    +0.000 A 
ATOM     19  C   UNL     1      -5.895  -2.164 125.325  0.00  0.00    +0.000 A 
BRANCH  13  20
ATOM     20  C   UNL     1      -8.875  -0.230 125.488  0.00  0.00    +0.000 C 
BRANCH  20  21
ATOM     21  C   UNL     1      -9.270   1.137 125.230  0.00  0.00    +0.000 C 
BRANCH  21  22
ATOM     22  C   UNL     1      -8.713   2.395 124.636  0.00  0.00    +0.000 C 
ATOM     23  O   UNL     1      -8.983   3.500 125.055  0.00  0.00    +0.000 OA
BRANCH  22  24
ATOM     24  O   UNL     1      -7.919   2.172 123.592  0.00  0.00    +0.000 OA
ATOM     25  H   UNL     1      -8.110   1.298 123.219  0.00  0.00    +0.000 HD
ENDBRANCH  22  24
ENDBRANCH  21  22
ENDBRANCH  20  21
ENDBRANCH  13  20
ENDBRANCH   9  11
BRANCH   3  26
ATOM     26  C   UNL     1      -8.501   5.670 131.864  0.00  0.00    +0.000 C 
BRANCH  26  27
ATOM     27  N   UNL     1      -9.888   5.823 132.236  0.00  0.00    +0.000 N 
ATOM     28  H   UNL     1     -10.313   4.910 132.300  0.00  0.00    +0.000 HD
BRANCH  27  29
ATOM     29  C   UNL     1     -10.761   6.485 131.402  0.00  0.00    +0.000 A 
ATOM     30  C   UNL     1     -10.168   7.109 130.310  0.00  0.00    +0.000 A 
ATOM     31  C   UNL     1     -10.925   7.893 129.464  0.00  0.00    +0.000 A 
ATOM     32  C   UNL     1     -12.300   8.020 129.685  0.00  0.00    +0.000 A 
ATOM     33  C   UNL     1     -12.864   7.487 130.852  0.00  0.00    +0.000 A 
ATOM     34  C   UNL     1     -12.084   6.747 131.726  0.00  0.00    +0.000 A 
BRANCH  32  35
ATOM     35  C   UNL     1     -13.145   8.664 128.641  0.00  0.00    +0.000 C 
ATOM     36  N   UNL     1     -13.747   7.926 127.674  0.00  0.00    +0.000 N 
ATOM     37  N   UNL     1     -13.382   9.938 128.601  0.00  0.00    +0.000 NA
ATOM     38  H   UNL     1     -13.786   6.919 127.669  0.00  0.00    +0.000 HD
ATOM     39  H   UNL     1     -14.405   8.418 127.085  0.00  0.00    +0.000 HD
ATOM     40  H   UNL     1     -12.919  10.445 129.355  0.00  0.00    +0.000 HD
ENDBRANCH  32  35
ENDBRANCH  27  29
ENDBRANCH  26  27
ENDBRANCH   3  26
TORSDOF 9
ENDMDL
MODEL 3
REMARK VINA RESULT:      -8.6      4.591      7.941
REMARK  Name = Dabigatran
REMARK  10 active torsions:
REMARK  status: ('A' for Active; 'I' for Inactive)
REMARK    1  A    between atoms: C_1  and  N_2
REMARK    2  A    between atoms: C_3  and  C_4
REMARK    3  A    between atoms: C_4  and  N_5
REMARK    4  A    between atoms: N_5  and  C_6
REMARK    5  A    between atoms: C_9  and  C_12
REMARK    6  A    between atoms: C_20  and  C_22
REMARK    7  A    between atoms: N_24  and  C_25
REMARK    8  A    between atoms: C_25  and  C_26
REMARK    9  A    between atoms: C_26  and  C_27
REMARK   10  A    between atoms: C_27  and  O_28
REMARK                            x       y       z     vdW  Elec       q    Type
REMARK                         _______ _______ _______ _____ _____    ______ ____
ROOT
ATOM      1  C   UNL     1      -4.311   0.409 129.858  0.00  0.00    +0.000 C 
ATOM      2  N   UNL     1      -5.586   0.018 129.259  0.00  0.00    +0.000 N 
ATOM      3  C   UNL     1      -6.712  -0.686 129.562  0.00  0.00    +0.000 A 
ATOM      4  N   UNL     1      -7.624  -0.666 128.587  0.00  0.00    +0.000 NA
ATOM      5  C   UNL     1      -7.108   0.098 127.587  0.00  0.00    +0.000 A 
ATOM      6  C   UNL     1      -5.852   0.471 128.017  0.00  0.00    +0.000 A 
ATOM      7  C   UNL     1      -5.022   1.220 127.328  0.00  0.00    +0.000 A 
ATOM      8  C   UNL     1      -5.607   1.642 126.185  0.00  0.00    +0.000 A 
ATOM      9  C   UNL     1      -6.775   1.372 125.518  0.00  0.00    +0.000 A 
ATOM     10  C   UNL     1      -7.588   0.534 126.300  0.00  0.00    +0.000 A 
ENDROOT
BRANCH   9  11
ATOM     11  C   UNL     1      -7.150   1.927 124.113  0.00  0.00    +0.000 C 
ATOM     12  O   UNL     1      -7.940   1.177 123.517  0.00  0.00    +0.000 OA
ATOM     13  N   UNL     1      -6.656   3.129 123.439  0.00  0.00    +0.000 N 
ATOM     14  C   UNL     1      -7.118   3.418 122.101  0.00  0.00    +0.000 A 
ATOM     15  N   UNL     1      -6.202   3.942 121.235  0.00  0.00    +0.000 NA
ATOM     16  C   UNL     1      -6.603   4.258 119.986  0.00  0.00    +0.000 A 
ATOM     17  C   UNL     1      -7.911   4.155 119.562  0.00  0.00    +0.000 A 
ATOM     18  C   UNL     1      -8.856   3.710 120.478  0.00  0.00    +0.000 A 
ATOM     19  C   UNL     1      -8.457   3.332 121.761  0.00  0.00    +0.000 A 
BRANCH  13  20
ATOM     20  C   UNL     1      -5.685   4.249 123.791  0.00  0.00    +0.000 C 
BRANCH  20  21
ATOM     21  C   UNL     1      -6.115   5.034 124.926  0.00  0.00    +0.000 C 
BRANCH  21  22
ATOM     22  C   UNL     1      -7.243   5.096 125.911  0.00  0.00    +0.000 C 
ATOM     23  O   UNL     1      -7.150   4.687 127.049  0.00  0.00    +0.000 OA
BRANCH  22  24
ATOM     24  O   UNL     1      -8.355   5.618 125.400  0.00  0.00    +0.000 OA
ATOM     25  H   UNL     1      -8.145   6.089 124.579  0.00  0.00    +0.000 HD
ENDBRANCH  22  24
ENDBRANCH  21  22
ENDBRANCH  20  21
ENDBRANCH  13  20
ENDBRANCH   9  11
BRANCH   3  26
ATOM     26  C   UNL     1      -6.909  -1.401 130.827  0.00  0.00    +0.000 C 
BRANCH  26  27
ATOM     27  N   UNL     1      -8.166  -1.065 131.454  0.00  0.00    +0.000 N 
ATOM     28  H   UNL     1      -8.891  -1.056 130.751  0.00  0.00    +0.000 HD
BRANCH  27  29
ATOM     29  C   UNL     1      -8.337   0.162 132.054  0.00  0.00    +0.000 A 
ATOM     30  C   UNL     1      -9.519   0.815 131.724  0.00  0.00    +0.000 A 
ATOM     31  C   UNL     1      -9.751   2.097 132.176  0.00  0.00    +0.000 A 
ATOM     32  C   UNL     1      -8.813   2.718 133.007  0.00  0.00    +0.000 A 
ATOM     33  C   UNL     1      -7.577   2.099 133.237  0.00  0.00    +0.000 A 
ATOM     34  C   UNL     1      -7.329   0.832 132.731  0.00  0.00    +0.000 A 
BRANCH  32  35
ATOM     35  C   UNL     1      -9.176   3.995 133.684  0.00  0.00    +0.000 C 
ATOM     36  N   UNL     1      -8.542   4.392 134.817  0.00  0.00    +0.000 N 
ATOM     37  N   UNL     1     -10.081   4.807 133.234  0.00  0.00    +0.000 NA
ATOM     38  H   UNL     1      -7.718   3.950 135.191  0.00  0.00    +0.000 HD
ATOM     39  H   UNL     1      -8.754   5.326 135.139  0.00  0.00    +0.000 HD
ATOM     40  H   UNL     1     -10.517   4.470 132.377  0.00  0.00    +0.000 HD
ENDBRANCH  32  35
ENDBRANCH  27  29
ENDBRANCH  26  27
ENDBRANCH   3  26
TORSDOF 9
ENDMDL
MODEL 4
REMARK VINA RESULT:      -8.5      4.952      8.859
REMARK  Name = Dabigatran
REMARK  10 active torsions:
REMARK  status: ('A' for Active; 'I' for Inactive)
REMARK    1  A    between atoms: C_1  and  N_2
REMARK    2  A    between atoms: C_3  and  C_4
REMARK    3  A    between atoms: C_4  and  N_5
REMARK    4  A    between atoms: N_5  and  C_6
REMARK    5  A    between atoms: C_9  and  C_12
REMARK    6  A    between atoms: C_20  and  C_22
REMARK    7  A    between atoms: N_24  and  C_25
REMARK    8  A    between atoms: C_25  and  C_26
REMARK    9  A    between atoms: C_26  and  C_27
REMARK   10  A    between atoms: C_27  and  O_28
REMARK                            x       y       z     vdW  Elec       q    Type
REMARK                         _______ _______ _______ _____ _____    ______ ____
ROOT
ATOM      1  C   UNL     1      -9.377  -0.836 123.378  0.00  0.00    +0.000 C 
ATOM      2  N   UNL     1      -8.964  -0.102 124.574  0.00  0.00    +0.000 N 
ATOM      3  C   UNL     1      -8.883   1.175 125.041  0.00  0.00    +0.000 A 
ATOM      4  N   UNL     1      -8.449   1.247 126.302  0.00  0.00    +0.000 NA
ATOM      5  C   UNL     1      -8.244  -0.032 126.717  0.00  0.00    +0.000 A 
ATOM      6  C   UNL     1      -8.537  -0.826 125.628  0.00  0.00    +0.000 A 
ATOM      7  C   UNL     1      -8.460  -2.137 125.621  0.00  0.00    +0.000 A 
ATOM      8  C   UNL     1      -8.140  -2.596 126.852  0.00  0.00    +0.000 A 
ATOM      9  C   UNL     1      -7.749  -2.036 128.041  0.00  0.00    +0.000 A 
ATOM     10  C   UNL     1      -7.819  -0.635 127.955  0.00  0.00    +0.000 A 
ENDROOT
BRANCH   9  11
ATOM     11  C   UNL     1      -7.311  -2.835 129.304  0.00  0.00    +0.000 C 
ATOM     12  O   UNL     1      -7.253  -4.055 129.080  0.00  0.00    +0.000 OA
ATOM     13  N   UNL     1      -7.036  -2.339 130.653  0.00  0.00    +0.000 N 
ATOM     14  C   UNL     1      -6.688  -3.287 131.687  0.00  0.00    +0.000 A 
ATOM     15  N   UNL     1      -7.187  -3.047 132.934  0.00  0.00    +0.000 NA
ATOM     16  C   UNL     1      -6.857  -3.890 133.934  0.00  0.00    +0.000 A 
ATOM     17  C   UNL     1      -5.973  -4.937 133.780  0.00  0.00    +0.000 A 
ATOM     18  C   UNL     1      -5.395  -5.119 132.530  0.00  0.00    +0.000 A 
ATOM     19  C   UNL     1      -5.758  -4.289 131.468  0.00  0.00    +0.000 A 
BRANCH  13  20
ATOM     20  C   UNL     1      -7.038  -0.974 131.329  0.00  0.00    +0.000 C 
BRANCH  20  21
ATOM     21  C   UNL     1      -8.368  -0.451 131.544  0.00  0.00    +0.000 C 
BRANCH  21  22
ATOM     22  C   UNL     1      -9.041   0.760 132.117  0.00  0.00    +0.000 C 
ATOM     23  O   UNL     1     -10.183   1.070 131.850  0.00  0.00    +0.000 OA
BRANCH  22  24
ATOM     24  O   UNL     1      -8.250   1.466 132.921  0.00  0.00    +0.000 OA
ATOM     25  H   UNL     1      -8.297   2.404 132.682  0.00  0.00    +0.000 HD
ENDBRANCH  22  24
ENDBRANCH  21  22
ENDBRANCH  20  21
ENDBRANCH  13  20
ENDBRANCH   9  11
BRANCH   3  26
ATOM     26  C   UNL     1      -9.231   2.356 124.246  0.00  0.00    +0.000 C 
BRANCH  26  27
ATOM     27  N   UNL     1      -8.946   2.175 122.842  0.00  0.00    +0.000 N 
ATOM     28  H   UNL     1      -8.576   1.246 122.701  0.00  0.00    +0.000 HD
BRANCH  27  29
ATOM     29  C   UNL     1      -7.999   2.956 122.219  0.00  0.00    +0.000 A 
ATOM     30  C   UNL     1      -8.382   3.465 120.983  0.00  0.00    +0.000 A 
ATOM     31  C   UNL     1      -7.480   4.171 120.215  0.00  0.00    +0.000 A 
ATOM     32  C   UNL     1      -6.193   4.412 120.707  0.00  0.00    +0.000 A 
ATOM     33  C   UNL     1      -5.782   3.797 121.897  0.00  0.00    +0.000 A 
ATOM     34  C   UNL     1      -6.679   3.041 122.635  0.00  0.00    +0.000 A 
BRANCH  32  35
ATOM     35  C   UNL     1      -5.310   5.372 119.987  0.00  0.00    +0.000 C 
ATOM     36  N   UNL     1      -5.447   5.585 118.653  0.00  0.00    +0.000 N 
ATOM     37  N   UNL     1      -4.391   6.074 120.575  0.00  0.00    +0.000 NA
ATOM     38  H   UNL     1      -6.211   5.237 118.099  0.00  0.00    +0.000 HD
ATOM     39  H   UNL     1      -4.900   6.343 118.267  0.00  0.00    +0.000 HD
ATOM     40  H   UNL     1      -4.338   5.887 121.576  0.00  0.00    +0.000 HD
ENDBRANCH  32  35
ENDBRANCH  27  29
ENDBRANCH  26  27
ENDBRANCH   3  26
TORSDOF 9
ENDMDL
MODEL 5
REMARK VINA RESULT:      -8.5      3.201      9.405
REMARK  Name = Dabigatran
REMARK  10 active torsions:
REMARK  status: ('A' for Active; 'I' for Inactive)
REMARK    1  A    between atoms: C_1  and  N_2
REMARK    2  A    between atoms: C_3  and  C_4
REMARK    3  A    between atoms: C_4  and  N_5
REMARK    4  A    between atoms: N_5  and  C_6
REMARK    5  A    between atoms: C_9  and  C_12
REMARK    6  A    between atoms: C_20  and  C_22
REMARK    7  A    between atoms: N_24  and  C_25
REMARK    8  A    between atoms: C_25  and  C_26
REMARK    9  A    between atoms: C_26  and  C_27
REMARK   10  A    between atoms: C_27  and  O_28
REMARK                            x       y       z     vdW  Elec       q    Type
REMARK                         _______ _______ _______ _____ _____    ______ ____
ROOT
ATOM      1  C   UNL     1      -6.333   2.687 133.934  0.00  0.00    +0.000 C 
ATOM      2  N   UNL     1      -7.476   2.580 133.028  0.00  0.00    +0.000 N 
ATOM      3  C   UNL     1      -8.738   3.070 132.876  0.00  0.00    +0.000 A 
ATOM      4  N   UNL     1      -9.341   2.633 131.767  0.00  0.00    +0.000 NA
ATOM      5  C   UNL     1      -8.448   1.830 131.129  0.00  0.00    +0.000 A 
ATOM      6  C   UNL     1      -7.334   1.795 131.942  0.00  0.00    +0.000 A 
ATOM      7  C   UNL     1      -6.240   1.119 131.676  0.00  0.00    +0.000 A 
ATOM      8  C   UNL     1      -6.330   0.539 130.459  0.00  0.00    +0.000 A 
ATOM      9  C   UNL     1      -7.312   0.372 129.516  0.00  0.00    +0.000 A 
ATOM     10  C   UNL     1      -8.461   1.090 129.892  0.00  0.00    +0.000 A 
ENDROOT
BRANCH   9  11
ATOM     11  C   UNL     1      -7.170  -0.473 128.216  0.00  0.00    +0.000 C 
ATOM     12  O   UNL     1      -6.664   0.185 127.293  0.00  0.00    +0.000 OA
ATOM     13  N   UNL     1      -7.595  -1.851 127.967  0.00  0.00    +0.000 N 
ATOM     14  C   UNL     1      -7.398  -2.414 126.650  0.00  0.00    +0.000 A 
ATOM     15  N   UNL     1      -8.382  -3.232 126.178  0.00  0.00    +0.000 NA
ATOM     16  C   UNL     1      -8.220  -3.805 124.967  0.00  0.00    +0.000 A 
ATOM     17  C   UNL     1      -7.072  -3.671 124.215  0.00  0.00    +0.000 A 
ATOM     18  C   UNL     1      -6.035  -2.913 124.744  0.00  0.00    +0.000 A 
ATOM     19  C   UNL     1      -6.199  -2.272 125.973  0.00  0.00    +0.000 A 
BRANCH  13  20
ATOM     20  C   UNL     1      -8.268  -2.945 128.786  0.00  0.00    +0.000 C 
BRANCH  20  21
ATOM     21  C   UNL     1      -7.427  -3.456 129.845  0.00  0.00    +0.000 C 
BRANCH  21  22
ATOM     22  C   UNL     1      -5.973  -3.630 130.167  0.00  0.00    +0.000 C 
ATOM     23  O   UNL     1      -5.179  -2.714 130.154  0.00  0.00    +0.000 OA
BRANCH  22  24
ATOM     24  O   UNL     1      -5.646  -4.891 130.439  0.00  0.00    +0.000 OA
ATOM     25  H   UNL     1      -5.026  -5.218 129.770  0.00  0.00    +0.000 HD
ENDBRANCH  22  24
ENDBRANCH  21  22
ENDBRANCH  20  21
ENDBRANCH  13  20
ENDBRANCH   9  11
BRANCH   3  26
ATOM     26  C   UNL     1      -9.379   3.981 133.829  0.00  0.00    +0.000 C 
BRANCH  26  27
ATOM     27  N   UNL     1      -9.100   5.366 133.533  0.00  0.00    +0.000 N 
ATOM     28  H   UNL     1      -9.530   5.945 134.240  0.00  0.00    +0.000 HD
BRANCH  27  29
ATOM     29  C   UNL     1      -9.573   5.937 132.373  0.00  0.00    +0.000 A 
ATOM     30  C   UNL     1      -8.594   6.467 131.541  0.00  0.00    +0.000 A 
ATOM     31  C   UNL     1      -8.952   7.161 130.404  0.00  0.00    +0.000 A 
ATOM     32  C   UNL     1     -10.303   7.288 130.068  0.00  0.00    +0.000 A 
ATOM     33  C   UNL     1     -11.283   6.854 130.972  0.00  0.00    +0.000 A 
ATOM     34  C   UNL     1     -10.913   6.207 132.141  0.00  0.00    +0.000 A 
BRANCH  32  35
ATOM     35  C   UNL     1     -10.671   7.822 128.727  0.00  0.00    +0.000 C 
ATOM     36  N   UNL     1     -11.521   8.872 128.600  0.00  0.00    +0.000 N 
ATOM     37  N   UNL     1     -10.194   7.351 127.617  0.00  0.00    +0.000 NA
ATOM     38  H   UNL     1     -11.843   9.438 129.369  0.00  0.00    +0.000 HD
ATOM     39  H   UNL     1     -11.617   9.256 127.670  0.00  0.00    +0.000 HD
ATOM     40  H   UNL     1      -9.551   6.574 127.767  0.00  0.00    +0.000 HD
ENDBRANCH  32  35
ENDBRANCH  27  29
ENDBRANCH  26  27
ENDBRANCH   3  26
TORSDOF 9
ENDMDL
MODEL 6
REMARK VINA RESULT:      -8.5      2.888      8.742
REMARK  Name = Dabigatran
REMARK  10 active torsions:
REMARK  status: ('A' for Active; 'I' for Inactive)
REMARK    1  A    between atoms: C_1  and  N_2
REMARK    2  A    between atoms: C_3  and  C_4
REMARK    3  A    between atoms: C_4  and  N_5
REMARK    4  A    between atoms: N_5  and  C_6
REMARK    5  A    between atoms: C_9  and  C_12
REMARK    6  A    between atoms: C_20  and  C_22
REMARK    7  A    between atoms: N_24  and  C_25
REMARK    8  A    between atoms: C_25  and  C_26
REMARK    9  A    between atoms: C_26  and  C_27
REMARK   10  A    between atoms: C_27  and  O_28
REMARK                            x       y       z     vdW  Elec       q    Type
REMARK                         _______ _______ _______ _____ _____    ______ ____
ROOT
ATOM      1  C   UNL     1      -5.347   4.171 131.872  0.00  0.00    +0.000 C 
ATOM      2  N   UNL     1      -6.663   3.543 131.755  0.00  0.00    +0.000 N 
ATOM      3  C   UNL     1      -7.891   3.573 132.343  0.00  0.00    +0.000 A 
ATOM      4  N   UNL     1      -8.778   2.770 131.748  0.00  0.00    +0.000 NA
ATOM      5  C   UNL     1      -8.134   2.185 130.703  0.00  0.00    +0.000 A 
ATOM      6  C   UNL     1      -6.839   2.655 130.756  0.00  0.00    +0.000 A 
ATOM      7  C   UNL     1      -5.890   2.320 129.911  0.00  0.00    +0.000 A 
ATOM      8  C   UNL     1      -6.388   1.526 128.937  0.00  0.00    +0.000 A 
ATOM      9  C   UNL     1      -7.577   0.885 128.699  0.00  0.00    +0.000 A 
ATOM     10  C   UNL     1      -8.524   1.262 129.667  0.00  0.00    +0.000 A 
ENDROOT
BRANCH   9  11
ATOM     11  C   UNL     1      -7.842  -0.098 127.521  0.00  0.00    +0.000 C 
ATOM     12  O   UNL     1      -7.472  -1.251 127.791  0.00  0.00    +0.000 OA
ATOM     13  N   UNL     1      -8.392   0.188 126.194  0.00  0.00    +0.000 N 
ATOM     14  C   UNL     1      -8.502  -0.891 125.239  0.00  0.00    +0.000 A 
ATOM     15  N   UNL     1      -8.230  -0.588 123.937  0.00  0.00    +0.000 NA
ATOM     16  C   UNL     1      -8.356  -1.559 123.009  0.00  0.00    +0.000 A 
ATOM     17  C   UNL     1      -8.824  -2.824 123.296  0.00  0.00    +0.000 A 
ATOM     18  C   UNL     1      -9.189  -3.098 124.608  0.00  0.00    +0.000 A 
ATOM     19  C   UNL     1      -9.023  -2.124 125.594  0.00  0.00    +0.000 A 
BRANCH  13  20
ATOM     20  C   UNL     1      -8.906   1.429 125.477  0.00  0.00    +0.000 C 
BRANCH  20  21
ATOM     21  C   UNL     1      -8.008   2.557 125.583  0.00  0.00    +0.000 C 
BRANCH  21  22
ATOM     22  C   UNL     1      -8.009   3.976 126.062  0.00  0.00    +0.000 C 
ATOM     23  O   UNL     1      -7.206   4.405 126.863  0.00  0.00    +0.000 OA
BRANCH  22  24
ATOM     24  O   UNL     1      -8.994   4.704 125.539  0.00  0.00    +0.000 OA
ATOM     25  H   UNL     1      -8.757   4.970 124.638  0.00  0.00    +0.000 HD
ENDBRANCH  22  24
ENDBRANCH  21  22
ENDBRANCH  20  21
ENDBRANCH  13  20
ENDBRANCH   9  11
BRANCH   3  26
ATOM     26  C   UNL     1      -8.215   4.396 133.512  0.00  0.00    +0.000 C 
BRANCH  26  27
ATOM     27  N   UNL     1      -8.365   5.791 133.173  0.00  0.00    +0.000 N 
ATOM     28  H   UNL     1      -8.766   6.278 133.961  0.00  0.00    +0.000 HD
BRANCH  27  29
ATOM     29  C   UNL     1      -9.201   6.171 132.148  0.00  0.00    +0.000 A 
ATOM     30  C   UNL     1      -8.576   6.838 131.100  0.00  0.00    +0.000 A 
ATOM     31  C   UNL     1      -9.326   7.363 130.068  0.00  0.00    +0.000 A 
ATOM     32  C   UNL     1     -10.712   7.181 130.058  0.00  0.00    +0.000 A 
ATOM     33  C   UNL     1     -11.342   6.614 131.174  0.00  0.00    +0.000 A 
ATOM     34  C   UNL     1     -10.585   6.139 132.233  0.00  0.00    +0.000 A 
BRANCH  32  35
ATOM     35  C   UNL     1     -11.481   7.536 128.833  0.00  0.00    +0.000 C 
ATOM     36  N   UNL     1     -11.385   8.771 128.278  0.00  0.00    +0.000 N 
ATOM     37  N   UNL     1     -12.254   6.701 128.210  0.00  0.00    +0.000 NA
ATOM     38  H   UNL     1     -10.711   9.466 128.554  0.00  0.00    +0.000 HD
ATOM     39  H   UNL     1     -11.834   8.891 127.380  0.00  0.00    +0.000 HD
ATOM     40  H   UNL     1     -12.281   5.786 128.658  0.00  0.00    +0.000 HD
ENDBRANCH  32  35
ENDBRANCH  27  29
ENDBRANCH  26  27
ENDBRANCH   3  26
TORSDOF 9
ENDMDL
MODEL 7
REMARK VINA RESULT:      -8.3      4.519      9.749
REMARK  Name = Dabigatran
REMARK  10 active torsions:
REMARK  status: ('A' for Active; 'I' for Inactive)
REMARK    1  A    between atoms: C_1  and  N_2
REMARK    2  A    between atoms: C_3  and  C_4
REMARK    3  A    between atoms: C_4  and  N_5
REMARK    4  A    between atoms: N_5  and  C_6
REMARK    5  A    between atoms: C_9  and  C_12
REMARK    6  A    between atoms: C_20  and  C_22
REMARK    7  A    between atoms: N_24  and  C_25
REMARK    8  A    between atoms: C_25  and  C_26
REMARK    9  A    between atoms: C_26  and  C_27
REMARK   10  A    between atoms: C_27  and  O_28
REMARK                            x       y       z     vdW  Elec       q    Type
REMARK                         _______ _______ _______ _____ _____    ______ ____
ROOT
ATOM      1  C   UNL     1      -2.648   5.965 127.838  0.00  0.00    +0.000 C 
ATOM      2  N   UNL     1      -3.275   4.881 128.592  0.00  0.00    +0.000 N 
ATOM      3  C   UNL     1      -3.553   4.527 129.878  0.00  0.00    +0.000 A 
ATOM      4  N   UNL     1      -4.230   3.379 129.973  0.00  0.00    +0.000 NA
ATOM      5  C   UNL     1      -4.439   2.945 128.701  0.00  0.00    +0.000 A 
ATOM      6  C   UNL     1      -3.816   3.868 127.888  0.00  0.00    +0.000 A 
ATOM      7  C   UNL     1      -3.787   3.803 126.576  0.00  0.00    +0.000 A 
ATOM      8  C   UNL     1      -4.527   2.759 126.140  0.00  0.00    +0.000 A 
ATOM      9  C   UNL     1      -5.168   1.695 126.721  0.00  0.00    +0.000 A 
ATOM     10  C   UNL     1      -5.119   1.814 128.120  0.00  0.00    +0.000 A 
ENDROOT
BRANCH   9  11
ATOM     11  C   UNL     1      -5.862   0.537 125.945  0.00  0.00    +0.000 C 
ATOM     12  O   UNL     1      -5.086  -0.409 125.738  0.00  0.00    +0.000 OA
ATOM     13  N   UNL     1      -7.225   0.476 125.415  0.00  0.00    +0.000 N 
ATOM     14  C   UNL     1      -7.635  -0.698 124.678  0.00  0.00    +0.000 A 
ATOM     15  N   UNL     1      -8.446  -0.494 123.600  0.00  0.00    +0.000 NA
ATOM     16  C   UNL     1      -8.878  -1.568 122.906  0.00  0.00    +0.000 A 
ATOM     17  C   UNL     1      -8.609  -2.868 123.278  0.00  0.00    +0.000 A 
ATOM     18  C   UNL     1      -7.861  -3.070 124.431  0.00  0.00    +0.000 A 
ATOM     19  C   UNL     1      -7.363  -1.975 125.138  0.00  0.00    +0.000 A 
BRANCH  13  20
ATOM     20  C   UNL     1      -8.431   1.406 125.412  0.00  0.00    +0.000 C 
BRANCH  20  21
ATOM     21  C   UNL     1      -8.151   2.694 124.819  0.00  0.00    +0.000 C 
BRANCH  21  22
ATOM     22  C   UNL     1      -7.577   3.271 123.561  0.00  0.00    +0.000 C 
ATOM     23  O   UNL     1      -6.387   3.428 123.388  0.00  0.00    +0.000 OA
BRANCH  22  24
ATOM     24  O   UNL     1      -8.506   3.615 122.671  0.00  0.00    +0.000 OA
ATOM     25  H   UNL     1      -9.025   4.357 123.015  0.00  0.00    +0.000 HD
ENDBRANCH  22  24
ENDBRANCH  21  22
ENDBRANCH  20  21
ENDBRANCH  13  20
ENDBRANCH   9  11
BRANCH   3  26
ATOM     26  C   UNL     1      -3.149   5.316 131.046  0.00  0.00    +0.000 C 
BRANCH  26  27
ATOM     27  N   UNL     1      -4.061   6.404 131.312  0.00  0.00    +0.000 N 
ATOM     28  H   UNL     1      -3.674   6.984 132.042  0.00  0.00    +0.000 HD
BRANCH  27  29
ATOM     29  C   UNL     1      -5.326   6.148 131.792  0.00  0.00    +0.000 A 
ATOM     30  C   UNL     1      -6.353   6.774 131.096  0.00  0.00    +0.000 A 
ATOM     31  C   UNL     1      -7.653   6.682 131.547  0.00  0.00    +0.000 A 
ATOM     32  C   UNL     1      -7.938   5.917 132.683  0.00  0.00    +0.000 A 
ATOM     33  C   UNL     1      -6.884   5.390 133.442  0.00  0.00    +0.000 A 
ATOM     34  C   UNL     1      -5.575   5.535 133.011  0.00  0.00    +0.000 A 
BRANCH  32  35
ATOM     35  C   UNL     1      -9.358   5.625 133.023  0.00  0.00    +0.000 C 
ATOM     36  N   UNL     1      -9.697   4.505 133.713  0.00  0.00    +0.000 N 
ATOM     37  N   UNL     1     -10.341   6.412 132.715  0.00  0.00    +0.000 NA
ATOM     38  H   UNL     1      -9.035   3.888 134.153  0.00  0.00    +0.000 HD
ATOM     39  H   UNL     1     -10.660   4.445 134.015  0.00  0.00    +0.000 HD
ATOM     40  H   UNL     1     -10.033   7.243 132.211  0.00  0.00    +0.000 HD
ENDBRANCH  32  35
ENDBRANCH  27  29
ENDBRANCH  26  27
ENDBRANCH   3  26
TORSDOF 9
ENDMDL
MODEL 8
REMARK VINA RESULT:      -8.1      4.337      9.953
REMARK  Name = Dabigatran
REMARK  10 active torsions:
REMARK  status: ('A' for Active; 'I' for Inactive)
REMARK    1  A    between atoms: C_1  and  N_2
REMARK    2  A    between atoms: C_3  and  C_4
REMARK    3  A    between atoms: C_4  and  N_5
REMARK    4  A    between atoms: N_5  and  C_6
REMARK    5  A    between atoms: C_9  and  C_12
REMARK    6  A    between atoms: C_20  and  C_22
REMARK    7  A    between atoms: N_24  and  C_25
REMARK    8  A    between atoms: C_25  and  C_26
REMARK    9  A    between atoms: C_26  and  C_27
REMARK   10  A    between atoms: C_27  and  O_28
REMARK                            x       y       z     vdW  Elec       q    Type
REMARK                         _______ _______ _______ _____ _____    ______ ____
ROOT
ATOM      1  C   UNL     1      -2.469   5.919 128.094  0.00  0.00    +0.000 C 
ATOM      2  N   UNL     1      -3.148   4.901 128.893  0.00  0.00    +0.000 N 
ATOM      3  C   UNL     1      -3.501   4.648 130.184  0.00  0.00    +0.000 A 
ATOM      4  N   UNL     1      -4.193   3.515 130.329  0.00  0.00    +0.000 NA
ATOM      5  C   UNL     1      -4.334   2.984 129.085  0.00  0.00    +0.000 A 
ATOM      6  C   UNL     1      -3.657   3.838 128.239  0.00  0.00    +0.000 A 
ATOM      7  C   UNL     1      -3.555   3.671 126.940  0.00  0.00    +0.000 A 
ATOM      8  C   UNL     1      -4.278   2.600 126.545  0.00  0.00    +0.000 A 
ATOM      9  C   UNL     1      -4.960   1.586 127.169  0.00  0.00    +0.000 A 
ATOM     10  C   UNL     1      -4.989   1.814 128.555  0.00  0.00    +0.000 A 
ENDROOT
BRANCH   9  11
ATOM     11  C   UNL     1      -5.619   0.375 126.446  0.00  0.00    +0.000 C 
ATOM     12  O   UNL     1      -5.836   0.616 125.248  0.00  0.00    +0.000 OA
ATOM     13  N   UNL     1      -6.037  -0.911 127.007  0.00  0.00    +0.000 N 
ATOM     14  C   UNL     1      -6.678  -1.874 126.141  0.00  0.00    +0.000 A 
ATOM     15  N   UNL     1      -7.699  -2.601 126.680  0.00  0.00    +0.000 NA
ATOM     16  C   UNL     1      -8.301  -3.535 125.914  0.00  0.00    +0.000 A 
ATOM     17  C   UNL     1      -7.883  -3.850 124.638  0.00  0.00    +0.000 A 
ATOM     18  C   UNL     1      -6.783  -3.171 124.130  0.00  0.00    +0.000 A 
ATOM     19  C   UNL     1      -6.175  -2.168 124.885  0.00  0.00    +0.000 A 
BRANCH  13  20
ATOM     20  C   UNL     1      -5.994  -1.560 128.385  0.00  0.00    +0.000 C 
BRANCH  20  21
ATOM     21  C   UNL     1      -4.684  -2.061 128.733  0.00  0.00    +0.000 C 
BRANCH  21  22
ATOM     22  C   UNL     1      -3.786  -2.179 129.927  0.00  0.00    +0.000 C 
ATOM     23  O   UNL     1      -4.190  -2.104 131.067  0.00  0.00    +0.000 OA
BRANCH  22  24
ATOM     24  O   UNL     1      -2.505  -2.346 129.603  0.00  0.00    +0.000 OA
ATOM     25  H   UNL     1      -1.944  -2.015 130.320  0.00  0.00    +0.000 HD
ENDBRANCH  22  24
ENDBRANCH  21  22
ENDBRANCH  20  21
ENDBRANCH  13  20
ENDBRANCH   9  11
BRANCH   3  26
ATOM     26  C   UNL     1      -3.157   5.524 131.309  0.00  0.00    +0.000 C 
BRANCH  26  27
ATOM     27  N   UNL     1      -4.127   6.577 131.497  0.00  0.00    +0.000 N 
ATOM     28  H   UNL     1      -3.799   7.198 132.223  0.00  0.00    +0.000 HD
BRANCH  27  29
ATOM     29  C   UNL     1      -5.400   6.280 131.930  0.00  0.00    +0.000 A 
ATOM     30  C   UNL     1      -6.421   6.772 131.125  0.00  0.00    +0.000 A 
ATOM     31  C   UNL     1      -7.737   6.632 131.513  0.00  0.00    +0.000 A 
ATOM     32  C   UNL     1      -8.041   5.952 132.697  0.00  0.00    +0.000 A 
ATOM     33  C   UNL     1      -7.004   5.566 133.556  0.00  0.00    +0.000 A 
ATOM     34  C   UNL     1      -5.683   5.761 133.185  0.00  0.00    +0.000 A 
BRANCH  32  35
ATOM     35  C   UNL     1      -9.458   5.595 132.985  0.00  0.00    +0.000 C 
ATOM     36  N   UNL     1      -9.777   4.417 133.578  0.00  0.00    +0.000 N 
ATOM     37  N   UNL     1     -10.458   6.377 132.721  0.00  0.00    +0.000 NA
ATOM     38  H   UNL     1      -9.105   3.784 133.982  0.00  0.00    +0.000 HD
ATOM     39  H   UNL     1     -10.742   4.307 133.857  0.00  0.00    +0.000 HD
ATOM     40  H   UNL     1     -10.165   7.253 132.289  0.00  0.00    +0.000 HD
ENDBRANCH  32  35
ENDBRANCH  27  29
ENDBRANCH  26  27
ENDBRANCH   3  26
TORSDOF 9
ENDMDL
MODEL 9
REMARK VINA RESULT:      -8.0      4.654      6.493
REMARK  Name = Dabigatran
REMARK  10 active torsions:
REMARK  status: ('A' for Active; 'I' for Inactive)
REMARK    1  A    between atoms: C_1  and  N_2
REMARK    2  A    between atoms: C_3  and  C_4
REMARK    3  A    between atoms: C_4  and  N_5
REMARK    4  A    between atoms: N_5  and  C_6
REMARK    5  A    between atoms: C_9  and  C_12
REMARK    6  A    between atoms: C_20  and  C_22
REMARK    7  A    between atoms: N_24  and  C_25
REMARK    8  A    between atoms: C_25  and  C_26
REMARK    9  A    between atoms: C_26  and  C_27
REMARK   10  A    between atoms: C_27  and  O_28
REMARK                            x       y       z     vdW  Elec       q    Type
REMARK                         _______ _______ _______ _____ _____    ______ ____
ROOT
ATOM      1  C   UNL     1      -7.863  -1.480 125.407  0.00  0.00    +0.000 C 
ATOM      2  N   UNL     1      -8.134  -0.055 125.589  0.00  0.00    +0.000 N 
ATOM      3  C   UNL     1      -8.557   1.028 124.879  0.00  0.00    +0.000 A 
ATOM      4  N   UNL     1      -8.672   2.132 125.621  0.00  0.00    +0.000 NA
ATOM      5  C   UNL     1      -8.332   1.784 126.891  0.00  0.00    +0.000 A 
ATOM      6  C   UNL     1      -7.980   0.452 126.828  0.00  0.00    +0.000 A 
ATOM      7  C   UNL     1      -7.584  -0.262 127.858  0.00  0.00    +0.000 A 
ATOM      8  C   UNL     1      -7.658   0.468 128.993  0.00  0.00    +0.000 A 
ATOM      9  C   UNL     1      -7.904   1.780 129.306  0.00  0.00    +0.000 A 
ATOM     10  C   UNL     1      -8.279   2.485 128.150  0.00  0.00    +0.000 A 
ENDROOT
BRANCH   9  11
ATOM     11  C   UNL     1      -7.801   2.393 130.734  0.00  0.00    +0.000 C 
ATOM     12  O   UNL     1      -7.808   1.516 131.613  0.00  0.00    +0.000 OA
ATOM     13  N   UNL     1      -7.758   3.802 131.127  0.00  0.00    +0.000 N 
ATOM     14  C   UNL     1      -7.710   4.133 132.533  0.00  0.00    +0.000 A 
ATOM     15  N   UNL     1      -8.425   5.224 132.932  0.00  0.00    +0.000 NA
ATOM     16  C   UNL     1      -8.378   5.587 134.231  0.00  0.00    +0.000 A 
ATOM     17  C   UNL     1      -7.578   4.959 135.162  0.00  0.00    +0.000 A 
ATOM     18  C   UNL     1      -6.780   3.908 134.729  0.00  0.00    +0.000 A 
ATOM     19  C   UNL     1      -6.848   3.485 133.401  0.00  0.00    +0.000 A 
BRANCH  13  20
ATOM     20  C   UNL     1      -7.773   5.135 130.389  0.00  0.00    +0.000 C 
BRANCH  20  21
ATOM     21  C   UNL     1      -9.100   5.546 129.990  0.00  0.00    +0.000 C 
BRANCH  21  22
ATOM     22  C   UNL     1      -9.765   6.529 129.075  0.00  0.00    +0.000 C 
ATOM     23  O   UNL     1     -10.339   7.520 129.474  0.00  0.00    +0.000 OA
BRANCH  22  24
ATOM     24  O   UNL     1      -9.682   6.187 127.791  0.00  0.00    +0.000 OA
ATOM     25  H   UNL     1      -9.360   6.941 127.275  0.00  0.00    +0.000 HD
ENDBRANCH  22  24
ENDBRANCH  21  22
ENDBRANCH  20  21
ENDBRANCH  13  20
ENDBRANCH   9  11
BRANCH   3  26
ATOM     26  C   UNL     1      -8.855   0.995 123.443  0.00  0.00    +0.000 C 
BRANCH  26  27
ATOM     27  N   UNL     1      -9.185   2.300 122.923  0.00  0.00    +0.000 N 
ATOM     28  H   UNL     1      -9.931   2.206 122.250  0.00  0.00    +0.000 HD
BRANCH  27  29
ATOM     29  C   UNL     1      -8.252   3.022 122.214  0.00  0.00    +0.000 A 
ATOM     30  C   UNL     1      -8.685   3.483 120.976  0.00  0.00    +0.000 A 
ATOM     31  C   UNL     1      -7.806   4.124 120.129  0.00  0.00    +0.000 A 
ATOM     32  C   UNL     1      -6.489   4.349 120.540  0.00  0.00    +0.000 A 
ATOM     33  C   UNL     1      -6.032   3.778 121.736  0.00  0.00    +0.000 A 
ATOM     34  C   UNL     1      -6.909   3.086 122.556  0.00  0.00    +0.000 A 
BRANCH  32  35
ATOM     35  C   UNL     1      -5.619   5.246 119.729  0.00  0.00    +0.000 C 
ATOM     36  N   UNL     1      -5.815   5.392 118.394  0.00  0.00    +0.000 N 
ATOM     37  N   UNL     1      -4.657   5.953 120.234  0.00  0.00    +0.000 NA
ATOM     38  H   UNL     1      -6.614   5.035 117.895  0.00  0.00    +0.000 HD
ATOM     39  H   UNL     1      -5.270   6.113 117.941  0.00  0.00    +0.000 HD
ATOM     40  H   UNL     1      -4.559   5.818 121.240  0.00  0.00    +0.000 HD
ENDBRANCH  32  35
ENDBRANCH  27  29
ENDBRANCH  26  27
ENDBRANCH   3  26
TORSDOF 9
ENDMDL
