MODEL 1
REMARK VINA RESULT:      -5.3      0.000      0.000
REMARK  Name = Dacarbazine
REMARK  5 active torsions:
REMARK  status: ('A' for Active; 'I' for Inactive)
REMARK    1  A    between atoms: C_1  and  N_2
REMARK    2  A    between atoms: N_2  and  C_3
REMARK    3  A    between atoms: N_2  and  N_4
REMARK    4  A    between atoms: N_5  and  C_6
REMARK    5  A    between atoms: C_7  and  C_11
REMARK                            x       y       z     vdW  Elec       q    Type
REMARK                         _______ _______ _______ _____ _____    ______ ____
ROOT
ATOM      1  C   UNL     1     -10.351   7.676 129.545  0.00  0.00    +0.000 A 
ATOM      2  C   UNL     1     -11.684   7.522 129.933  0.00  0.00    +0.000 A 
ATOM      3  N   UNL     1     -12.530   8.012 128.940  0.00  0.00    +0.000 NA
ATOM      4  C   UNL     1     -11.748   8.473 127.997  0.00  0.00    +0.000 A 
ATOM      5  N   UNL     1     -10.434   8.326 128.332  0.00  0.00    +0.000 N 
ATOM      6  H   UNL     1      -9.651   8.619 127.766  0.00  0.00    +0.000 HD
ENDROOT
BRANCH   2   7
ATOM      7  C   UNL     1     -12.203   6.953 131.180  0.00  0.00    +0.000 C 
ATOM      8  N   UNL     1     -11.411   6.033 131.809  0.00  0.00    +0.000 N 
ATOM      9  O   UNL     1     -13.285   7.260 131.680  0.00  0.00    +0.000 OA
ATOM     10  H   UNL     1     -10.568   5.677 131.370  0.00  0.00    +0.000 HD
ATOM     11  H   UNL     1     -11.783   5.558 132.617  0.00  0.00    +0.000 HD
ENDBRANCH   2   7
BRANCH   1  13
ATOM     12  N   UNL     1      -8.780   6.185 129.925  0.00  0.00    +0.000 NA
ATOM     13  N   UNL     1      -9.136   7.375 130.091  0.00  0.00    +0.000 NA
BRANCH  12  15
ATOM     14  C   UNL     1      -6.838   6.873 131.181  0.00  0.00    +0.000 C 
ATOM     15  N   UNL     1      -7.646   5.810 130.601  0.00  0.00    +0.000 N 
ATOM     16  C   UNL     1      -7.283   4.425 130.842  0.00  0.00    +0.000 C 
ENDBRANCH  12  15
ENDBRANCH   1  13
TORSDOF 3
ENDMDL
MODEL 2
REMARK VINA RESULT:      -4.7      1.816      1.994
REMARK  Name = Dacarbazine
REMARK  5 active torsions:
REMARK  status: ('A' for Active; 'I' for Inactive)
REMARK    1  A    between atoms: C_1  and  N_2
REMARK    2  A    between atoms: N_2  and  C_3
REMARK    3  A    between atoms: N_2  and  N_4
REMARK    4  A    between atoms: N_5  and  C_6
REMARK    5  A    between atoms: C_7  and  C_11
REMARK                            x       y       z     vdW  Elec       q    Type
REMARK                         _______ _______ _______ _____ _____    ______ ____
ROOT
ATOM      1  C   UNL     1      -9.847   7.075 129.768  0.00  0.00    +0.000 A 
ATOM      2  C   UNL     1     -10.811   6.066 129.686  0.00  0.00    +0.000 A 
ATOM      3  N   UNL     1     -11.742   6.374 128.696  0.00  0.00    +0.000 NA
ATOM      4  C   UNL     1     -11.381   7.535 128.212  0.00  0.00    +0.000 A 
ATOM      5  N   UNL     1     -10.272   8.010 128.848  0.00  0.00    +0.000 N 
ATOM      6  H   UNL     1      -9.820   8.891 128.654  0.00  0.00    +0.000 HD
ENDROOT
BRANCH   2   7
ATOM      7  C   UNL     1     -10.909   4.842 130.487  0.00  0.00    +0.000 C 
ATOM      8  N   UNL     1     -10.357   4.884 131.738  0.00  0.00    +0.000 N 
ATOM      9  O   UNL     1     -11.458   3.810 130.103  0.00  0.00    +0.000 OA
ATOM     10  H   UNL     1      -9.804   5.678 132.041  0.00  0.00    +0.000 HD
ATOM     11  H   UNL     1     -10.328   4.030 132.273  0.00  0.00    +0.000 HD
ENDBRANCH   2   7
BRANCH   1  13
ATOM     12  N   UNL     1      -7.815   6.457 130.336  0.00  0.00    +0.000 NA
ATOM     13  N   UNL     1      -8.728   7.295 130.518  0.00  0.00    +0.000 NA
BRANCH  12  15
ATOM     14  C   UNL     1      -6.891   5.940 132.504  0.00  0.00    +0.000 C 
ATOM     15  N   UNL     1      -6.746   6.554 131.192  0.00  0.00    +0.000 N 
ATOM     16  C   UNL     1      -5.473   7.140 130.814  0.00  0.00    +0.000 C 
ENDBRANCH  12  15
ENDBRANCH   1  13
TORSDOF 3
ENDMDL
MODEL 3
REMARK VINA RESULT:      -4.7      2.450      3.545
REMARK  Name = Dacarbazine
REMARK  5 active torsions:
REMARK  status: ('A' for Active; 'I' for Inactive)
REMARK    1  A    between atoms: C_1  and  N_2
REMARK    2  A    between atoms: N_2  and  C_3
REMARK    3  A    between atoms: N_2  and  N_4
REMARK    4  A    between atoms: N_5  and  C_6
REMARK    5  A    between atoms: C_7  and  C_11
REMARK                            x       y       z     vdW  Elec       q    Type
REMARK                         _______ _______ _______ _____ _____    ______ ____
ROOT
ATOM      1  C   UNL     1     -10.988   6.065 130.614  0.00  0.00    +0.000 A 
ATOM      2  C   UNL     1     -11.250   7.107 129.720  0.00  0.00    +0.000 A 
ATOM      3  N   UNL     1     -12.306   7.885 130.191  0.00  0.00    +0.000 NA
ATOM      4  C   UNL     1     -12.693   7.328 131.309  0.00  0.00    +0.000 A 
ATOM      5  N   UNL     1     -11.955   6.213 131.585  0.00  0.00    +0.000 N 
ATOM      6  H   UNL     1     -12.081   5.614 132.387  0.00  0.00    +0.000 HD
ENDROOT
BRANCH   2   7
ATOM      7  C   UNL     1     -10.575   7.403 128.453  0.00  0.00    +0.000 C 
ATOM      8  N   UNL     1     -10.637   8.697 128.015  0.00  0.00    +0.000 N 
ATOM      9  O   UNL     1      -9.964   6.568 127.787  0.00  0.00    +0.000 OA
ATOM     10  H   UNL     1     -11.221   9.382 128.482  0.00  0.00    +0.000 HD
ATOM     11  H   UNL     1     -10.262   8.908 127.104  0.00  0.00    +0.000 HD
ENDBRANCH   2   7
BRANCH   1  13
ATOM     12  N   UNL     1     -10.501   3.966 130.177  0.00  0.00    +0.000 NA
ATOM     13  N   UNL     1     -10.091   5.038 130.678  0.00  0.00    +0.000 NA
BRANCH  12  15
ATOM     14  C   UNL     1      -9.831   2.163 131.633  0.00  0.00    +0.000 C 
ATOM     15  N   UNL     1      -9.691   2.876 130.372  0.00  0.00    +0.000 N 
ATOM     16  C   UNL     1      -8.795   2.357 129.354  0.00  0.00    +0.000 C 
ENDBRANCH  12  15
ENDBRANCH   1  13
TORSDOF 3
ENDMDL
MODEL 4
REMARK VINA RESULT:      -4.6      2.052      3.085
REMARK  Name = Dacarbazine
REMARK  5 active torsions:
REMARK  status: ('A' for Active; 'I' for Inactive)
REMARK    1  A    between atoms: C_1  and  N_2
REMARK    2  A    between atoms: N_2  and  C_3
REMARK    3  A    between atoms: N_2  and  N_4
REMARK    4  A    between atoms: N_5  and  C_6
REMARK    5  A    between atoms: C_7  and  C_11
REMARK                            x       y       z     vdW  Elec       q    Type
REMARK                         _______ _______ _______ _____ _____    ______ ____
ROOT
ATOM      1  C   UNL     1     -10.735   6.558 130.951  0.00  0.00    +0.000 A 
ATOM      2  C   UNL     1     -11.241   7.203 129.820  0.00  0.00    +0.000 A 
ATOM      3  N   UNL     1     -12.552   7.612 130.050  0.00  0.00    +0.000 NA
ATOM      4  C   UNL     1     -12.848   7.209 131.259  0.00  0.00    +0.000 A 
ATOM      5  N   UNL     1     -11.802   6.540 131.824  0.00  0.00    +0.000 N 
ATOM      6  H   UNL     1     -11.801   6.128 132.745  0.00  0.00    +0.000 HD
ENDROOT
BRANCH   2   7
ATOM      7  C   UNL     1     -10.567   7.447 128.540  0.00  0.00    +0.000 C 
ATOM      8  N   UNL     1     -10.647   8.717 128.039  0.00  0.00    +0.000 N 
ATOM      9  O   UNL     1      -9.942   6.590 127.917  0.00  0.00    +0.000 OA
ATOM     10  H   UNL     1     -11.243   9.416 128.471  0.00  0.00    +0.000 HD
ATOM     11  H   UNL     1     -10.273   8.889 127.119  0.00  0.00    +0.000 HD
ENDBRANCH   2   7
BRANCH   1  13
ATOM     12  N   UNL     1      -9.088   6.366 132.395  0.00  0.00    +0.000 NA
ATOM     13  N   UNL     1      -9.546   5.981 131.294  0.00  0.00    +0.000 NA
BRANCH  12  15
ATOM     14  C   UNL     1      -7.682   4.988 133.789  0.00  0.00    +0.000 C 
ATOM     15  N   UNL     1      -7.820   5.933 132.690  0.00  0.00    +0.000 N 
ATOM     16  C   UNL     1      -6.652   6.289 131.904  0.00  0.00    +0.000 C 
ENDBRANCH  12  15
ENDBRANCH   1  13
TORSDOF 3
ENDMDL
MODEL 5
REMARK VINA RESULT:      -4.6      2.671      2.869
REMARK  Name = Dacarbazine
REMARK  5 active torsions:
REMARK  status: ('A' for Active; 'I' for Inactive)
REMARK    1  A    between atoms: C_1  and  N_2
REMARK    2  A    between atoms: N_2  and  C_3
REMARK    3  A    between atoms: N_2  and  N_4
REMARK    4  A    between atoms: N_5  and  C_6
REMARK    5  A    between atoms: C_7  and  C_11
REMARK                            x       y       z     vdW  Elec       q    Type
REMARK                         _______ _______ _______ _____ _____    ______ ____
ROOT
ATOM      1  C   UNL     1     -10.248   6.619 128.399  0.00  0.00    +0.000 A 
ATOM      2  C   UNL     1     -11.290   6.576 129.329  0.00  0.00    +0.000 A 
ATOM      3  N   UNL     1     -12.127   7.677 129.158  0.00  0.00    +0.000 NA
ATOM      4  C   UNL     1     -11.604   8.379 128.186  0.00  0.00    +0.000 A 
ATOM      5  N   UNL     1     -10.457   7.803 127.724  0.00  0.00    +0.000 N 
ATOM      6  H   UNL     1      -9.875   8.171 126.986  0.00  0.00    +0.000 HD
ENDROOT
BRANCH   2   7
ATOM      7  C   UNL     1     -11.535   5.570 130.367  0.00  0.00    +0.000 C 
ATOM      8  N   UNL     1     -11.819   6.041 131.619  0.00  0.00    +0.000 N 
ATOM      9  O   UNL     1     -11.507   4.356 130.169  0.00  0.00    +0.000 OA
ATOM     10  H   UNL     1     -11.742   7.028 131.840  0.00  0.00    +0.000 HD
ATOM     11  H   UNL     1     -11.900   5.373 132.370  0.00  0.00    +0.000 HD
ENDBRANCH   2   7
BRANCH   1  13
ATOM     12  N   UNL     1      -9.037   5.596 126.875  0.00  0.00    +0.000 NA
ATOM     13  N   UNL     1      -9.177   5.827 128.098  0.00  0.00    +0.000 NA
BRANCH  12  15
ATOM     14  C   UNL     1      -7.333   4.889 125.320  0.00  0.00    +0.000 C 
ATOM     15  N   UNL     1      -8.073   4.673 126.555  0.00  0.00    +0.000 N 
ATOM     16  C   UNL     1      -7.700   3.575 127.428  0.00  0.00    +0.000 C 
ENDBRANCH  12  15
ENDBRANCH   1  13
TORSDOF 3
ENDMDL
MODEL 6
REMARK VINA RESULT:      -4.4      2.189      4.535
REMARK  Name = Dacarbazine
REMARK  5 active torsions:
REMARK  status: ('A' for Active; 'I' for Inactive)
REMARK    1  A    between atoms: C_1  and  N_2
REMARK    2  A    between atoms: N_2  and  C_3
REMARK    3  A    between atoms: N_2  and  N_4
REMARK    4  A    between atoms: N_5  and  C_6
REMARK    5  A    between atoms: C_7  and  C_11
REMARK                            x       y       z     vdW  Elec       q    Type
REMARK                         _______ _______ _______ _____ _____    ______ ____
ROOT
ATOM      1  C   UNL     1      -8.941   6.546 130.443  0.00  0.00    +0.000 A 
ATOM      2  C   UNL     1      -9.171   5.322 131.078  0.00  0.00    +0.000 A 
ATOM      3  N   UNL     1      -8.201   5.101 132.053  0.00  0.00    +0.000 NA
ATOM      4  C   UNL     1      -7.394   6.130 131.998  0.00  0.00    +0.000 A 
ATOM      5  N   UNL     1      -7.778   7.004 131.023  0.00  0.00    +0.000 N 
ATOM      6  H   UNL     1      -7.302   7.863 130.788  0.00  0.00    +0.000 HD
ENDROOT
BRANCH   2   7
ATOM      7  C   UNL     1     -10.239   4.353 130.814  0.00  0.00    +0.000 C 
ATOM      8  N   UNL     1     -11.485   4.864 130.580  0.00  0.00    +0.000 N 
ATOM      9  O   UNL     1     -10.071   3.134 130.786  0.00  0.00    +0.000 OA
ATOM     10  H   UNL     1     -11.680   5.852 130.703  0.00  0.00    +0.000 HD
ATOM     11  H   UNL     1     -12.254   4.219 130.488  0.00  0.00    +0.000 HD
ENDBRANCH   2   7
BRANCH   1  13
ATOM     12  N   UNL     1     -10.657   7.756 129.788  0.00  0.00    +0.000 NA
ATOM     13  N   UNL     1      -9.555   7.261 129.455  0.00  0.00    +0.000 NA
BRANCH  12  15
ATOM     14  C   UNL     1     -10.882   8.139 127.417  0.00  0.00    +0.000 C 
ATOM     15  N   UNL     1     -11.373   8.339 128.773  0.00  0.00    +0.000 N 
ATOM     16  C   UNL     1     -12.625   9.042 128.983  0.00  0.00    +0.000 C 
ENDBRANCH  12  15
ENDBRANCH   1  13
TORSDOF 3
ENDMDL
MODEL 7
REMARK VINA RESULT:      -4.3      2.123      3.162
REMARK  Name = Dacarbazine
REMARK  5 active torsions:
REMARK  status: ('A' for Active; 'I' for Inactive)
REMARK    1  A    between atoms: C_1  and  N_2
REMARK    2  A    between atoms: N_2  and  C_3
REMARK    3  A    between atoms: N_2  and  N_4
REMARK    4  A    between atoms: N_5  and  C_6
REMARK    5  A    between atoms: C_7  and  C_11
REMARK                            x       y       z     vdW  Elec       q    Type
REMARK                         _______ _______ _______ _____ _____    ______ ____
ROOT
ATOM      1  C   UNL     1      -9.946   6.334 130.041  0.00  0.00    +0.000 A 
ATOM      2  C   UNL     1     -11.008   7.160 129.665  0.00  0.00    +0.000 A 
ATOM      3  N   UNL     1     -11.938   7.243 130.700  0.00  0.00    +0.000 NA
ATOM      4  C   UNL     1     -11.481   6.476 131.656  0.00  0.00    +0.000 A 
ATOM      5  N   UNL     1     -10.307   5.883 131.293  0.00  0.00    +0.000 N 
ATOM      6  H   UNL     1      -9.776   5.241 131.863  0.00  0.00    +0.000 HD
ENDROOT
BRANCH   2   7
ATOM      7  C   UNL     1     -11.201   7.865 128.394  0.00  0.00    +0.000 C 
ATOM      8  N   UNL     1     -10.507   7.384 127.317  0.00  0.00    +0.000 N 
ATOM      9  O   UNL     1     -11.943   8.835 128.250  0.00  0.00    +0.000 OA
ATOM     10  H   UNL     1      -9.807   6.658 127.425  0.00  0.00    +0.000 HD
ATOM     11  H   UNL     1     -10.549   7.904 126.455  0.00  0.00    +0.000 HD
ENDBRANCH   2   7
BRANCH   1  13
ATOM     12  N   UNL     1      -8.939   5.030 128.585  0.00  0.00    +0.000 NA
ATOM     13  N   UNL     1      -8.785   5.914 129.459  0.00  0.00    +0.000 NA
BRANCH  12  15
ATOM     14  C   UNL     1      -6.697   4.268 129.049  0.00  0.00    +0.000 C 
ATOM     15  N   UNL     1      -7.783   4.472 128.100  0.00  0.00    +0.000 N 
ATOM     16  C   UNL     1      -7.638   3.994 126.737  0.00  0.00    +0.000 C 
ENDBRANCH  12  15
ENDBRANCH   1  13
TORSDOF 3
ENDMDL
MODEL 8
REMARK VINA RESULT:      -4.3      2.126      2.342
REMARK  Name = Dacarbazine
REMARK  5 active torsions:
REMARK  status: ('A' for Active; 'I' for Inactive)
REMARK    1  A    between atoms: C_1  and  N_2
REMARK    2  A    between atoms: N_2  and  C_3
REMARK    3  A    between atoms: N_2  and  N_4
REMARK    4  A    between atoms: N_5  and  C_6
REMARK    5  A    between atoms: C_7  and  C_11
REMARK                            x       y       z     vdW  Elec       q    Type
REMARK                         _______ _______ _______ _____ _____    ______ ____
ROOT
ATOM      1  C   UNL     1     -10.018   6.397 129.154  0.00  0.00    +0.000 A 
ATOM      2  C   UNL     1     -10.688   6.610 130.362  0.00  0.00    +0.000 A 
ATOM      3  N   UNL     1     -11.667   7.588 130.199  0.00  0.00    +0.000 NA
ATOM      4  C   UNL     1     -11.580   7.980 128.953  0.00  0.00    +0.000 A 
ATOM      5  N   UNL     1     -10.582   7.319 128.298  0.00  0.00    +0.000 N 
ATOM      6  H   UNL     1     -10.322   7.462 127.333  0.00  0.00    +0.000 HD
ENDROOT
BRANCH   2   7
ATOM      7  C   UNL     1     -10.455   5.956 131.653  0.00  0.00    +0.000 C 
ATOM      8  N   UNL     1     -10.324   4.595 131.635  0.00  0.00    +0.000 N 
ATOM      9  O   UNL     1     -10.366   6.557 132.723  0.00  0.00    +0.000 OA
ATOM     10  H   UNL     1     -10.501   4.061 130.790  0.00  0.00    +0.000 HD
ATOM     11  H   UNL     1     -10.256   4.112 132.517  0.00  0.00    +0.000 HD
ENDBRANCH   2   7
BRANCH   1  13
ATOM     12  N   UNL     1      -9.227   4.359 128.924  0.00  0.00    +0.000 NA
ATOM     13  N   UNL     1      -9.013   5.578 128.729  0.00  0.00    +0.000 NA
BRANCH  12  15
ATOM     14  C   UNL     1      -6.833   4.061 128.873  0.00  0.00    +0.000 C 
ATOM     15  N   UNL     1      -8.169   3.525 128.660  0.00  0.00    +0.000 N 
ATOM     16  C   UNL     1      -8.328   2.131 128.285  0.00  0.00    +0.000 C 
ENDBRANCH  12  15
ENDBRANCH   1  13
TORSDOF 3
ENDMDL
MODEL 9
REMARK VINA RESULT:      -4.3      8.336      9.325
REMARK  Name = Dacarbazine
REMARK  5 active torsions:
REMARK  status: ('A' for Active; 'I' for Inactive)
REMARK    1  A    between atoms: C_1  and  N_2
REMARK    2  A    between atoms: N_2  and  C_3
REMARK    3  A    between atoms: N_2  and  N_4
REMARK    4  A    between atoms: N_5  and  C_6
REMARK    5  A    between atoms: C_7  and  C_11
REMARK                            x       y       z     vdW  Elec       q    Type
REMARK                         _______ _______ _______ _____ _____    ______ ____
ROOT
ATOM      1  C   UNL     1      -7.803   0.118 123.539  0.00  0.00    +0.000 A 
ATOM      2  C   UNL     1      -9.200   0.144 123.548  0.00  0.00    +0.000 A 
ATOM      3  N   UNL     1      -9.703  -1.082 123.117  0.00  0.00    +0.000 NA
ATOM      4  C   UNL     1      -8.660  -1.817 122.827  0.00  0.00    +0.000 A 
ATOM      5  N   UNL     1      -7.500  -1.127 123.031  0.00  0.00    +0.000 N 
ATOM      6  H   UNL     1      -6.571  -1.485 122.864  0.00  0.00    +0.000 HD
ENDROOT
BRANCH   2   7
ATOM      7  C   UNL     1     -10.081   1.252 123.928  0.00  0.00    +0.000 C 
ATOM      8  N   UNL     1      -9.475   2.438 124.240  0.00  0.00    +0.000 N 
ATOM      9  O   UNL     1     -11.308   1.172 123.971  0.00  0.00    +0.000 OA
ATOM     10  H   UNL     1      -8.466   2.506 124.320  0.00  0.00    +0.000 HD
ATOM     11  H   UNL     1     -10.049   3.187 124.593  0.00  0.00    +0.000 HD
ENDBRANCH   2   7
BRANCH   1  13
ATOM     12  N   UNL     1      -6.673   1.187 125.094  0.00  0.00    +0.000 NA
ATOM     13  N   UNL     1      -6.810   0.997 123.863  0.00  0.00    +0.000 NA
BRANCH  12  15
ATOM     14  C   UNL     1      -4.725   1.833 126.361  0.00  0.00    +0.000 C 
ATOM     15  N   UNL     1      -5.799   2.185 125.443  0.00  0.00    +0.000 N 
ATOM     16  C   UNL     1      -5.839   3.518 124.868  0.00  0.00    +0.000 C 
ENDBRANCH  12  15
ENDBRANCH   1  13
TORSDOF 3
ENDMDL
