MODEL 1
REMARK VINA RESULT:      -8.8      0.000      0.000
REMARK  Name = Dacomitinib
REMARK  7 active torsions:
REMARK  status: ('A' for Active; 'I' for Inactive)
REMARK    1  A    between atoms: C_1  and  O_2
REMARK    2  A    between atoms: O_2  and  C_3
REMARK    3  A    between atoms: C_4  and  N_5
REMARK    4  A    between atoms: C_6  and  C_8
REMARK    5  A    between atoms: C_9  and  C_10
REMARK    6  A    between atoms: C_10  and  N_11
REMARK    7  A    between atoms: N_20  and  C_21
REMARK                            x       y       z     vdW  Elec       q    Type
REMARK                         _______ _______ _______ _____ _____    ______ ____
ROOT
ATOM      1  C   UNL     1      -8.099   2.491 128.174  0.00  0.00    +0.000 A 
ATOM      2  C   UNL     1      -8.323   1.621 127.120  0.00  0.00    +0.000 A 
ATOM      3  C   UNL     1      -8.128   0.284 127.411  0.00  0.00    +0.000 A 
ATOM      4  C   UNL     1      -7.432  -0.219 128.551  0.00  0.00    +0.000 A 
ATOM      5  C   UNL     1      -7.066  -1.573 128.787  0.00  0.00    +0.000 A 
ATOM      6  N   UNL     1      -7.247  -2.603 127.833  0.00  0.00    +0.000 N 
ATOM      7  N   UNL     1      -6.513  -1.966 129.954  0.00  0.00    +0.000 NA
ATOM      8  C   UNL     1      -6.278  -1.000 130.855  0.00  0.00    +0.000 A 
ATOM      9  N   UNL     1      -6.516   0.311 130.695  0.00  0.00    +0.000 NA
ATOM     10  C   UNL     1      -7.089   0.695 129.543  0.00  0.00    +0.000 A 
ATOM     11  C   UNL     1      -7.432   2.036 129.334  0.00  0.00    +0.000 A 
ATOM     12  H   UNL     1      -7.059  -3.522 128.217  0.00  0.00    +0.000 HD
ENDROOT
BRANCH   6  13
ATOM     13  C   UNL     1      -7.659  -2.531 126.490  0.00  0.00    +0.000 A 
ATOM     14  C   UNL     1      -6.706  -2.354 125.474  0.00  0.00    +0.000 A 
ATOM     15  C   UNL     1      -7.050  -2.615 124.140  0.00  0.00    +0.000 A 
ATOM     16 CL   UNL     1      -5.851  -2.482 122.911  0.00  0.00    +0.000 Cl
ATOM     17  C   UNL     1      -8.335  -3.054 123.819  0.00  0.00    +0.000 A 
ATOM     18  F   UNL     1      -8.649  -3.408 122.564  0.00  0.00    +0.000 F 
ATOM     19  C   UNL     1      -9.300  -3.195 124.808  0.00  0.00    +0.000 A 
ATOM     20  C   UNL     1      -8.976  -2.887 126.133  0.00  0.00    +0.000 A 
ENDBRANCH   6  13
BRANCH   2  21
ATOM     21  N   UNL     1      -8.788   1.951 125.812  0.00  0.00    +0.000 N 
ATOM     22  C   UNL     1      -9.675   1.188 125.089  0.00  0.00    +0.000 C 
ATOM     23  O   UNL     1     -10.416   0.320 125.557  0.00  0.00    +0.000 OA
ATOM     24  H   UNL     1      -8.499   2.836 125.414  0.00  0.00    +0.000 HD
BRANCH  22  25
ATOM     25  C   UNL     1      -9.642   1.410 123.615  0.00  0.00    +0.000 C 
ATOM     26  C   UNL     1      -9.058   2.559 123.234  0.00  0.00    +0.000 C 
BRANCH  26  27
ATOM     27  C   UNL     1      -8.658   2.955 121.844  0.00  0.00    +0.000 C 
BRANCH  27  28
ATOM     28  N   UNL     1      -7.449   3.800 121.729  0.00  0.00    +0.000 NA
ATOM     29  C   UNL     1      -6.398   3.454 122.698  0.00  0.00    +0.000 C 
ATOM     30  C   UNL     1      -5.180   4.363 122.624  0.00  0.00    +0.000 C 
ATOM     31  C   UNL     1      -4.619   4.372 121.208  0.00  0.00    +0.000 C 
ATOM     32  C   UNL     1      -5.713   4.726 120.209  0.00  0.00    +0.000 C 
ATOM     33  C   UNL     1      -6.926   3.803 120.355  0.00  0.00    +0.000 C 
ENDBRANCH  27  28
ENDBRANCH  26  27
ENDBRANCH  22  25
ENDBRANCH   2  21
BRANCH   1  35
ATOM     34  C   UNL     1      -8.137   4.527 129.374  0.00  0.00    +0.000 C 
ATOM     35  O   UNL     1      -8.576   3.773 128.237  0.00  0.00    +0.000 OA
ENDBRANCH   1  35
TORSDOF 6
ENDMDL
MODEL 2
REMARK VINA RESULT:      -8.5      2.285      4.328
REMARK  Name = Dacomitinib
REMARK  7 active torsions:
REMARK  status: ('A' for Active; 'I' for Inactive)
REMARK    1  A    between atoms: C_1  and  O_2
REMARK    2  A    between atoms: O_2  and  C_3
REMARK    3  A    between atoms: C_4  and  N_5
REMARK    4  A    between atoms: C_6  and  C_8
REMARK    5  A    between atoms: C_9  and  C_10
REMARK    6  A    between atoms: C_10  and  N_11
REMARK    7  A    between atoms: N_20  and  C_21
REMARK                            x       y       z     vdW  Elec       q    Type
REMARK                         _______ _______ _______ _____ _____    ______ ____
ROOT
ATOM      1  C   UNL     1      -8.972  -2.128 125.724  0.00  0.00    +0.000 A 
ATOM      2  C   UNL     1      -8.513  -0.830 125.871  0.00  0.00    +0.000 A 
ATOM      3  C   UNL     1      -7.705  -0.614 126.973  0.00  0.00    +0.000 A 
ATOM      4  C   UNL     1      -7.583  -1.492 128.090  0.00  0.00    +0.000 A 
ATOM      5  C   UNL     1      -6.900  -1.220 129.308  0.00  0.00    +0.000 A 
ATOM      6  N   UNL     1      -6.342   0.044 129.618  0.00  0.00    +0.000 N 
ATOM      7  N   UNL     1      -6.741  -2.163 130.260  0.00  0.00    +0.000 NA
ATOM      8  C   UNL     1      -7.310  -3.354 130.017  0.00  0.00    +0.000 A 
ATOM      9  N   UNL     1      -8.035  -3.682 128.937  0.00  0.00    +0.000 NA
ATOM     10  C   UNL     1      -8.171  -2.749 127.981  0.00  0.00    +0.000 A 
ATOM     11  C   UNL     1      -8.855  -3.043 126.796  0.00  0.00    +0.000 A 
ATOM     12  H   UNL     1      -5.778   0.021 130.460  0.00  0.00    +0.000 HD
ENDROOT
BRANCH   6  13
ATOM     13  C   UNL     1      -6.438   1.268 128.932  0.00  0.00    +0.000 A 
ATOM     14  C   UNL     1      -5.437   1.640 128.020  0.00  0.00    +0.000 A 
ATOM     15  C   UNL     1      -5.678   2.669 127.099  0.00  0.00    +0.000 A 
ATOM     16 CL   UNL     1      -4.478   3.059 125.926  0.00  0.00    +0.000 Cl
ATOM     17  C   UNL     1      -6.911   3.320 127.080  0.00  0.00    +0.000 A 
ATOM     18  F   UNL     1      -7.195   4.233 126.138  0.00  0.00    +0.000 F 
ATOM     19  C   UNL     1      -7.897   2.991 128.001  0.00  0.00    +0.000 A 
ATOM     20  C   UNL     1      -7.643   2.002 128.956  0.00  0.00    +0.000 A 
ENDBRANCH   6  13
BRANCH   2  21
ATOM     21  N   UNL     1      -8.730   0.268 124.987  0.00  0.00    +0.000 N 
ATOM     22  C   UNL     1      -9.943   0.893 124.809  0.00  0.00    +0.000 C 
ATOM     23  O   UNL     1     -10.902   0.820 125.581  0.00  0.00    +0.000 OA
ATOM     24  H   UNL     1      -7.928   0.657 124.506  0.00  0.00    +0.000 HD
BRANCH  22  25
ATOM     25  C   UNL     1     -10.086   1.641 123.527  0.00  0.00    +0.000 C 
ATOM     26  C   UNL     1      -8.975   2.282 123.126  0.00  0.00    +0.000 C 
BRANCH  26  27
ATOM     27  C   UNL     1      -8.724   2.910 121.787  0.00  0.00    +0.000 C 
BRANCH  27  28
ATOM     28  N   UNL     1      -7.525   3.771 121.684  0.00  0.00    +0.000 NA
ATOM     29  C   UNL     1      -6.483   3.445 122.671  0.00  0.00    +0.000 C 
ATOM     30  C   UNL     1      -5.277   4.370 122.608  0.00  0.00    +0.000 C 
ATOM     31  C   UNL     1      -4.696   4.379 121.200  0.00  0.00    +0.000 C 
ATOM     32  C   UNL     1      -5.780   4.712 120.184  0.00  0.00    +0.000 C 
ATOM     33  C   UNL     1      -6.983   3.774 120.318  0.00  0.00    +0.000 C 
ENDBRANCH  27  28
ENDBRANCH  26  27
ENDBRANCH  22  25
ENDBRANCH   2  21
BRANCH   1  35
ATOM     34  C   UNL     1      -8.460  -3.226 123.695  0.00  0.00    +0.000 C 
ATOM     35  O   UNL     1      -9.453  -2.653 124.555  0.00  0.00    +0.000 OA
ENDBRANCH   1  35
TORSDOF 6
ENDMDL
MODEL 3
REMARK VINA RESULT:      -8.4      4.130      6.960
REMARK  Name = Dacomitinib
REMARK  7 active torsions:
REMARK  status: ('A' for Active; 'I' for Inactive)
REMARK    1  A    between atoms: C_1  and  O_2
REMARK    2  A    between atoms: O_2  and  C_3
REMARK    3  A    between atoms: C_4  and  N_5
REMARK    4  A    between atoms: C_6  and  C_8
REMARK    5  A    between atoms: C_9  and  C_10
REMARK    6  A    between atoms: C_10  and  N_11
REMARK    7  A    between atoms: N_20  and  C_21
REMARK                            x       y       z     vdW  Elec       q    Type
REMARK                         _______ _______ _______ _____ _____    ______ ____
ROOT
ATOM      1  C   UNL     1      -5.746  -1.421 126.510  0.00  0.00    +0.000 A 
ATOM      2  C   UNL     1      -5.864  -0.103 126.105  0.00  0.00    +0.000 A 
ATOM      3  C   UNL     1      -6.946   0.167 125.288  0.00  0.00    +0.000 A 
ATOM      4  C   UNL     1      -7.719  -0.812 124.596  0.00  0.00    +0.000 A 
ATOM      5  C   UNL     1      -8.722  -0.560 123.618  0.00  0.00    +0.000 A 
ATOM      6  N   UNL     1      -8.999   0.730 123.107  0.00  0.00    +0.000 N 
ATOM      7  N   UNL     1      -9.481  -1.552 123.107  0.00  0.00    +0.000 NA
ATOM      8  C   UNL     1      -9.200  -2.793 123.532  0.00  0.00    +0.000 A 
ATOM      9  N   UNL     1      -8.229  -3.139 124.390  0.00  0.00    +0.000 NA
ATOM     10  C   UNL     1      -7.492  -2.148 124.915  0.00  0.00    +0.000 A 
ATOM     11  C   UNL     1      -6.507  -2.426 125.870  0.00  0.00    +0.000 A 
ATOM     12  H   UNL     1      -9.829   0.745 122.526  0.00  0.00    +0.000 HD
ENDROOT
BRANCH   6  13
ATOM     13  C   UNL     1      -8.324   1.948 123.309  0.00  0.00    +0.000 A 
ATOM     14  C   UNL     1      -8.658   2.761 124.404  0.00  0.00    +0.000 A 
ATOM     15  C   UNL     1      -7.789   3.785 124.806  0.00  0.00    +0.000 A 
ATOM     16 CL   UNL     1      -8.164   4.719 126.203  0.00  0.00    +0.000 Cl
ATOM     17  C   UNL     1      -6.590   3.995 124.125  0.00  0.00    +0.000 A 
ATOM     18  F   UNL     1      -5.700   4.900 124.560  0.00  0.00    +0.000 F 
ATOM     19  C   UNL     1      -6.264   3.226 123.015  0.00  0.00    +0.000 A 
ATOM     20  C   UNL     1      -7.151   2.238 122.580  0.00  0.00    +0.000 A 
ENDBRANCH   6  13
BRANCH   2  21
ATOM     21  N   UNL     1      -5.038   0.996 126.490  0.00  0.00    +0.000 N 
ATOM     22  C   UNL     1      -5.406   1.963 127.396  0.00  0.00    +0.000 C 
ATOM     23  O   UNL     1      -6.322   1.860 128.216  0.00  0.00    +0.000 OA
ATOM     24  H   UNL     1      -4.095   1.033 126.122  0.00  0.00    +0.000 HD
BRANCH  22  25
ATOM     25  C   UNL     1      -4.659   3.249 127.285  0.00  0.00    +0.000 C 
ATOM     26  C   UNL     1      -3.452   3.248 127.875  0.00  0.00    +0.000 C 
BRANCH  26  27
ATOM     27  C   UNL     1      -2.375   4.282 127.737  0.00  0.00    +0.000 C 
BRANCH  27  28
ATOM     28  N   UNL     1      -2.515   5.488 128.582  0.00  0.00    +0.000 NA
ATOM     29  C   UNL     1      -3.446   6.485 128.030  0.00  0.00    +0.000 C 
ATOM     30  C   UNL     1      -3.544   7.754 128.865  0.00  0.00    +0.000 C 
ATOM     31  C   UNL     1      -3.920   7.408 130.300  0.00  0.00    +0.000 C 
ATOM     32  C   UNL     1      -2.955   6.373 130.864  0.00  0.00    +0.000 C 
ATOM     33  C   UNL     1      -2.870   5.136 129.964  0.00  0.00    +0.000 C 
ENDBRANCH  27  28
ENDBRANCH  26  27
ENDBRANCH  22  25
ENDBRANCH   2  21
BRANCH   1  35
ATOM     34  C   UNL     1      -5.773  -2.370 128.675  0.00  0.00    +0.000 C 
ATOM     35  O   UNL     1      -5.008  -1.840 127.585  0.00  0.00    +0.000 OA
ENDBRANCH   1  35
TORSDOF 6
ENDMDL
MODEL 4
REMARK VINA RESULT:      -8.3      3.435      6.919
REMARK  Name = Dacomitinib
REMARK  7 active torsions:
REMARK  status: ('A' for Active; 'I' for Inactive)
REMARK    1  A    between atoms: C_1  and  O_2
REMARK    2  A    between atoms: O_2  and  C_3
REMARK    3  A    between atoms: C_4  and  N_5
REMARK    4  A    between atoms: C_6  and  C_8
REMARK    5  A    between atoms: C_9  and  C_10
REMARK    6  A    between atoms: C_10  and  N_11
REMARK    7  A    between atoms: N_20  and  C_21
REMARK                            x       y       z     vdW  Elec       q    Type
REMARK                         _______ _______ _______ _____ _____    ______ ____
ROOT
ATOM      1  C   UNL     1      -8.666   1.787 124.244  0.00  0.00    +0.000 A 
ATOM      2  C   UNL     1      -7.972   1.493 125.405  0.00  0.00    +0.000 A 
ATOM      3  C   UNL     1      -7.670   0.156 125.586  0.00  0.00    +0.000 A 
ATOM      4  C   UNL     1      -8.270  -0.928 124.879  0.00  0.00    +0.000 A 
ATOM      5  C   UNL     1      -8.108  -2.313 125.160  0.00  0.00    +0.000 A 
ATOM      6  N   UNL     1      -7.405  -2.797 126.289  0.00  0.00    +0.000 N 
ATOM      7  N   UNL     1      -8.626  -3.266 124.357  0.00  0.00    +0.000 NA
ATOM      8  C   UNL     1      -9.346  -2.834 123.311  0.00  0.00    +0.000 A 
ATOM      9  N   UNL     1      -9.618  -1.557 123.006  0.00  0.00    +0.000 NA
ATOM     10  C   UNL     1      -9.081  -0.610 123.793  0.00  0.00    +0.000 A 
ATOM     11  C   UNL     1      -9.262   0.746 123.496  0.00  0.00    +0.000 A 
ATOM     12  H   UNL     1      -7.272  -3.802 126.259  0.00  0.00    +0.000 HD
ENDROOT
BRANCH   6  13
ATOM     13  C   UNL     1      -6.866  -2.102 127.387  0.00  0.00    +0.000 A 
ATOM     14  C   UNL     1      -7.703  -1.695 128.438  0.00  0.00    +0.000 A 
ATOM     15  C   UNL     1      -7.147  -1.313 129.666  0.00  0.00    +0.000 A 
ATOM     16 CL   UNL     1      -8.184  -0.901 130.978  0.00  0.00    +0.000 Cl
ATOM     17  C   UNL     1      -5.764  -1.341 129.851  0.00  0.00    +0.000 A 
ATOM     18  F   UNL     1      -5.223  -1.080 131.050  0.00  0.00    +0.000 F 
ATOM     19  C   UNL     1      -4.921  -1.702 128.808  0.00  0.00    +0.000 A 
ATOM     20  C   UNL     1      -5.468  -2.035 127.565  0.00  0.00    +0.000 A 
ENDBRANCH   6  13
BRANCH   2  21
ATOM     21  N   UNL     1      -7.490   2.416 126.381  0.00  0.00    +0.000 N 
ATOM     22  C   UNL     1      -8.128   2.694 127.568  0.00  0.00    +0.000 C 
ATOM     23  O   UNL     1      -8.994   1.990 128.093  0.00  0.00    +0.000 OA
ATOM     24  H   UNL     1      -6.589   2.848 126.222  0.00  0.00    +0.000 HD
BRANCH  22  25
ATOM     25  C   UNL     1      -7.765   4.000 128.189  0.00  0.00    +0.000 C 
ATOM     26  C   UNL     1      -8.580   4.394 129.182  0.00  0.00    +0.000 C 
BRANCH  26  27
ATOM     27  C   UNL     1      -8.352   5.516 130.150  0.00  0.00    +0.000 C 
BRANCH  27  28
ATOM     28  N   UNL     1      -9.529   6.355 130.466  0.00  0.00    +0.000 NA
ATOM     29  C   UNL     1     -10.234   6.848 129.273  0.00  0.00    +0.000 C 
ATOM     30  C   UNL     1     -11.407   7.763 129.595  0.00  0.00    +0.000 C 
ATOM     31  C   UNL     1     -12.376   7.060 130.537  0.00  0.00    +0.000 C 
ATOM     32  C   UNL     1     -11.639   6.549 131.767  0.00  0.00    +0.000 C 
ATOM     33  C   UNL     1     -10.449   5.665 131.382  0.00  0.00    +0.000 C 
ENDBRANCH  27  28
ENDBRANCH  26  27
ENDBRANCH  22  25
ENDBRANCH   2  21
BRANCH   1  35
ATOM     34  C   UNL     1      -8.374   3.093 122.296  0.00  0.00    +0.000 C 
ATOM     35  O   UNL     1      -8.743   3.032 123.680  0.00  0.00    +0.000 OA
ENDBRANCH   1  35
TORSDOF 6
ENDMDL
MODEL 5
REMARK VINA RESULT:      -8.2      4.439      7.442
REMARK  Name = Dacomitinib
REMARK  7 active torsions:
REMARK  status: ('A' for Active; 'I' for Inactive)
REMARK    1  A    between atoms: C_1  and  O_2
REMARK    2  A    between atoms: O_2  and  C_3
REMARK    3  A    between atoms: C_4  and  N_5
REMARK    4  A    between atoms: C_6  and  C_8
REMARK    5  A    between atoms: C_9  and  C_10
REMARK    6  A    between atoms: C_10  and  N_11
REMARK    7  A    between atoms: N_20  and  C_21
REMARK                            x       y       z     vdW  Elec       q    Type
REMARK                         _______ _______ _______ _____ _____    ______ ____
ROOT
ATOM      1  C   UNL     1      -3.831   4.178 127.769  0.00  0.00    +0.000 A 
ATOM      2  C   UNL     1      -5.182   3.989 128.004  0.00  0.00    +0.000 A 
ATOM      3  C   UNL     1      -5.684   4.647 129.111  0.00  0.00    +0.000 A 
ATOM      4  C   UNL     1      -4.898   5.206 130.163  0.00  0.00    +0.000 A 
ATOM      5  C   UNL     1      -5.385   5.733 131.392  0.00  0.00    +0.000 A 
ATOM      6  N   UNL     1      -6.742   5.655 131.786  0.00  0.00    +0.000 N 
ATOM      7  N   UNL     1      -4.569   6.348 132.273  0.00  0.00    +0.000 NA
ATOM      8  C   UNL     1      -3.267   6.385 131.951  0.00  0.00    +0.000 A 
ATOM      9  N   UNL     1      -2.703   5.852 130.857  0.00  0.00    +0.000 NA
ATOM     10  C   UNL     1      -3.521   5.263 129.970  0.00  0.00    +0.000 A 
ATOM     11  C   UNL     1      -3.014   4.746 128.772  0.00  0.00    +0.000 A 
ATOM     12  H   UNL     1      -6.934   6.198 132.620  0.00  0.00    +0.000 HD
ENDROOT
BRANCH   6  13
ATOM     13  C   UNL     1      -7.820   4.977 131.189  0.00  0.00    +0.000 A 
ATOM     14  C   UNL     1      -8.176   3.695 131.639  0.00  0.00    +0.000 A 
ATOM     15  C   UNL     1      -9.426   3.158 131.299  0.00  0.00    +0.000 A 
ATOM     16 CL   UNL     1      -9.891   1.623 131.928  0.00  0.00    +0.000 Cl
ATOM     17  C   UNL     1     -10.319   3.894 130.521  0.00  0.00    +0.000 A 
ATOM     18  F   UNL     1     -11.557   3.439 130.275  0.00  0.00    +0.000 F 
ATOM     19  C   UNL     1      -9.965   5.146 130.034  0.00  0.00    +0.000 A 
ATOM     20  C   UNL     1      -8.701   5.665 130.327  0.00  0.00    +0.000 A 
ENDBRANCH   6  13
BRANCH   2  21
ATOM     21  N   UNL     1      -6.105   3.253 127.200  0.00  0.00    +0.000 N 
ATOM     22  C   UNL     1      -6.012   1.903 126.952  0.00  0.00    +0.000 C 
ATOM     23  O   UNL     1      -5.344   1.102 127.610  0.00  0.00    +0.000 OA
ATOM     24  H   UNL     1      -6.916   3.741 126.842  0.00  0.00    +0.000 HD
BRANCH  22  25
ATOM     25  C   UNL     1      -6.730   1.436 125.732  0.00  0.00    +0.000 C 
ATOM     26  C   UNL     1      -7.975   0.980 125.956  0.00  0.00    +0.000 C 
BRANCH  26  27
ATOM     27  C   UNL     1      -9.025   0.671 124.930  0.00  0.00    +0.000 C 
BRANCH  27  28
ATOM     28  N   UNL     1      -9.363  -0.758 124.752  0.00  0.00    +0.000 NA
ATOM     29  C   UNL     1      -8.848  -1.330 123.498  0.00  0.00    +0.000 C 
ATOM     30  C   UNL     1      -9.249  -2.782 123.282  0.00  0.00    +0.000 C 
ATOM     31  C   UNL     1      -8.816  -3.627 124.473  0.00  0.00    +0.000 C 
ATOM     32  C   UNL     1      -9.349  -3.027 125.768  0.00  0.00    +0.000 C 
ATOM     33  C   UNL     1      -8.946  -1.557 125.912  0.00  0.00    +0.000 C 
ENDBRANCH  27  28
ENDBRANCH  26  27
ENDBRANCH  22  25
ENDBRANCH   2  21
BRANCH   1  35
ATOM     34  C   UNL     1      -1.991   3.204 126.651  0.00  0.00    +0.000 C 
ATOM     35  O   UNL     1      -3.213   3.948 126.569  0.00  0.00    +0.000 OA
ENDBRANCH   1  35
TORSDOF 6
ENDMDL
MODEL 6
REMARK VINA RESULT:      -8.1      3.641      6.178
REMARK  Name = Dacomitinib
REMARK  7 active torsions:
REMARK  status: ('A' for Active; 'I' for Inactive)
REMARK    1  A    between atoms: C_1  and  O_2
REMARK    2  A    between atoms: O_2  and  C_3
REMARK    3  A    between atoms: C_4  and  N_5
REMARK    4  A    between atoms: C_6  and  C_8
REMARK    5  A    between atoms: C_9  and  C_10
REMARK    6  A    between atoms: C_10  and  N_11
REMARK    7  A    between atoms: N_20  and  C_21
REMARK                            x       y       z     vdW  Elec       q    Type
REMARK                         _______ _______ _______ _____ _____    ______ ____
ROOT
ATOM      1  C   UNL     1      -8.544   1.804 124.134  0.00  0.00    +0.000 A 
ATOM      2  C   UNL     1      -7.859   1.476 125.292  0.00  0.00    +0.000 A 
ATOM      3  C   UNL     1      -7.624   0.125 125.472  0.00  0.00    +0.000 A 
ATOM      4  C   UNL     1      -8.282  -0.927 124.768  0.00  0.00    +0.000 A 
ATOM      5  C   UNL     1      -8.189  -2.318 125.049  0.00  0.00    +0.000 A 
ATOM      6  N   UNL     1      -7.505  -2.837 126.174  0.00  0.00    +0.000 N 
ATOM      7  N   UNL     1      -8.759  -3.244 124.250  0.00  0.00    +0.000 NA
ATOM      8  C   UNL     1      -9.462  -2.776 123.207  0.00  0.00    +0.000 A 
ATOM      9  N   UNL     1      -9.670  -1.486 122.903  0.00  0.00    +0.000 NA
ATOM     10  C   UNL     1      -9.082  -0.568 123.687  0.00  0.00    +0.000 A 
ATOM     11  C   UNL     1      -9.196   0.795 123.390  0.00  0.00    +0.000 A 
ATOM     12  H   UNL     1      -7.424  -3.848 126.144  0.00  0.00    +0.000 HD
ENDROOT
BRANCH   6  13
ATOM     13  C   UNL     1      -6.925  -2.171 127.268  0.00  0.00    +0.000 A 
ATOM     14  C   UNL     1      -7.730  -1.752 128.340  0.00  0.00    +0.000 A 
ATOM     15  C   UNL     1      -7.139  -1.400 129.562  0.00  0.00    +0.000 A 
ATOM     16 CL   UNL     1      -8.138  -0.972 130.898  0.00  0.00    +0.000 Cl
ATOM     17  C   UNL     1      -5.754  -1.469 129.719  0.00  0.00    +0.000 A 
ATOM     18  F   UNL     1      -5.183  -1.237 130.910  0.00  0.00    +0.000 F 
ATOM     19  C   UNL     1      -4.942  -1.842 128.656  0.00  0.00    +0.000 A 
ATOM     20  C   UNL     1      -5.522  -2.146 127.420  0.00  0.00    +0.000 A 
ENDBRANCH   6  13
BRANCH   2  21
ATOM     21  N   UNL     1      -7.325   2.374 126.264  0.00  0.00    +0.000 N 
ATOM     22  C   UNL     1      -7.980   2.752 127.413  0.00  0.00    +0.000 C 
ATOM     23  O   UNL     1      -8.937   2.157 127.916  0.00  0.00    +0.000 OA
ATOM     24  H   UNL     1      -6.377   2.705 126.135  0.00  0.00    +0.000 HD
BRANCH  22  25
ATOM     25  C   UNL     1      -7.509   4.031 128.016  0.00  0.00    +0.000 C 
ATOM     26  C   UNL     1      -6.822   3.891 129.163  0.00  0.00    +0.000 C 
BRANCH  26  27
ATOM     27  C   UNL     1      -6.022   4.941 129.874  0.00  0.00    +0.000 C 
BRANCH  27  28
ATOM     28  N   UNL     1      -4.949   5.588 129.089  0.00  0.00    +0.000 NA
ATOM     29  C   UNL     1      -4.412   6.803 129.721  0.00  0.00    +0.000 C 
ATOM     30  C   UNL     1      -3.352   7.506 128.885  0.00  0.00    +0.000 C 
ATOM     31  C   UNL     1      -2.226   6.537 128.546  0.00  0.00    +0.000 C 
ATOM     32  C   UNL     1      -2.789   5.279 127.896  0.00  0.00    +0.000 C 
ATOM     33  C   UNL     1      -3.875   4.638 128.765  0.00  0.00    +0.000 C 
ENDBRANCH  27  28
ENDBRANCH  26  27
ENDBRANCH  22  25
ENDBRANCH   2  21
BRANCH   1  35
ATOM     34  C   UNL     1      -8.618   3.067 122.138  0.00  0.00    +0.000 C 
ATOM     35  O   UNL     1      -8.560   3.052 123.570  0.00  0.00    +0.000 OA
ENDBRANCH   1  35
TORSDOF 6
ENDMDL
MODEL 7
REMARK VINA RESULT:      -8.1      4.197      6.696
REMARK  Name = Dacomitinib
REMARK  7 active torsions:
REMARK  status: ('A' for Active; 'I' for Inactive)
REMARK    1  A    between atoms: C_1  and  O_2
REMARK    2  A    between atoms: O_2  and  C_3
REMARK    3  A    between atoms: C_4  and  N_5
REMARK    4  A    between atoms: C_6  and  C_8
REMARK    5  A    between atoms: C_9  and  C_10
REMARK    6  A    between atoms: C_10  and  N_11
REMARK    7  A    between atoms: N_20  and  C_21
REMARK                            x       y       z     vdW  Elec       q    Type
REMARK                         _______ _______ _______ _____ _____    ______ ____
ROOT
ATOM      1  C   UNL     1      -5.023   5.255 129.803  0.00  0.00    +0.000 A 
ATOM      2  C   UNL     1      -6.041   4.468 129.293  0.00  0.00    +0.000 A 
ATOM      3  C   UNL     1      -5.637   3.484 128.410  0.00  0.00    +0.000 A 
ATOM      4  C   UNL     1      -4.367   3.429 127.762  0.00  0.00    +0.000 A 
ATOM      5  C   UNL     1      -3.986   2.533 126.725  0.00  0.00    +0.000 A 
ATOM      6  N   UNL     1      -4.889   1.638 126.104  0.00  0.00    +0.000 N 
ATOM      7  N   UNL     1      -2.721   2.483 126.259  0.00  0.00    +0.000 NA
ATOM      8  C   UNL     1      -1.857   3.362 126.790  0.00  0.00    +0.000 A 
ATOM      9  N   UNL     1      -2.138   4.293 127.714  0.00  0.00    +0.000 NA
ATOM     10  C   UNL     1      -3.392   4.324 128.193  0.00  0.00    +0.000 A 
ATOM     11  C   UNL     1      -3.740   5.221 129.209  0.00  0.00    +0.000 A 
ATOM     12  H   UNL     1      -4.421   0.983 125.487  0.00  0.00    +0.000 HD
ENDROOT
BRANCH   6  13
ATOM     13  C   UNL     1      -6.284   1.518 126.241  0.00  0.00    +0.000 A 
ATOM     14  C   UNL     1      -7.133   2.067 125.266  0.00  0.00    +0.000 A 
ATOM     15  C   UNL     1      -8.477   1.674 125.208  0.00  0.00    +0.000 A 
ATOM     16 CL   UNL     1      -9.489   2.285 123.955  0.00  0.00    +0.000 Cl
ATOM     17  C   UNL     1      -8.974   0.735 126.112  0.00  0.00    +0.000 A 
ATOM     18  F   UNL     1     -10.228   0.271 126.005  0.00  0.00    +0.000 F 
ATOM     19  C   UNL     1      -8.158   0.213 127.108  0.00  0.00    +0.000 A 
ATOM     20  C   UNL     1      -6.830   0.640 127.201  0.00  0.00    +0.000 A 
ENDBRANCH   6  13
BRANCH   2  21
ATOM     21  N   UNL     1      -7.428   4.526 129.627  0.00  0.00    +0.000 N 
ATOM     22  C   UNL     1      -8.049   3.672 130.510  0.00  0.00    +0.000 C 
ATOM     23  O   UNL     1      -7.475   2.974 131.349  0.00  0.00    +0.000 OA
ATOM     24  H   UNL     1      -7.978   5.282 129.241  0.00  0.00    +0.000 HD
BRANCH  22  25
ATOM     25  C   UNL     1      -9.526   3.560 130.345  0.00  0.00    +0.000 C 
ATOM     26  C   UNL     1     -10.195   4.718 130.481  0.00  0.00    +0.000 C 
BRANCH  26  27
ATOM     27  C   UNL     1     -11.632   4.980 130.141  0.00  0.00    +0.000 C 
BRANCH  27  28
ATOM     28  N   UNL     1     -11.885   6.064 129.166  0.00  0.00    +0.000 NA
ATOM     29  C   UNL     1     -13.063   6.882 129.493  0.00  0.00    +0.000 C 
ATOM     30  C   UNL     1     -13.363   7.956 128.458  0.00  0.00    +0.000 C 
ATOM     31  C   UNL     1     -12.139   8.840 128.251  0.00  0.00    +0.000 C 
ATOM     32  C   UNL     1     -10.922   7.987 127.918  0.00  0.00    +0.000 C 
ATOM     33  C   UNL     1     -10.692   6.901 128.973  0.00  0.00    +0.000 C 
ENDBRANCH  27  28
ENDBRANCH  26  27
ENDBRANCH  22  25
ENDBRANCH   2  21
BRANCH   1  35
ATOM     34  C   UNL     1      -4.832   7.406 130.763  0.00  0.00    +0.000 C 
ATOM     35  O   UNL     1      -5.123   6.014 130.938  0.00  0.00    +0.000 OA
ENDBRANCH   1  35
TORSDOF 6
ENDMDL
MODEL 8
REMARK VINA RESULT:      -8.1      4.344      7.427
REMARK  Name = Dacomitinib
REMARK  7 active torsions:
REMARK  status: ('A' for Active; 'I' for Inactive)
REMARK    1  A    between atoms: C_1  and  O_2
REMARK    2  A    between atoms: O_2  and  C_3
REMARK    3  A    between atoms: C_4  and  N_5
REMARK    4  A    between atoms: C_6  and  C_8
REMARK    5  A    between atoms: C_9  and  C_10
REMARK    6  A    between atoms: C_10  and  N_11
REMARK    7  A    between atoms: N_20  and  C_21
REMARK                            x       y       z     vdW  Elec       q    Type
REMARK                         _______ _______ _______ _____ _____    ______ ____
ROOT
ATOM      1  C   UNL     1      -7.876   1.188 127.034  0.00  0.00    +0.000 A 
ATOM      2  C   UNL     1      -8.028   1.675 128.321  0.00  0.00    +0.000 A 
ATOM      3  C   UNL     1      -7.838   0.745 129.327  0.00  0.00    +0.000 A 
ATOM      4  C   UNL     1      -7.825  -0.670 129.150  0.00  0.00    +0.000 A 
ATOM      5  C   UNL     1      -7.804  -1.650 130.181  0.00  0.00    +0.000 A 
ATOM      6  N   UNL     1      -7.921  -1.333 131.555  0.00  0.00    +0.000 N 
ATOM      7  N   UNL     1      -7.673  -2.965 129.908  0.00  0.00    +0.000 NA
ATOM      8  C   UNL     1      -7.619  -3.300 128.609  0.00  0.00    +0.000 A 
ATOM      9  N   UNL     1      -7.706  -2.459 127.568  0.00  0.00    +0.000 NA
ATOM     10  C   UNL     1      -7.811  -1.149 127.843  0.00  0.00    +0.000 A 
ATOM     11  C   UNL     1      -7.836  -0.207 126.808  0.00  0.00    +0.000 A 
ATOM     12  H   UNL     1      -7.750  -2.134 132.152  0.00  0.00    +0.000 HD
ENDROOT
BRANCH   6  13
ATOM     13  C   UNL     1      -8.203  -0.104 132.179  0.00  0.00    +0.000 A 
ATOM     14  C   UNL     1      -7.166   0.638 132.766  0.00  0.00    +0.000 A 
ATOM     15  C   UNL     1      -7.365   1.988 133.085  0.00  0.00    +0.000 A 
ATOM     16 CL   UNL     1      -6.060   2.914 133.723  0.00  0.00    +0.000 Cl
ATOM     17  C   UNL     1      -8.590   2.600 132.815  0.00  0.00    +0.000 A 
ATOM     18  F   UNL     1      -8.763   3.915 133.016  0.00  0.00    +0.000 F 
ATOM     19  C   UNL     1      -9.639   1.869 132.272  0.00  0.00    +0.000 A 
ATOM     20  C   UNL     1      -9.461   0.510 131.999  0.00  0.00    +0.000 A 
ENDBRANCH   6  13
BRANCH   2  21
ATOM     21  N   UNL     1      -8.292   3.023 128.710  0.00  0.00    +0.000 N 
ATOM     22  C   UNL     1      -7.342   3.888 129.200  0.00  0.00    +0.000 C 
ATOM     23  O   UNL     1      -6.122   3.749 129.082  0.00  0.00    +0.000 OA
ATOM     24  H   UNL     1      -9.223   3.388 128.555  0.00  0.00    +0.000 HD
BRANCH  22  25
ATOM     25  C   UNL     1      -7.879   5.027 129.999  0.00  0.00    +0.000 C 
ATOM     26  C   UNL     1      -9.211   5.187 129.922  0.00  0.00    +0.000 C 
BRANCH  26  27
ATOM     27  C   UNL     1     -10.069   6.069 130.779  0.00  0.00    +0.000 C 
BRANCH  27  28
ATOM     28  N   UNL     1     -10.660   7.250 130.113  0.00  0.00    +0.000 NA
ATOM     29  C   UNL     1     -10.468   7.258 128.654  0.00  0.00    +0.000 C 
ATOM     30  C   UNL     1     -11.019   8.503 127.975  0.00  0.00    +0.000 C 
ATOM     31  C   UNL     1     -12.492   8.679 128.321  0.00  0.00    +0.000 C 
ATOM     32  C   UNL     1     -12.685   8.666 129.832  0.00  0.00    +0.000 C 
ATOM     33  C   UNL     1     -12.079   7.409 130.464  0.00  0.00    +0.000 C 
ENDBRANCH  27  28
ENDBRANCH  26  27
ENDBRANCH  22  25
ENDBRANCH   2  21
BRANCH   1  35
ATOM     34  C   UNL     1      -8.467   1.662 124.796  0.00  0.00    +0.000 C 
ATOM     35  O   UNL     1      -7.648   1.967 125.932  0.00  0.00    +0.000 OA
ENDBRANCH   1  35
TORSDOF 6
ENDMDL
MODEL 9
REMARK VINA RESULT:      -8.0      3.752      8.456
REMARK  Name = Dacomitinib
REMARK  7 active torsions:
REMARK  status: ('A' for Active; 'I' for Inactive)
REMARK    1  A    between atoms: C_1  and  O_2
REMARK    2  A    between atoms: O_2  and  C_3
REMARK    3  A    between atoms: C_4  and  N_5
REMARK    4  A    between atoms: C_6  and  C_8
REMARK    5  A    between atoms: C_9  and  C_10
REMARK    6  A    between atoms: C_10  and  N_11
REMARK    7  A    between atoms: N_20  and  C_21
REMARK                            x       y       z     vdW  Elec       q    Type
REMARK                         _______ _______ _______ _____ _____    ______ ____
ROOT
ATOM      1  C   UNL     1      -8.099   0.616 124.668  0.00  0.00    +0.000 A 
ATOM      2  C   UNL     1      -7.477   1.075 125.817  0.00  0.00    +0.000 A 
ATOM      3  C   UNL     1      -6.772   2.256 125.671  0.00  0.00    +0.000 A 
ATOM      4  C   UNL     1      -6.379   2.832 124.427  0.00  0.00    +0.000 A 
ATOM      5  C   UNL     1      -5.511   3.945 124.249  0.00  0.00    +0.000 A 
ATOM      6  N   UNL     1      -4.812   4.562 125.314  0.00  0.00    +0.000 N 
ATOM      7  N   UNL     1      -5.294   4.489 123.033  0.00  0.00    +0.000 NA
ATOM      8  C   UNL     1      -5.899   3.888 121.997  0.00  0.00    +0.000 A 
ATOM      9  N   UNL     1      -6.671   2.793 122.054  0.00  0.00    +0.000 NA
ATOM     10  C   UNL     1      -6.905   2.269 123.268  0.00  0.00    +0.000 A 
ATOM     11  C   UNL     1      -7.758   1.169 123.413  0.00  0.00    +0.000 A 
ATOM     12  H   UNL     1      -4.351   5.418 125.029  0.00  0.00    +0.000 HD
ENDROOT
BRANCH   6  13
ATOM     13  C   UNL     1      -4.698   4.179 126.663  0.00  0.00    +0.000 A 
ATOM     14  C   UNL     1      -5.701   4.532 127.579  0.00  0.00    +0.000 A 
ATOM     15  C   UNL     1      -5.773   3.887 128.821  0.00  0.00    +0.000 A 
ATOM     16 CL   UNL     1      -7.060   4.263 129.902  0.00  0.00    +0.000 Cl
ATOM     17  C   UNL     1      -4.853   2.890 129.148  0.00  0.00    +0.000 A 
ATOM     18  F   UNL     1      -4.971   2.190 130.287  0.00  0.00    +0.000 F 
ATOM     19  C   UNL     1      -3.830   2.557 128.270  0.00  0.00    +0.000 A 
ATOM     20  C   UNL     1      -3.724   3.234 127.051  0.00  0.00    +0.000 A 
ENDBRANCH   6  13
BRANCH   2  21
ATOM     21  N   UNL     1      -7.542   0.503 127.123  0.00  0.00    +0.000 N 
ATOM     22  C   UNL     1      -8.208   1.069 128.185  0.00  0.00    +0.000 C 
ATOM     23  O   UNL     1      -9.075   1.942 128.100  0.00  0.00    +0.000 OA
ATOM     24  H   UNL     1      -7.128  -0.410 127.262  0.00  0.00    +0.000 HD
BRANCH  22  25
ATOM     25  C   UNL     1      -7.752   0.613 129.530  0.00  0.00    +0.000 C 
ATOM     26  C   UNL     1      -8.550   0.982 130.547  0.00  0.00    +0.000 C 
BRANCH  26  27
ATOM     27  C   UNL     1      -8.502   0.488 131.962  0.00  0.00    +0.000 C 
BRANCH  27  28
ATOM     28  N   UNL     1      -8.314   1.517 133.007  0.00  0.00    +0.000 NA
ATOM     29  C   UNL     1      -6.921   1.975 133.135  0.00  0.00    +0.000 C 
ATOM     30  C   UNL     1      -6.714   2.987 134.252  0.00  0.00    +0.000 C 
ATOM     31  C   UNL     1      -7.651   4.173 134.064  0.00  0.00    +0.000 C 
ATOM     32  C   UNL     1      -9.090   3.693 133.928  0.00  0.00    +0.000 C 
ATOM     33  C   UNL     1      -9.230   2.650 132.815  0.00  0.00    +0.000 C 
ENDBRANCH  27  28
ENDBRANCH  26  27
ENDBRANCH  22  25
ENDBRANCH   2  21
BRANCH   1  35
ATOM     34  C   UNL     1      -8.737  -1.642 124.380  0.00  0.00    +0.000 C 
ATOM     35  O   UNL     1      -9.126  -0.289 124.651  0.00  0.00    +0.000 OA
ENDBRANCH   1  35
TORSDOF 6
ENDMDL
