MODEL 1
REMARK VINA RESULT:      -4.2      0.000      0.000
REMARK  Name = Dalfampridine
REMARK  1 active torsions:
REMARK  status: ('A' for Active; 'I' for Inactive)
REMARK    1  A    between atoms: N_1  and  C_2
REMARK                            x       y       z     vdW  Elec       q    Type
REMARK                         _______ _______ _______ _____ _____    ______ ____
ROOT
ATOM      1  C   UNL     1     -12.325   8.704 128.377  0.00  0.00    +0.000 A 
ATOM      2  C   UNL     1     -10.975   8.545 128.076  0.00  0.00    +0.000 A 
ATOM      3  C   UNL     1     -10.607   7.585 127.144  0.00  0.00    +0.000 A 
ATOM      4  N   UNL     1     -11.484   6.791 126.495  0.00  0.00    +0.000 NA
ATOM      5  C   UNL     1     -12.788   6.971 126.795  0.00  0.00    +0.000 A 
ATOM      6  C   UNL     1     -13.248   7.903 127.712  0.00  0.00    +0.000 A 
ENDROOT
BRANCH   1   7
ATOM      7  N   UNL     1     -12.743   9.683 129.262  0.00  0.00    +0.000 N 
ATOM      8  H   UNL     1     -12.780   9.499 130.254  0.00  0.00    +0.000 HD
ATOM      9  H   UNL     1     -13.173  10.532 128.918  0.00  0.00    +0.000 HD
ENDBRANCH   1   7
TORSDOF 1
ENDMDL
MODEL 2
REMARK VINA RESULT:      -4.1      0.222      1.784
REMARK  Name = Dalfampridine
REMARK  1 active torsions:
REMARK  status: ('A' for Active; 'I' for Inactive)
REMARK    1  A    between atoms: N_1  and  C_2
REMARK                            x       y       z     vdW  Elec       q    Type
REMARK                         _______ _______ _______ _____ _____    ______ ____
ROOT
ATOM      1  C   UNL     1     -12.424   8.829 128.456  0.00  0.00    +0.000 A 
ATOM      2  C   UNL     1     -13.364   7.988 127.866  0.00  0.00    +0.000 A 
ATOM      3  C   UNL     1     -12.920   6.976 127.027  0.00  0.00    +0.000 A 
ATOM      4  N   UNL     1     -11.621   6.744 126.749  0.00  0.00    +0.000 NA
ATOM      5  C   UNL     1     -10.727   7.564 127.341  0.00  0.00    +0.000 A 
ATOM      6  C   UNL     1     -11.078   8.602 128.192  0.00  0.00    +0.000 A 
ENDROOT
BRANCH   1   7
ATOM      7  N   UNL     1     -12.816   9.820 129.339  0.00  0.00    +0.000 N 
ATOM      8  H   UNL     1     -12.150  10.244 129.967  0.00  0.00    +0.000 HD
ATOM      9  H   UNL     1     -13.799  10.014 129.485  0.00  0.00    +0.000 HD
ENDBRANCH   1   7
TORSDOF 1
ENDMDL
MODEL 3
REMARK VINA RESULT:      -3.7      2.615      3.451
REMARK  Name = Dalfampridine
REMARK  1 active torsions:
REMARK  status: ('A' for Active; 'I' for Inactive)
REMARK    1  A    between atoms: N_1  and  C_2
REMARK                            x       y       z     vdW  Elec       q    Type
REMARK                         _______ _______ _______ _____ _____    ______ ____
ROOT
ATOM      1  C   UNL     1     -11.610   6.968 130.830  0.00  0.00    +0.000 A 
ATOM      2  C   UNL     1     -12.721   7.731 130.483  0.00  0.00    +0.000 A 
ATOM      3  C   UNL     1     -12.632   8.578 129.387  0.00  0.00    +0.000 A 
ATOM      4  N   UNL     1     -11.529   8.706 128.621  0.00  0.00    +0.000 NA
ATOM      5  C   UNL     1     -10.468   7.947 128.971  0.00  0.00    +0.000 A 
ATOM      6  C   UNL     1     -10.464   7.075 130.049  0.00  0.00    +0.000 A 
ENDROOT
BRANCH   1   7
ATOM      7  N   UNL     1     -11.668   6.072 131.884  0.00  0.00    +0.000 N 
ATOM      8  H   UNL     1     -11.325   5.128 131.777  0.00  0.00    +0.000 HD
ATOM      9  H   UNL     1     -12.203   6.294 132.714  0.00  0.00    +0.000 HD
ENDBRANCH   1   7
TORSDOF 1
ENDMDL
MODEL 4
REMARK VINA RESULT:      -3.7      2.642      3.094
REMARK  Name = Dalfampridine
REMARK  1 active torsions:
REMARK  status: ('A' for Active; 'I' for Inactive)
REMARK    1  A    between atoms: N_1  and  C_2
REMARK                            x       y       z     vdW  Elec       q    Type
REMARK                         _______ _______ _______ _____ _____    ______ ____
ROOT
ATOM      1  C   UNL     1     -11.614   6.922 130.841  0.00  0.00    +0.000 A 
ATOM      2  C   UNL     1     -10.453   7.045 130.082  0.00  0.00    +0.000 A 
ATOM      3  C   UNL     1     -10.448   7.926 129.009  0.00  0.00    +0.000 A 
ATOM      4  N   UNL     1     -11.504   8.688 128.655  0.00  0.00    +0.000 NA
ATOM      5  C   UNL     1     -12.613   8.560 129.414  0.00  0.00    +0.000 A 
ATOM      6  C   UNL     1     -12.711   7.706 130.502  0.00  0.00    +0.000 A 
ENDROOT
BRANCH   1   7
ATOM      7  N   UNL     1     -11.649   6.095 131.950  0.00  0.00    +0.000 N 
ATOM      8  H   UNL     1     -10.863   6.046 132.582  0.00  0.00    +0.000 HD
ATOM      9  H   UNL     1     -12.385   5.407 132.051  0.00  0.00    +0.000 HD
ENDBRANCH   1   7
TORSDOF 1
ENDMDL
MODEL 5
REMARK VINA RESULT:      -3.7      2.784      3.403
REMARK  Name = Dalfampridine
REMARK  1 active torsions:
REMARK  status: ('A' for Active; 'I' for Inactive)
REMARK    1  A    between atoms: N_1  and  C_2
REMARK                            x       y       z     vdW  Elec       q    Type
REMARK                         _______ _______ _______ _____ _____    ______ ____
ROOT
ATOM      1  C   UNL     1     -11.373   8.090 129.384  0.00  0.00    +0.000 A 
ATOM      2  C   UNL     1     -10.378   7.267 129.906  0.00  0.00    +0.000 A 
ATOM      3  C   UNL     1     -10.648   6.545 131.060  0.00  0.00    +0.000 A 
ATOM      4  N   UNL     1     -11.828   6.580 131.712  0.00  0.00    +0.000 NA
ATOM      5  C   UNL     1     -12.781   7.376 131.180  0.00  0.00    +0.000 A 
ATOM      6  C   UNL     1     -12.602   8.134 130.033  0.00  0.00    +0.000 A 
ENDROOT
BRANCH   1   7
ATOM      7  N   UNL     1     -11.167   8.789 128.207  0.00  0.00    +0.000 N 
ATOM      8  H   UNL     1     -11.923   9.295 127.769  0.00  0.00    +0.000 HD
ATOM      9  H   UNL     1     -10.309   8.667 127.684  0.00  0.00    +0.000 HD
ENDBRANCH   1   7
TORSDOF 1
ENDMDL
MODEL 6
REMARK VINA RESULT:      -3.5      2.274      2.893
REMARK  Name = Dalfampridine
REMARK  1 active torsions:
REMARK  status: ('A' for Active; 'I' for Inactive)
REMARK    1  A    between atoms: N_1  and  C_2
REMARK                            x       y       z     vdW  Elec       q    Type
REMARK                         _______ _______ _______ _____ _____    ______ ____
ROOT
ATOM      1  C   UNL     1     -12.108   7.628 130.377  0.00  0.00    +0.000 A 
ATOM      2  C   UNL     1     -12.356   8.412 129.254  0.00  0.00    +0.000 A 
ATOM      3  C   UNL     1     -11.337   8.593 128.329  0.00  0.00    +0.000 A 
ATOM      4  N   UNL     1     -10.110   8.043 128.443  0.00  0.00    +0.000 NA
ATOM      5  C   UNL     1      -9.897   7.278 129.534  0.00  0.00    +0.000 A 
ATOM      6  C   UNL     1     -10.854   7.042 130.510  0.00  0.00    +0.000 A 
ENDROOT
BRANCH   1   7
ATOM      7  N   UNL     1     -13.108   7.378 131.300  0.00  0.00    +0.000 N 
ATOM      8  H   UNL     1     -14.076   7.549 131.070  0.00  0.00    +0.000 HD
ATOM      9  H   UNL     1     -12.876   7.184 132.266  0.00  0.00    +0.000 HD
ENDBRANCH   1   7
TORSDOF 1
ENDMDL
MODEL 7
REMARK VINA RESULT:      -3.4      3.824      4.106
REMARK  Name = Dalfampridine
REMARK  1 active torsions:
REMARK  status: ('A' for Active; 'I' for Inactive)
REMARK    1  A    between atoms: N_1  and  C_2
REMARK                            x       y       z     vdW  Elec       q    Type
REMARK                         _______ _______ _______ _____ _____    ______ ____
ROOT
ATOM      1  C   UNL     1     -10.505   6.342 131.575  0.00  0.00    +0.000 A 
ATOM      2  C   UNL     1      -9.154   6.573 131.327  0.00  0.00    +0.000 A 
ATOM      3  C   UNL     1      -8.799   7.304 130.202  0.00  0.00    +0.000 A 
ATOM      4  N   UNL     1      -9.688   7.818 129.326  0.00  0.00    +0.000 NA
ATOM      5  C   UNL     1     -10.991   7.590 129.594  0.00  0.00    +0.000 A 
ATOM      6  C   UNL     1     -11.439   6.872 130.693  0.00  0.00    +0.000 A 
ENDROOT
BRANCH   1   7
ATOM      7  N   UNL     1     -10.909   5.663 132.712  0.00  0.00    +0.000 N 
ATOM      8  H   UNL     1     -10.350   4.910 133.088  0.00  0.00    +0.000 HD
ATOM      9  H   UNL     1     -11.842   5.794 133.081  0.00  0.00    +0.000 HD
ENDBRANCH   1   7
TORSDOF 1
ENDMDL
MODEL 8
REMARK VINA RESULT:      -3.4     11.565     12.485
REMARK  Name = Dalfampridine
REMARK  1 active torsions:
REMARK  status: ('A' for Active; 'I' for Inactive)
REMARK    1  A    between atoms: N_1  and  C_2
REMARK                            x       y       z     vdW  Elec       q    Type
REMARK                         _______ _______ _______ _____ _____    ______ ____
ROOT
ATOM      1  C   UNL     1      -6.945  -2.963 123.971  0.00  0.00    +0.000 A 
ATOM      2  C   UNL     1      -7.985  -3.696 124.539  0.00  0.00    +0.000 A 
ATOM      3  C   UNL     1      -9.291  -3.372 124.200  0.00  0.00    +0.000 A 
ATOM      4  N   UNL     1      -9.624  -2.389 123.338  0.00  0.00    +0.000 NA
ATOM      5  C   UNL     1      -8.600  -1.701 122.791  0.00  0.00    +0.000 A 
ATOM      6  C   UNL     1      -7.265  -1.952 123.071  0.00  0.00    +0.000 A 
ENDROOT
BRANCH   1   7
ATOM      7  N   UNL     1      -5.626  -3.283 124.239  0.00  0.00    +0.000 N 
ATOM      8  H   UNL     1      -5.253  -3.190 125.173  0.00  0.00    +0.000 HD
ATOM      9  H   UNL     1      -4.976  -3.450 123.481  0.00  0.00    +0.000 HD
ENDBRANCH   1   7
TORSDOF 1
ENDMDL
MODEL 9
REMARK VINA RESULT:      -3.2      2.032      2.784
REMARK  Name = Dalfampridine
REMARK  1 active torsions:
REMARK  status: ('A' for Active; 'I' for Inactive)
REMARK    1  A    between atoms: N_1  and  C_2
REMARK                            x       y       z     vdW  Elec       q    Type
REMARK                         _______ _______ _______ _____ _____    ______ ____
ROOT
ATOM      1  C   UNL     1     -11.452   7.517 129.465  0.00  0.00    +0.000 A 
ATOM      2  C   UNL     1     -12.215   6.492 128.912  0.00  0.00    +0.000 A 
ATOM      3  C   UNL     1     -13.371   6.823 128.217  0.00  0.00    +0.000 A 
ATOM      4  N   UNL     1     -13.803   8.087 128.033  0.00  0.00    +0.000 NA
ATOM      5  C   UNL     1     -13.041   9.063 128.569  0.00  0.00    +0.000 A 
ATOM      6  C   UNL     1     -11.873   8.829 129.279  0.00  0.00    +0.000 A 
ENDROOT
BRANCH   1   7
ATOM      7  N   UNL     1     -10.266   7.239 130.122  0.00  0.00    +0.000 N 
ATOM      8  H   UNL     1     -10.271   6.814 131.038  0.00  0.00    +0.000 HD
ATOM      9  H   UNL     1      -9.390   7.608 129.773  0.00  0.00    +0.000 HD
ENDBRANCH   1   7
TORSDOF 1
ENDMDL
