MODEL 1
REMARK VINA RESULT:      -9.8      0.000      0.000
REMARK  Name = Dalfopristin
REMARK  14 active torsions:
REMARK  status: ('A' for Active; 'I' for Inactive)
REMARK    1  A    between atoms: C_1  and  C_2
REMARK    2  A    between atoms: C_2  and  N_3
REMARK    3  A    between atoms: N_3  and  C_4
REMARK    4  A    between atoms: N_3  and  C_6
REMARK    5  A    between atoms: C_4  and  C_5
REMARK    6  A    between atoms: C_6  and  C_7
REMARK    7  A    between atoms: C_7  and  S_8
REMARK    8  A    between atoms: S_8  and  C_11
REMARK    9  A    between atoms: C_19  and  C_20
REMARK   10  A    between atoms: C_20  and  C_21
REMARK   11  A    between atoms: C_20  and  C_22
REMARK   12  A    between atoms: C_23  and  C_24
REMARK   13  A    between atoms: C_33  and  C_34
REMARK   14  A    between atoms: C_36  and  O_37
REMARK                            x       y       z     vdW  Elec       q    Type
REMARK                         _______ _______ _______ _____ _____    ______ ____
ROOT
ATOM      1  C   UNL     1      -7.553   1.410 125.621  0.00  0.00    +0.000 C 
ATOM      2  C   UNL     1      -7.072   0.087 125.922  0.00  0.00    +0.000 C 
ATOM      3  C   UNL     1      -6.796   2.108 127.831  0.00  0.00    +0.000 C 
ATOM      4  N   UNL     1      -5.788   5.165 129.323  0.00  0.00    +0.000 N 
ATOM      5  C   UNL     1      -7.409   3.228 127.596  0.00  0.00    +0.000 C 
ATOM      6  C   UNL     1      -8.264   1.953 128.212  0.00  0.00    +0.000 C 
ATOM      7  O   UNL     1      -7.150   0.653 128.351  0.00  0.00    +0.000 OA
ATOM      8  O   UNL     1      -6.911   3.307 127.819  0.00  0.00    +0.000 OA
ATOM      9  C   UNL     1      -6.529   3.138 129.376  0.00  0.00    +0.000 C 
ATOM     10  C   UNL     1      -4.770   4.555 129.200  0.00  0.00    +0.000 C 
ATOM     11  C   UNL     1      -4.872   4.508 127.973  0.00  0.00    +0.000 C 
ATOM     12  C   UNL     1      -5.259   4.842 130.633  0.00  0.00    +0.000 C 
ATOM     13  C   UNL     1      -4.499   5.870 130.711  0.00  0.00    +0.000 C 
ATOM     14  C   UNL     1      -4.070   6.350 132.021  0.00  0.00    +0.000 C 
ATOM     15  O   UNL     1      -3.301   5.452 132.275  0.00  0.00    +0.000 OA
ATOM     16  N   UNL     1      -3.315   7.651 132.260  0.00  0.00    +0.000 N 
ATOM     17  C   UNL     1      -2.770   7.980 133.468  0.00  0.00    +0.000 C 
ATOM     18  C   UNL     1      -2.078   9.197 133.454  0.00  0.00    +0.000 C 
ATOM     19  C   UNL     1      -1.430   9.824 134.486  0.00  0.00    +0.000 C 
ATOM     20  C   UNL     1      -0.717  11.098 134.445  0.00  0.00    +0.000 C 
ATOM     21  C   UNL     1      -0.683  11.873 132.830  0.00  0.00    +0.000 C 
ATOM     22  C   UNL     1      -0.125  11.603 135.532  0.00  0.00    +0.000 C 
ATOM     23  C   UNL     1       0.667  12.657 135.644  0.00  0.00    +0.000 C 
ATOM     24  C   UNL     1       1.219  13.261 136.846  0.00  0.00    +0.000 C 
ATOM     25  C   UNL     1       1.860  14.619 136.746  0.00  0.00    +0.000 C 
ATOM     26  O   UNL     1       0.569  15.655 136.257  0.00  0.00    +0.000 OA
ATOM     27  C   UNL     1       2.487  15.194 137.680  0.00  0.00    +0.000 C 
ATOM     28  C   UNL     1       1.055  14.170 135.617  0.00  0.00    +0.000 A 
ATOM     29  N   UNL     1      -0.369  12.554 134.120  0.00  0.00    +0.000 NA
ATOM     30  C   UNL     1      -2.027  10.550 132.493  0.00  0.00    +0.000 A 
ATOM     31  C   UNL     1      -0.209  12.678 133.675  0.00  0.00    +0.000 A 
ATOM     32  O   UNL     1       1.531  14.461 134.706  0.00  0.00    +0.000 OA
ATOM     33  C   UNL     1      -4.102   7.748 130.833  0.00  0.00    +0.000 C 
ATOM     34  O   UNL     1      -5.684   6.751 130.331  0.00  0.00    +0.000 OA
ATOM     35  H   UNL     1      -3.169   8.351 131.463  0.00  0.00    +0.000 HD
ENDROOT
BRANCH   1  36
ATOM     36  S   UNL     1      -8.247   1.365 123.668  0.00  0.00    +0.000 S 
ATOM     37  O   UNL     1      -9.333   2.385 123.609  0.00  0.00    +0.000 OA
ATOM     38  O   UNL     1      -8.707   0.038 123.126  0.00  0.00    +0.000 OA
BRANCH  36  39
ATOM     39  C   UNL     1      -6.826   1.935 122.683  0.00  0.00    +0.000 C 
BRANCH  39  40
ATOM     40  C   UNL     1      -7.119   3.313 122.126  0.00  0.00    +0.000 C 
BRANCH  40  41
ATOM     41  N   UNL     1      -6.613   3.417 120.752  0.00  0.00    +0.000 NA
BRANCH  41  43
ATOM     42  C   UNL     1      -8.976   3.861 120.315  0.00  0.00    +0.000 C 
ATOM     43  C   UNL     1      -7.560   4.185 119.934  0.00  0.00    +0.000 C 
ENDBRANCH  41  43
BRANCH  41  44
ATOM     44  C   UNL     1      -5.312   4.095 120.756  0.00  0.00    +0.000 C 
ATOM     45  C   UNL     1      -5.301   5.236 119.784  0.00  0.00    +0.000 C 
ENDBRANCH  41  44
ENDBRANCH  40  41
ENDBRANCH  39  40
ENDBRANCH  36  39
ENDBRANCH   1  36
BRANCH   9  46
ATOM     46  C   UNL     1      -7.824   3.289 130.269  0.00  0.00    +0.000 C 
ATOM     47  C   UNL     1      -8.132   4.737 130.025  0.00  0.00    +0.000 C 
ATOM     48  C   UNL     1      -7.443   3.101 131.720  0.00  0.00    +0.000 C 
ENDBRANCH   9  46
BRANCH  23  49
ATOM     49  O   UNL     1      -0.720  14.111 135.094  0.00  0.00    +0.000 OA
ATOM     50  H   UNL     1      -1.027  13.637 134.520  0.00  0.00    +0.000 HD
ENDBRANCH  23  49
TORSDOF 8
ENDMDL
MODEL 2
REMARK VINA RESULT:      -9.8      6.529      7.211
REMARK  Name = Dalfopristin
REMARK  14 active torsions:
REMARK  status: ('A' for Active; 'I' for Inactive)
REMARK    1  A    between atoms: C_1  and  C_2
REMARK    2  A    between atoms: C_2  and  N_3
REMARK    3  A    between atoms: N_3  and  C_4
REMARK    4  A    between atoms: N_3  and  C_6
REMARK    5  A    between atoms: C_4  and  C_5
REMARK    6  A    between atoms: C_6  and  C_7
REMARK    7  A    between atoms: C_7  and  S_8
REMARK    8  A    between atoms: S_8  and  C_11
REMARK    9  A    between atoms: C_19  and  C_20
REMARK   10  A    between atoms: C_20  and  C_21
REMARK   11  A    between atoms: C_20  and  C_22
REMARK   12  A    between atoms: C_23  and  C_24
REMARK   13  A    between atoms: C_33  and  C_34
REMARK   14  A    between atoms: C_36  and  O_37
REMARK                            x       y       z     vdW  Elec       q    Type
REMARK                         _______ _______ _______ _____ _____    ______ ____
ROOT
ATOM      1  C   UNL     1      -7.905   1.312 126.498  0.00  0.00    +0.000 C 
ATOM      2  C   UNL     1      -6.544   0.938 126.214  0.00  0.00    +0.000 C 
ATOM      3  C   UNL     1      -7.262   1.598 128.832  0.00  0.00    +0.000 C 
ATOM      4  N   UNL     1      -8.453   3.500 131.580  0.00  0.00    +0.000 N 
ATOM      5  C   UNL     1      -8.529   1.742 129.077  0.00  0.00    +0.000 C 
ATOM      6  C   UNL     1      -7.887   0.220 129.012  0.00  0.00    +0.000 C 
ATOM      7  O   UNL     1      -6.224   0.417 128.634  0.00  0.00    +0.000 OA
ATOM      8  O   UNL     1      -8.222   2.115 129.343  0.00  0.00    +0.000 OA
ATOM      9  C   UNL     1      -7.369   1.861 130.687  0.00  0.00    +0.000 C 
ATOM     10  C   UNL     1      -7.442   4.050 131.265  0.00  0.00    +0.000 C 
ATOM     11  C   UNL     1      -7.864   4.320 130.140  0.00  0.00    +0.000 C 
ATOM     12  C   UNL     1      -7.479   3.362 132.644  0.00  0.00    +0.000 C 
ATOM     13  C   UNL     1      -7.769   4.471 133.215  0.00  0.00    +0.000 C 
ATOM     14  C   UNL     1      -7.448   4.659 134.627  0.00  0.00    +0.000 C 
ATOM     15  O   UNL     1      -6.248   4.746 134.507  0.00  0.00    +0.000 OA
ATOM     16  N   UNL     1      -7.892   5.853 135.463  0.00  0.00    +0.000 N 
ATOM     17  C   UNL     1      -7.424   6.088 136.724  0.00  0.00    +0.000 C 
ATOM     18  C   UNL     1      -7.924   7.266 137.292  0.00  0.00    +0.000 C 
ATOM     19  C   UNL     1      -7.674   7.790 138.534  0.00  0.00    +0.000 C 
ATOM     20  C   UNL     1      -8.212   9.022 139.104  0.00  0.00    +0.000 C 
ATOM     21  C   UNL     1      -9.290   9.936 138.002  0.00  0.00    +0.000 C 
ATOM     22  C   UNL     1      -7.887   9.421 140.338  0.00  0.00    +0.000 C 
ATOM     23  C   UNL     1      -8.166  10.558 140.953  0.00  0.00    +0.000 C 
ATOM     24  C   UNL     1      -7.900  10.941 142.330  0.00  0.00    +0.000 C 
ATOM     25  C   UNL     1      -8.563  12.176 142.880  0.00  0.00    +0.000 C 
ATOM     26  O   UNL     1     -10.248  11.808 142.818  0.00  0.00    +0.000 OA
ATOM     27  C   UNL     1      -8.318  12.685 144.010  0.00  0.00    +0.000 C 
ATOM     28  C   UNL     1      -9.069  11.646 141.620  0.00  0.00    +0.000 A 
ATOM     29  N   UNL     1      -9.192  10.138 139.477  0.00  0.00    +0.000 NA
ATOM     30  C   UNL     1      -9.208   8.286 137.031  0.00  0.00    +0.000 A 
ATOM     31  C   UNL     1      -9.334  10.466 139.143  0.00  0.00    +0.000 A 
ATOM     32  O   UNL     1      -9.299  12.455 140.964  0.00  0.00    +0.000 OA
ATOM     33  C   UNL     1      -8.888   5.704 134.178  0.00  0.00    +0.000 C 
ATOM     34  O   UNL     1      -9.241   4.077 133.189  0.00  0.00    +0.000 OA
ATOM     35  H   UNL     1      -8.583   6.568 135.068  0.00  0.00    +0.000 HD
ENDROOT
BRANCH   1  36
ATOM     36  S   UNL     1      -8.912   1.328 124.685  0.00  0.00    +0.000 S 
ATOM     37  O   UNL     1      -8.968   2.760 124.275  0.00  0.00    +0.000 OA
ATOM     38  O   UNL     1     -10.274   0.690 124.644  0.00  0.00    +0.000 OA
BRANCH  36  39
ATOM     39  C   UNL     1      -7.808   0.417 123.561  0.00  0.00    +0.000 C 
BRANCH  39  40
ATOM     40  C   UNL     1      -8.318  -1.000 123.392  0.00  0.00    +0.000 C 
BRANCH  40  41
ATOM     41  N   UNL     1      -7.356  -1.950 123.963  0.00  0.00    +0.000 NA
BRANCH  41  43
ATOM     42  C   UNL     1      -9.388  -3.258 123.598  0.00  0.00    +0.000 C 
ATOM     43  C   UNL     1      -8.024  -3.231 124.228  0.00  0.00    +0.000 C 
ENDBRANCH  41  43
BRANCH  41  44
ATOM     44  C   UNL     1      -6.253  -2.163 123.018  0.00  0.00    +0.000 C 
ATOM     45  C   UNL     1      -5.221  -3.082 123.601  0.00  0.00    +0.000 C 
ENDBRANCH  41  44
ENDBRANCH  40  41
ENDBRANCH  39  40
ENDBRANCH  36  39
ENDBRANCH   1  36
BRANCH   9  46
ATOM     46  C   UNL     1      -7.953   0.620 131.470  0.00  0.00    +0.000 C 
ATOM     47  C   UNL     1      -9.294   1.172 131.855  0.00  0.00    +0.000 C 
ATOM     48  C   UNL     1      -7.131   0.399 132.720  0.00  0.00    +0.000 C 
ENDBRANCH   9  46
BRANCH  23  49
ATOM     49  O   UNL     1     -10.238  10.344 141.014  0.00  0.00    +0.000 OA
ATOM     50  H   UNL     1     -10.178   9.546 141.102  0.00  0.00    +0.000 HD
ENDBRANCH  23  49
TORSDOF 8
ENDMDL
MODEL 3
REMARK VINA RESULT:      -9.8      2.095      2.908
REMARK  Name = Dalfopristin
REMARK  14 active torsions:
REMARK  status: ('A' for Active; 'I' for Inactive)
REMARK    1  A    between atoms: C_1  and  C_2
REMARK    2  A    between atoms: C_2  and  N_3
REMARK    3  A    between atoms: N_3  and  C_4
REMARK    4  A    between atoms: N_3  and  C_6
REMARK    5  A    between atoms: C_4  and  C_5
REMARK    6  A    between atoms: C_6  and  C_7
REMARK    7  A    between atoms: C_7  and  S_8
REMARK    8  A    between atoms: S_8  and  C_11
REMARK    9  A    between atoms: C_19  and  C_20
REMARK   10  A    between atoms: C_20  and  C_21
REMARK   11  A    between atoms: C_20  and  C_22
REMARK   12  A    between atoms: C_23  and  C_24
REMARK   13  A    between atoms: C_33  and  C_34
REMARK   14  A    between atoms: C_36  and  O_37
REMARK                            x       y       z     vdW  Elec       q    Type
REMARK                         _______ _______ _______ _____ _____    ______ ____
ROOT
ATOM      1  C   UNL     1      -7.818   0.995 126.133  0.00  0.00    +0.000 C 
ATOM      2  C   UNL     1      -7.435  -0.321 126.574  0.00  0.00    +0.000 C 
ATOM      3  C   UNL     1      -7.125   1.845 128.310  0.00  0.00    +0.000 C 
ATOM      4  N   UNL     1      -6.000   4.962 129.579  0.00  0.00    +0.000 N 
ATOM      5  C   UNL     1      -7.655   2.973 127.946  0.00  0.00    +0.000 C 
ATOM      6  C   UNL     1      -8.615   1.811 128.626  0.00  0.00    +0.000 C 
ATOM      7  O   UNL     1      -7.593   0.467 128.937  0.00  0.00    +0.000 OA
ATOM      8  O   UNL     1      -7.164   3.043 128.187  0.00  0.00    +0.000 OA
ATOM      9  C   UNL     1      -6.867   2.994 129.771  0.00  0.00    +0.000 C 
ATOM     10  C   UNL     1      -5.017   4.286 129.564  0.00  0.00    +0.000 C 
ATOM     11  C   UNL     1      -5.063   4.133 128.342  0.00  0.00    +0.000 C 
ATOM     12  C   UNL     1      -5.554   4.730 130.938  0.00  0.00    +0.000 C 
ATOM     13  C   UNL     1      -4.736   5.715 130.965  0.00  0.00    +0.000 C 
ATOM     14  C   UNL     1      -4.340   6.286 132.249  0.00  0.00    +0.000 C 
ATOM     15  O   UNL     1      -3.642   5.371 132.621  0.00  0.00    +0.000 OA
ATOM     16  N   UNL     1      -3.518   7.558 132.412  0.00  0.00    +0.000 N 
ATOM     17  C   UNL     1      -3.012   7.963 133.614  0.00  0.00    +0.000 C 
ATOM     18  C   UNL     1      -2.245   9.132 133.529  0.00  0.00    +0.000 C 
ATOM     19  C   UNL     1      -1.608   9.812 134.535  0.00  0.00    +0.000 C 
ATOM     20  C   UNL     1      -0.816  11.033 134.420  0.00  0.00    +0.000 C 
ATOM     21  C   UNL     1      -0.659  11.655 132.746  0.00  0.00    +0.000 C 
ATOM     22  C   UNL     1      -0.246  11.600 135.488  0.00  0.00    +0.000 C 
ATOM     23  C   UNL     1       0.603  12.612 135.548  0.00  0.00    +0.000 C 
ATOM     24  C   UNL     1       1.135  13.289 136.719  0.00  0.00    +0.000 C 
ATOM     25  C   UNL     1       1.864  14.594 136.534  0.00  0.00    +0.000 C 
ATOM     26  O   UNL     1       0.664  15.653 135.889  0.00  0.00    +0.000 OA
ATOM     27  C   UNL     1       2.479  15.214 137.446  0.00  0.00    +0.000 C 
ATOM     28  C   UNL     1       1.086  14.091 135.408  0.00  0.00    +0.000 A 
ATOM     29  N   UNL     1      -0.363  12.431 133.987  0.00  0.00    +0.000 NA
ATOM     30  C   UNL     1      -2.064  10.386 132.456  0.00  0.00    +0.000 A 
ATOM     31  C   UNL     1      -0.175  12.504 133.541  0.00  0.00    +0.000 A 
ATOM     32  O   UNL     1       1.621  14.270 134.502  0.00  0.00    +0.000 OA
ATOM     33  C   UNL     1      -4.229   7.570 130.942  0.00  0.00    +0.000 C 
ATOM     34  O   UNL     1      -5.845   6.624 130.448  0.00  0.00    +0.000 OA
ATOM     35  H   UNL     1      -3.291   8.173 131.566  0.00  0.00    +0.000 HD
ENDROOT
BRANCH   1  36
ATOM     36  S   UNL     1      -8.421   0.812 124.158  0.00  0.00    +0.000 S 
ATOM     37  O   UNL     1      -8.332   2.187 123.587  0.00  0.00    +0.000 OA
ATOM     38  O   UNL     1      -9.769   0.195 123.899  0.00  0.00    +0.000 OA
BRANCH  36  39
ATOM     39  C   UNL     1      -7.143  -0.242 123.404  0.00  0.00    +0.000 C 
BRANCH  39  40
ATOM     40  C   UNL     1      -7.788  -1.495 122.847  0.00  0.00    +0.000 C 
BRANCH  40  41
ATOM     41  N   UNL     1      -7.054  -2.682 123.304  0.00  0.00    +0.000 NA
BRANCH  41  43
ATOM     42  C   UNL     1      -4.708  -3.300 123.598  0.00  0.00    +0.000 C 
ATOM     43  C   UNL     1      -5.768  -2.275 123.885  0.00  0.00    +0.000 C 
ENDBRANCH  41  43
BRANCH  41  44
ATOM     44  C   UNL     1      -7.844  -3.389 124.319  0.00  0.00    +0.000 C 
ATOM     45  C   UNL     1      -9.310  -3.287 124.020  0.00  0.00    +0.000 C 
ENDBRANCH  41  44
ENDBRANCH  40  41
ENDBRANCH  39  40
ENDBRANCH  36  39
ENDBRANCH   1  36
BRANCH   9  46
ATOM     46  C   UNL     1      -8.191   3.301 130.578  0.00  0.00    +0.000 C 
ATOM     47  C   UNL     1      -8.382   4.743 130.212  0.00  0.00    +0.000 C 
ATOM     48  C   UNL     1      -7.897   3.199 132.057  0.00  0.00    +0.000 C 
ENDBRANCH   9  46
BRANCH  23  49
ATOM     49  O   UNL     1      -0.663  14.088 134.800  0.00  0.00    +0.000 OA
ATOM     50  H   UNL     1      -0.259  14.666 135.188  0.00  0.00    +0.000 HD
ENDBRANCH  23  49
TORSDOF 8
ENDMDL
MODEL 4
REMARK VINA RESULT:      -9.6      6.195      6.590
REMARK  Name = Dalfopristin
REMARK  14 active torsions:
REMARK  status: ('A' for Active; 'I' for Inactive)
REMARK    1  A    between atoms: C_1  and  C_2
REMARK    2  A    between atoms: C_2  and  N_3
REMARK    3  A    between atoms: N_3  and  C_4
REMARK    4  A    between atoms: N_3  and  C_6
REMARK    5  A    between atoms: C_4  and  C_5
REMARK    6  A    between atoms: C_6  and  C_7
REMARK    7  A    between atoms: C_7  and  S_8
REMARK    8  A    between atoms: S_8  and  C_11
REMARK    9  A    between atoms: C_19  and  C_20
REMARK   10  A    between atoms: C_20  and  C_21
REMARK   11  A    between atoms: C_20  and  C_22
REMARK   12  A    between atoms: C_23  and  C_24
REMARK   13  A    between atoms: C_33  and  C_34
REMARK   14  A    between atoms: C_36  and  O_37
REMARK                            x       y       z     vdW  Elec       q    Type
REMARK                         _______ _______ _______ _____ _____    ______ ____
ROOT
ATOM      1  C   UNL     1      -7.477   0.848 126.375  0.00  0.00    +0.000 C 
ATOM      2  C   UNL     1      -6.139   0.351 126.186  0.00  0.00    +0.000 C 
ATOM      3  C   UNL     1      -6.971   1.093 128.747  0.00  0.00    +0.000 C 
ATOM      4  N   UNL     1      -8.170   3.116 131.404  0.00  0.00    +0.000 N 
ATOM      5  C   UNL     1      -8.234   1.353 128.905  0.00  0.00    +0.000 C 
ATOM      6  C   UNL     1      -7.729  -0.222 128.887  0.00  0.00    +0.000 C 
ATOM      7  O   UNL     1      -6.033  -0.178 128.623  0.00  0.00    +0.000 OA
ATOM      8  O   UNL     1      -7.913   1.698 129.190  0.00  0.00    +0.000 OA
ATOM      9  C   UNL     1      -7.180   1.379 130.590  0.00  0.00    +0.000 C 
ATOM     10  C   UNL     1      -7.094   3.570 131.159  0.00  0.00    +0.000 C 
ATOM     11  C   UNL     1      -7.412   3.868 130.006  0.00  0.00    +0.000 C 
ATOM     12  C   UNL     1      -7.287   2.899 132.533  0.00  0.00    +0.000 C 
ATOM     13  C   UNL     1      -7.513   4.034 133.081  0.00  0.00    +0.000 C 
ATOM     14  C   UNL     1      -7.274   4.203 134.511  0.00  0.00    +0.000 C 
ATOM     15  O   UNL     1      -6.065   4.181 134.474  0.00  0.00    +0.000 OA
ATOM     16  N   UNL     1      -7.664   5.438 135.313  0.00  0.00    +0.000 N 
ATOM     17  C   UNL     1      -7.264   5.640 136.603  0.00  0.00    +0.000 C 
ATOM     18  C   UNL     1      -7.692   6.864 137.133  0.00  0.00    +0.000 C 
ATOM     19  C   UNL     1      -7.481   7.372 138.388  0.00  0.00    +0.000 C 
ATOM     20  C   UNL     1      -7.944   8.652 138.919  0.00  0.00    +0.000 C 
ATOM     21  C   UNL     1      -8.857   9.650 137.744  0.00  0.00    +0.000 C 
ATOM     22  C   UNL     1      -7.668   9.030 140.171  0.00  0.00    +0.000 C 
ATOM     23  C   UNL     1      -7.885  10.192 140.763  0.00  0.00    +0.000 C 
ATOM     24  C   UNL     1      -7.680  10.561 142.155  0.00  0.00    +0.000 C 
ATOM     25  C   UNL     1      -8.264  11.855 142.657  0.00  0.00    +0.000 C 
ATOM     26  O   UNL     1      -9.967  11.639 142.479  0.00  0.00    +0.000 OA
ATOM     27  C   UNL     1      -8.052  12.348 143.799  0.00  0.00    +0.000 C 
ATOM     28  C   UNL     1      -8.729  11.362 141.366  0.00  0.00    +0.000 A 
ATOM     29  N   UNL     1      -8.842   9.855 139.222  0.00  0.00    +0.000 NA
ATOM     30  C   UNL     1      -8.858   7.993 136.783  0.00  0.00    +0.000 A 
ATOM     31  C   UNL     1      -8.930  10.192 138.878  0.00  0.00    +0.000 A 
ATOM     32  O   UNL     1      -8.840  12.184 140.693  0.00  0.00    +0.000 OA
ATOM     33  C   UNL     1      -8.580   5.370 133.963  0.00  0.00    +0.000 C 
ATOM     34  O   UNL     1      -9.010   3.774 132.954  0.00  0.00    +0.000 OA
ATOM     35  H   UNL     1      -8.259   6.210 134.870  0.00  0.00    +0.000 HD
ENDROOT
BRANCH   1  36
ATOM     36  S   UNL     1      -8.352   0.940 124.498  0.00  0.00    +0.000 S 
ATOM     37  O   UNL     1      -9.787   0.593 124.711  0.00  0.00    +0.000 OA
ATOM     38  O   UNL     1      -7.741   0.104 123.406  0.00  0.00    +0.000 OA
BRANCH  36  39
ATOM     39  C   UNL     1      -8.214   2.694 124.034  0.00  0.00    +0.000 C 
BRANCH  39  40
ATOM     40  C   UNL     1      -8.471   2.844 122.548  0.00  0.00    +0.000 C 
BRANCH  40  41
ATOM     41  N   UNL     1      -7.208   3.093 121.844  0.00  0.00    +0.000 NA
BRANCH  41  43
ATOM     42  C   UNL     1      -8.933   3.914 120.320  0.00  0.00    +0.000 C 
ATOM     43  C   UNL     1      -7.464   3.886 120.635  0.00  0.00    +0.000 C 
ENDBRANCH  41  43
BRANCH  41  44
ATOM     44  C   UNL     1      -6.290   3.828 122.722  0.00  0.00    +0.000 C 
ATOM     45  C   UNL     1      -5.048   4.228 121.983  0.00  0.00    +0.000 C 
ENDBRANCH  41  44
ENDBRANCH  40  41
ENDBRANCH  39  40
ENDBRANCH  36  39
ENDBRANCH   1  36
BRANCH   9  46
ATOM     46  C   UNL     1      -7.926   0.202 131.334  0.00  0.00    +0.000 C 
ATOM     47  C   UNL     1      -9.208   0.897 131.687  0.00  0.00    +0.000 C 
ATOM     48  C   UNL     1      -7.175  -0.129 132.604  0.00  0.00    +0.000 C 
ENDBRANCH   9  46
BRANCH  23  49
ATOM     49  O   UNL     1      -9.967  10.166 140.682  0.00  0.00    +0.000 OA
ATOM     50  H   UNL     1      -9.963   9.573 140.138  0.00  0.00    +0.000 HD
ENDBRANCH  23  49
TORSDOF 8
ENDMDL
MODEL 5
REMARK VINA RESULT:      -9.4      3.236      3.700
REMARK  Name = Dalfopristin
REMARK  14 active torsions:
REMARK  status: ('A' for Active; 'I' for Inactive)
REMARK    1  A    between atoms: C_1  and  C_2
REMARK    2  A    between atoms: C_2  and  N_3
REMARK    3  A    between atoms: N_3  and  C_4
REMARK    4  A    between atoms: N_3  and  C_6
REMARK    5  A    between atoms: C_4  and  C_5
REMARK    6  A    between atoms: C_6  and  C_7
REMARK    7  A    between atoms: C_7  and  S_8
REMARK    8  A    between atoms: S_8  and  C_11
REMARK    9  A    between atoms: C_19  and  C_20
REMARK   10  A    between atoms: C_20  and  C_21
REMARK   11  A    between atoms: C_20  and  C_22
REMARK   12  A    between atoms: C_23  and  C_24
REMARK   13  A    between atoms: C_33  and  C_34
REMARK   14  A    between atoms: C_36  and  O_37
REMARK                            x       y       z     vdW  Elec       q    Type
REMARK                         _______ _______ _______ _____ _____    ______ ____
ROOT
ATOM      1  C   UNL     1      -7.508  -1.106 129.022  0.00  0.00    +0.000 C 
ATOM      2  C   UNL     1      -7.417  -2.222 129.926  0.00  0.00    +0.000 C 
ATOM      3  C   UNL     1      -7.134   0.371 130.925  0.00  0.00    +0.000 C 
ATOM      4  N   UNL     1      -5.831   3.639 131.388  0.00  0.00    +0.000 N 
ATOM      5  C   UNL     1      -7.411   1.348 130.116  0.00  0.00    +0.000 C 
ATOM      6  C   UNL     1      -8.646   0.558 130.880  0.00  0.00    +0.000 C 
ATOM      7  O   UNL     1      -7.914  -0.677 131.823  0.00  0.00    +0.000 OA
ATOM      8  O   UNL     1      -6.972   1.457 130.431  0.00  0.00    +0.000 OA
ATOM      9  C   UNL     1      -7.000   1.921 131.974  0.00  0.00    +0.000 C 
ATOM     10  C   UNL     1      -4.975   2.924 131.812  0.00  0.00    +0.000 C 
ATOM     11  C   UNL     1      -4.804   2.374 130.723  0.00  0.00    +0.000 C 
ATOM     12  C   UNL     1      -5.698   3.843 132.816  0.00  0.00    +0.000 C 
ATOM     13  C   UNL     1      -4.765   4.715 132.725  0.00  0.00    +0.000 C 
ATOM     14  C   UNL     1      -4.547   5.653 133.823  0.00  0.00    +0.000 C 
ATOM     15  O   UNL     1      -4.077   4.866 134.613  0.00  0.00    +0.000 OA
ATOM     16  N   UNL     1      -3.594   6.840 133.769  0.00  0.00    +0.000 N 
ATOM     17  C   UNL     1      -3.277   7.585 134.868  0.00  0.00    +0.000 C 
ATOM     18  C   UNL     1      -2.344   8.597 134.606  0.00  0.00    +0.000 C 
ATOM     19  C   UNL     1      -1.823   9.524 135.469  0.00  0.00    +0.000 C 
ATOM     20  C   UNL     1      -0.853  10.573 135.168  0.00  0.00    +0.000 C 
ATOM     21  C   UNL     1      -0.282  10.584 133.469  0.00  0.00    +0.000 C 
ATOM     22  C   UNL     1      -0.424  11.421 136.109  0.00  0.00    +0.000 C 
ATOM     23  C   UNL     1       0.537  12.327 136.047  0.00  0.00    +0.000 C 
ATOM     24  C   UNL     1       0.924  13.316 137.040  0.00  0.00    +0.000 C 
ATOM     25  C   UNL     1       1.859  14.424 136.633  0.00  0.00    +0.000 C 
ATOM     26  O   UNL     1       0.978  15.293 135.431  0.00  0.00    +0.000 OA
ATOM     27  C   UNL     1       2.370  15.266 137.424  0.00  0.00    +0.000 C 
ATOM     28  C   UNL     1       1.251  13.633 135.571  0.00  0.00    +0.000 A 
ATOM     29  N   UNL     1      -0.123  11.706 134.440  0.00  0.00    +0.000 NA
ATOM     30  C   UNL     1      -1.776   9.401 133.269  0.00  0.00    +0.000 A 
ATOM     31  C   UNL     1       0.157  11.611 134.050  0.00  0.00    +0.000 A 
ATOM     32  O   UNL     1       1.973  13.457 134.805  0.00  0.00    +0.000 OA
ATOM     33  C   UNL     1      -3.995   6.411 132.246  0.00  0.00    +0.000 C 
ATOM     34  O   UNL     1      -5.605   5.479 131.708  0.00  0.00    +0.000 OA
ATOM     35  H   UNL     1      -3.118   7.116 132.851  0.00  0.00    +0.000 HD
ENDROOT
BRANCH   1  36
ATOM     36  S   UNL     1      -7.734  -1.895 127.118  0.00  0.00    +0.000 S 
ATOM     37  O   UNL     1      -8.346  -0.804 126.307  0.00  0.00    +0.000 OA
ATOM     38  O   UNL     1      -8.508  -3.179 126.987  0.00  0.00    +0.000 OA
BRANCH  36  39
ATOM     39  C   UNL     1      -6.027  -2.184 126.556  0.00  0.00    +0.000 C 
BRANCH  39  40
ATOM     40  C   UNL     1      -5.867  -1.662 125.143  0.00  0.00    +0.000 C 
BRANCH  40  41
ATOM     41  N   UNL     1      -6.199  -2.718 124.178  0.00  0.00    +0.000 NA
BRANCH  41  43
ATOM     42  C   UNL     1      -8.529  -2.960 123.483  0.00  0.00    +0.000 C 
ATOM     43  C   UNL     1      -7.232  -2.236 123.254  0.00  0.00    +0.000 C 
ENDBRANCH  41  43
BRANCH  41  44
ATOM     44  C   UNL     1      -4.998  -3.085 123.417  0.00  0.00    +0.000 C 
ATOM     45  C   UNL     1      -4.542  -4.468 123.775  0.00  0.00    +0.000 C 
ENDBRANCH  41  44
ENDBRANCH  40  41
ENDBRANCH  39  40
ENDBRANCH  36  39
ENDBRANCH   1  36
BRANCH   9  46
ATOM     46  C   UNL     1      -8.395   2.579 132.315  0.00  0.00    +0.000 C 
ATOM     47  C   UNL     1      -8.357   3.752 131.381  0.00  0.00    +0.000 C 
ATOM     48  C   UNL     1      -8.365   3.080 133.741  0.00  0.00    +0.000 C 
ENDBRANCH   9  46
BRANCH  23  49
ATOM     49  O   UNL     1      -0.327  13.557 134.605  0.00  0.00    +0.000 OA
ATOM     50  H   UNL     1       0.111  13.221 134.019  0.00  0.00    +0.000 HD
ENDBRANCH  23  49
TORSDOF 8
ENDMDL
MODEL 6
REMARK VINA RESULT:      -8.9      2.898      5.231
REMARK  Name = Dalfopristin
REMARK  14 active torsions:
REMARK  status: ('A' for Active; 'I' for Inactive)
REMARK    1  A    between atoms: C_1  and  C_2
REMARK    2  A    between atoms: C_2  and  N_3
REMARK    3  A    between atoms: N_3  and  C_4
REMARK    4  A    between atoms: N_3  and  C_6
REMARK    5  A    between atoms: C_4  and  C_5
REMARK    6  A    between atoms: C_6  and  C_7
REMARK    7  A    between atoms: C_7  and  S_8
REMARK    8  A    between atoms: S_8  and  C_11
REMARK    9  A    between atoms: C_19  and  C_20
REMARK   10  A    between atoms: C_20  and  C_21
REMARK   11  A    between atoms: C_20  and  C_22
REMARK   12  A    between atoms: C_23  and  C_24
REMARK   13  A    between atoms: C_33  and  C_34
REMARK   14  A    between atoms: C_36  and  O_37
REMARK                            x       y       z     vdW  Elec       q    Type
REMARK                         _______ _______ _______ _____ _____    ______ ____
ROOT
ATOM      1  C   UNL     1      -8.470  -0.276 126.148  0.00  0.00    +0.000 C 
ATOM      2  C   UNL     1      -9.745   0.283 125.779  0.00  0.00    +0.000 C 
ATOM      3  C   UNL     1      -7.676   1.993 126.555  0.00  0.00    +0.000 C 
ATOM      4  N   UNL     1      -5.166   3.482 128.572  0.00  0.00    +0.000 N 
ATOM      5  C   UNL     1      -6.498   1.466 126.694  0.00  0.00    +0.000 C 
ATOM      6  C   UNL     1      -7.037   1.851 125.179  0.00  0.00    +0.000 C 
ATOM      7  O   UNL     1      -8.623   2.477 125.380  0.00  0.00    +0.000 OA
ATOM      8  O   UNL     1      -6.605   1.842 127.084  0.00  0.00    +0.000 OA
ATOM      9  C   UNL     1      -6.538   3.443 126.906  0.00  0.00    +0.000 C 
ATOM     10  C   UNL     1      -6.185   3.772 129.120  0.00  0.00    +0.000 C 
ATOM     11  C   UNL     1      -6.483   2.595 129.330  0.00  0.00    +0.000 C 
ATOM     12  C   UNL     1      -5.360   4.916 128.500  0.00  0.00    +0.000 C 
ATOM     13  C   UNL     1      -4.815   5.168 129.631  0.00  0.00    +0.000 C 
ATOM     14  C   UNL     1      -4.279   6.500 129.891  0.00  0.00    +0.000 C 
ATOM     15  O   UNL     1      -5.335   7.081 129.989  0.00  0.00    +0.000 OA
ATOM     16  N   UNL     1      -3.458   6.877 131.118  0.00  0.00    +0.000 N 
ATOM     17  C   UNL     1      -3.129   8.168 131.420  0.00  0.00    +0.000 C 
ATOM     18  C   UNL     1      -2.415   8.294 132.618  0.00  0.00    +0.000 C 
ATOM     19  C   UNL     1      -1.923   9.431 133.205  0.00  0.00    +0.000 C 
ATOM     20  C   UNL     1      -1.177   9.535 134.456  0.00  0.00    +0.000 C 
ATOM     21  C   UNL     1      -0.932   7.973 135.301  0.00  0.00    +0.000 C 
ATOM     22  C   UNL     1      -0.749  10.714 134.919  0.00  0.00    +0.000 C 
ATOM     23  C   UNL     1      -0.189  11.006 136.081  0.00  0.00    +0.000 C 
ATOM     24  C   UNL     1       0.369  12.269 136.534  0.00  0.00    +0.000 C 
ATOM     25  C   UNL     1       1.207  12.286 137.785  0.00  0.00    +0.000 C 
ATOM     26  O   UNL     1       2.563  11.294 137.392  0.00  0.00    +0.000 OA
ATOM     27  C   UNL     1       1.639  13.328 138.351  0.00  0.00    +0.000 C 
ATOM     28  C   UNL     1       0.915  10.989 137.187  0.00  0.00    +0.000 A 
ATOM     29  N   UNL     1      -0.178   9.231 135.576  0.00  0.00    +0.000 NA
ATOM     30  C   UNL     1      -1.525   7.301 133.607  0.00  0.00    +0.000 A 
ATOM     31  C   UNL     1      -0.256   8.860 135.885  0.00  0.00    +0.000 A 
ATOM     32  O   UNL     1       0.718  10.280 137.961  0.00  0.00    +0.000 OA
ATOM     33  C   UNL     1      -3.368   5.263 130.894  0.00  0.00    +0.000 C 
ATOM     34  O   UNL     1      -3.612   4.327 129.217  0.00  0.00    +0.000 OA
ATOM     35  H   UNL     1      -3.127   6.126 131.804  0.00  0.00    +0.000 HD
ENDROOT
BRANCH   1  36
ATOM     36  S   UNL     1      -8.673  -2.337 126.062  0.00  0.00    +0.000 S 
ATOM     37  O   UNL     1      -7.559  -2.810 125.191  0.00  0.00    +0.000 OA
ATOM     38  O   UNL     1      -9.999  -2.885 125.606  0.00  0.00    +0.000 OA
BRANCH  36  39
ATOM     39  C   UNL     1      -8.377  -2.880 127.774  0.00  0.00    +0.000 C 
BRANCH  39  40
ATOM     40  C   UNL     1      -6.898  -2.775 128.087  0.00  0.00    +0.000 C 
BRANCH  40  41
ATOM     41  N   UNL     1      -6.709  -2.209 129.428  0.00  0.00    +0.000 NA
BRANCH  41  43
ATOM     42  C   UNL     1      -8.111  -0.916 130.955  0.00  0.00    +0.000 C 
ATOM     43  C   UNL     1      -7.526  -0.998 129.573  0.00  0.00    +0.000 C 
ENDBRANCH  41  43
BRANCH  41  44
ATOM     44  C   UNL     1      -7.112  -3.192 130.440  0.00  0.00    +0.000 C 
ATOM     45  C   UNL     1      -5.955  -4.066 130.826  0.00  0.00    +0.000 C 
ENDBRANCH  41  44
ENDBRANCH  40  41
ENDBRANCH  39  40
ENDBRANCH  36  39
ENDBRANCH   1  36
BRANCH   9  46
ATOM     46  C   UNL     1      -5.591   3.813 125.698  0.00  0.00    +0.000 C 
ATOM     47  C   UNL     1      -4.260   3.489 126.310  0.00  0.00    +0.000 C 
ATOM     48  C   UNL     1      -5.674   5.302 125.449  0.00  0.00    +0.000 C 
ENDBRANCH   9  46
BRANCH  23  49
ATOM     49  O   UNL     1       1.553   9.887 135.842  0.00  0.00    +0.000 OA
ATOM     50  H   UNL     1       1.141   9.196 135.858  0.00  0.00    +0.000 HD
ENDBRANCH  23  49
TORSDOF 8
ENDMDL
MODEL 7
REMARK VINA RESULT:      -8.9      1.845      2.434
REMARK  Name = Dalfopristin
REMARK  14 active torsions:
REMARK  status: ('A' for Active; 'I' for Inactive)
REMARK    1  A    between atoms: C_1  and  C_2
REMARK    2  A    between atoms: C_2  and  N_3
REMARK    3  A    between atoms: N_3  and  C_4
REMARK    4  A    between atoms: N_3  and  C_6
REMARK    5  A    between atoms: C_4  and  C_5
REMARK    6  A    between atoms: C_6  and  C_7
REMARK    7  A    between atoms: C_7  and  S_8
REMARK    8  A    between atoms: S_8  and  C_11
REMARK    9  A    between atoms: C_19  and  C_20
REMARK   10  A    between atoms: C_20  and  C_21
REMARK   11  A    between atoms: C_20  and  C_22
REMARK   12  A    between atoms: C_23  and  C_24
REMARK   13  A    between atoms: C_33  and  C_34
REMARK   14  A    between atoms: C_36  and  O_37
REMARK                            x       y       z     vdW  Elec       q    Type
REMARK                         _______ _______ _______ _____ _____    ______ ____
ROOT
ATOM      1  C   UNL     1      -7.243  -0.598 127.947  0.00  0.00    +0.000 C 
ATOM      2  C   UNL     1      -6.942  -1.809 128.665  0.00  0.00    +0.000 C 
ATOM      3  C   UNL     1      -6.750   0.646 129.985  0.00  0.00    +0.000 C 
ATOM      4  N   UNL     1      -5.676   3.939 130.753  0.00  0.00    +0.000 N 
ATOM      5  C   UNL     1      -7.211   1.688 129.362  0.00  0.00    +0.000 C 
ATOM      6  C   UNL     1      -8.265   0.683 130.145  0.00  0.00    +0.000 C 
ATOM      7  O   UNL     1      -7.315  -0.585 130.808  0.00  0.00    +0.000 OA
ATOM      8  O   UNL     1      -6.745   1.798 129.635  0.00  0.00    +0.000 OA
ATOM      9  C   UNL     1      -6.610   2.050 131.222  0.00  0.00    +0.000 C 
ATOM     10  C   UNL     1      -4.715   3.266 130.968  0.00  0.00    +0.000 C 
ATOM     11  C   UNL     1      -4.642   2.884 129.798  0.00  0.00    +0.000 C 
ATOM     12  C   UNL     1      -5.375   3.966 132.171  0.00  0.00    +0.000 C 
ATOM     13  C   UNL     1      -4.538   4.933 132.097  0.00  0.00    +0.000 C 
ATOM     14  C   UNL     1      -4.258   5.735 133.284  0.00  0.00    +0.000 C 
ATOM     15  O   UNL     1      -3.625   4.903 133.892  0.00  0.00    +0.000 OA
ATOM     16  N   UNL     1      -3.424   7.009 133.288  0.00  0.00    +0.000 N 
ATOM     17  C   UNL     1      -3.030   7.632 134.438  0.00  0.00    +0.000 C 
ATOM     18  C   UNL     1      -2.228   8.758 134.215  0.00  0.00    +0.000 C 
ATOM     19  C   UNL     1      -1.678   9.612 135.135  0.00  0.00    +0.000 C 
ATOM     20  C   UNL     1      -0.846  10.784 134.874  0.00  0.00    +0.000 C 
ATOM     21  C   UNL     1      -0.505  11.076 133.139  0.00  0.00    +0.000 C 
ATOM     22  C   UNL     1      -0.372  11.540 135.870  0.00  0.00    +0.000 C 
ATOM     23  C   UNL     1       0.494  12.539 135.826  0.00  0.00    +0.000 C 
ATOM     24  C   UNL     1       0.923  13.423 136.897  0.00  0.00    +0.000 C 
ATOM     25  C   UNL     1       1.701  14.664 136.546  0.00  0.00    +0.000 C 
ATOM     26  O   UNL     1       0.600  15.589 135.593  0.00  0.00    +0.000 OA
ATOM     27  C   UNL     1       2.238  15.441 137.384  0.00  0.00    +0.000 C 
ATOM     28  C   UNL     1       1.027  13.962 135.461  0.00  0.00    +0.000 A 
ATOM     29  N   UNL     1      -0.316  12.071 134.235  0.00  0.00    +0.000 NA
ATOM     30  C   UNL     1      -1.908   9.784 132.950  0.00  0.00    +0.000 A 
ATOM     31  C   UNL     1      -0.082  12.057 133.806  0.00  0.00    +0.000 A 
ATOM     32  O   UNL     1       1.655  13.961 134.597  0.00  0.00    +0.000 OA
ATOM     33  C   UNL     1      -3.983   6.747 131.777  0.00  0.00    +0.000 C 
ATOM     34  O   UNL     1      -5.566   5.735 131.305  0.00  0.00    +0.000 OA
ATOM     35  H   UNL     1      -3.097   7.451 132.369  0.00  0.00    +0.000 HD
ENDROOT
BRANCH   1  36
ATOM     36  S   UNL     1      -7.649  -1.148 125.990  0.00  0.00    +0.000 S 
ATOM     37  O   UNL     1      -9.132  -1.063 125.853  0.00  0.00    +0.000 OA
ATOM     38  O   UNL     1      -7.129  -2.481 125.523  0.00  0.00    +0.000 OA
BRANCH  36  39
ATOM     39  C   UNL     1      -6.871   0.162 124.994  0.00  0.00    +0.000 C 
BRANCH  39  40
ATOM     40  C   UNL     1      -7.695   0.401 123.745  0.00  0.00    +0.000 C 
BRANCH  40  41
ATOM     41  N   UNL     1      -8.040   1.824 123.638  0.00  0.00    +0.000 NA
BRANCH  41  43
ATOM     42  C   UNL     1      -6.324   3.559 123.513  0.00  0.00    +0.000 C 
ATOM     43  C   UNL     1      -7.079   2.501 122.759  0.00  0.00    +0.000 C 
ENDBRANCH  41  43
BRANCH  41  44
ATOM     44  C   UNL     1      -9.391   1.963 123.081  0.00  0.00    +0.000 C 
ATOM     45  C   UNL     1      -9.958   0.623 122.718  0.00  0.00    +0.000 C 
ENDBRANCH  41  44
ENDBRANCH  40  41
ENDBRANCH  39  40
ENDBRANCH  36  39
ENDBRANCH   1  36
BRANCH   9  46
ATOM     46  C   UNL     1      -7.999   2.513 131.815  0.00  0.00    +0.000 C 
ATOM     47  C   UNL     1      -8.119   3.857 131.159  0.00  0.00    +0.000 C 
ATOM     48  C   UNL     1      -7.855   2.701 133.308  0.00  0.00    +0.000 C 
ENDBRANCH   9  46
BRANCH  23  49
ATOM     49  O   UNL     1      -0.652  13.854 134.686  0.00  0.00    +0.000 OA
ATOM     50  H   UNL     1      -0.704  14.377 135.297  0.00  0.00    +0.000 HD
ENDBRANCH  23  49
TORSDOF 8
ENDMDL
MODEL 8
REMARK VINA RESULT:      -8.8      4.356     14.653
REMARK  Name = Dalfopristin
REMARK  14 active torsions:
REMARK  status: ('A' for Active; 'I' for Inactive)
REMARK    1  A    between atoms: C_1  and  C_2
REMARK    2  A    between atoms: C_2  and  N_3
REMARK    3  A    between atoms: N_3  and  C_4
REMARK    4  A    between atoms: N_3  and  C_6
REMARK    5  A    between atoms: C_4  and  C_5
REMARK    6  A    between atoms: C_6  and  C_7
REMARK    7  A    between atoms: C_7  and  S_8
REMARK    8  A    between atoms: S_8  and  C_11
REMARK    9  A    between atoms: C_19  and  C_20
REMARK   10  A    between atoms: C_20  and  C_21
REMARK   11  A    between atoms: C_20  and  C_22
REMARK   12  A    between atoms: C_23  and  C_24
REMARK   13  A    between atoms: C_33  and  C_34
REMARK   14  A    between atoms: C_36  and  O_37
REMARK                            x       y       z     vdW  Elec       q    Type
REMARK                         _______ _______ _______ _____ _____    ______ ____
ROOT
ATOM      1  C   UNL     1      -1.224  10.189 136.338  0.00  0.00    +0.000 C 
ATOM      2  C   UNL     1      -2.187  11.225 136.612  0.00  0.00    +0.000 C 
ATOM      3  C   UNL     1      -3.080   8.724 135.746  0.00  0.00    +0.000 C 
ATOM      4  N   UNL     1      -3.504   5.871 133.680  0.00  0.00    +0.000 N 
ATOM      5  C   UNL     1      -2.201   7.769 135.695  0.00  0.00    +0.000 C 
ATOM      6  C   UNL     1      -2.883   8.163 137.149  0.00  0.00    +0.000 C 
ATOM      7  O   UNL     1      -3.949   9.472 136.839  0.00  0.00    +0.000 OA
ATOM      8  O   UNL     1      -2.551   7.753 135.268  0.00  0.00    +0.000 OA
ATOM      9  C   UNL     1      -4.060   7.188 135.297  0.00  0.00    +0.000 C 
ATOM     10  C   UNL     1      -4.042   6.747 133.075  0.00  0.00    +0.000 C 
ATOM     11  C   UNL     1      -3.002   7.399 132.967  0.00  0.00    +0.000 C 
ATOM     12  C   UNL     1      -4.927   5.605 133.612  0.00  0.00    +0.000 C 
ATOM     13  C   UNL     1      -4.883   5.007 132.480  0.00  0.00    +0.000 C 
ATOM     14  C   UNL     1      -5.949   4.080 132.114  0.00  0.00    +0.000 C 
ATOM     15  O   UNL     1      -6.817   4.901 131.928  0.00  0.00    +0.000 OA
ATOM     16  N   UNL     1      -5.928   3.182 130.884  0.00  0.00    +0.000 N 
ATOM     17  C   UNL     1      -7.014   2.464 130.473  0.00  0.00    +0.000 C 
ATOM     18  C   UNL     1      -6.792   1.745 129.292  0.00  0.00    +0.000 C 
ATOM     19  C   UNL     1      -7.655   0.921 128.617  0.00  0.00    +0.000 C 
ATOM     20  C   UNL     1      -7.396   0.178 127.387  0.00  0.00    +0.000 C 
ATOM     21  C   UNL     1      -5.761   0.434 126.700  0.00  0.00    +0.000 C 
ATOM     22  C   UNL     1      -8.331  -0.598 126.829  0.00  0.00    +0.000 C 
ATOM     23  C   UNL     1      -8.317  -1.223 125.664  0.00  0.00    +0.000 C 
ATOM     24  C   UNL     1      -9.292  -2.150 125.113  0.00  0.00    +0.000 C 
ATOM     25  C   UNL     1      -8.923  -2.952 123.893  0.00  0.00    +0.000 C 
ATOM     26  O   UNL     1      -7.601  -3.928 124.421  0.00  0.00    +0.000 OA
ATOM     27  C   UNL     1      -9.717  -3.690 123.246  0.00  0.00    +0.000 C 
ATOM     28  C   UNL     1      -7.847  -2.268 124.600  0.00  0.00    +0.000 A 
ATOM     29  N   UNL     1      -6.686  -0.677 126.333  0.00  0.00    +0.000 NA
ATOM     30  C   UNL     1      -5.478   1.210 128.430  0.00  0.00    +0.000 A 
ATOM     31  C   UNL     1      -6.330  -0.487 126.057  0.00  0.00    +0.000 A 
ATOM     32  O   UNL     1      -7.162  -1.859 123.890  0.00  0.00    +0.000 OA
ATOM     33  C   UNL     1      -4.396   3.602 131.261  0.00  0.00    +0.000 C 
ATOM     34  O   UNL     1      -3.754   4.130 133.010  0.00  0.00    +0.000 OA
ATOM     35  H   UNL     1      -5.046   3.101 130.282  0.00  0.00    +0.000 HD
ENDROOT
BRANCH   1  36
ATOM     36  S   UNL     1       0.652  11.029 136.610  0.00  0.00    +0.000 S 
ATOM     37  O   UNL     1       1.502   9.933 137.157  0.00  0.00    +0.000 OA
ATOM     38  O   UNL     1       0.740  12.269 137.459  0.00  0.00    +0.000 OA
BRANCH  36  39
ATOM     39  C   UNL     1       1.199  11.438 134.923  0.00  0.00    +0.000 C 
BRANCH  39  40
ATOM     40  C   UNL     1       0.527  12.719 134.472  0.00  0.00    +0.000 C 
BRANCH  40  41
ATOM     41  N   UNL     1      -0.009  12.553 133.116  0.00  0.00    +0.000 NA
BRANCH  41  43
ATOM     42  C   UNL     1       0.506  12.994 130.768  0.00  0.00    +0.000 C 
ATOM     43  C   UNL     1       1.069  12.721 132.134  0.00  0.00    +0.000 C 
ENDBRANCH  41  43
BRANCH  41  44
ATOM     44  C   UNL     1      -0.590  11.213 132.976  0.00  0.00    +0.000 C 
ATOM     45  C   UNL     1      -2.081  11.290 132.833  0.00  0.00    +0.000 C 
ENDBRANCH  41  44
ENDBRANCH  40  41
ENDBRANCH  39  40
ENDBRANCH  36  39
ENDBRANCH   1  36
BRANCH   9  46
ATOM     46  C   UNL     1      -4.234   6.174 136.496  0.00  0.00    +0.000 C 
ATOM     47  C   UNL     1      -3.436   5.018 135.969  0.00  0.00    +0.000 C 
ATOM     48  C   UNL     1      -5.688   5.771 136.589  0.00  0.00    +0.000 C 
ENDBRANCH   9  46
BRANCH  23  49
ATOM     49  O   UNL     1      -6.741  -2.527 126.062  0.00  0.00    +0.000 OA
ATOM     50  H   UNL     1      -6.750  -2.339 126.845  0.00  0.00    +0.000 HD
ENDBRANCH  23  49
TORSDOF 8
ENDMDL
MODEL 9
REMARK VINA RESULT:      -8.4      5.287      6.896
REMARK  Name = Dalfopristin
REMARK  14 active torsions:
REMARK  status: ('A' for Active; 'I' for Inactive)
REMARK    1  A    between atoms: C_1  and  C_2
REMARK    2  A    between atoms: C_2  and  N_3
REMARK    3  A    between atoms: N_3  and  C_4
REMARK    4  A    between atoms: N_3  and  C_6
REMARK    5  A    between atoms: C_4  and  C_5
REMARK    6  A    between atoms: C_6  and  C_7
REMARK    7  A    between atoms: C_7  and  S_8
REMARK    8  A    between atoms: S_8  and  C_11
REMARK    9  A    between atoms: C_19  and  C_20
REMARK   10  A    between atoms: C_20  and  C_21
REMARK   11  A    between atoms: C_20  and  C_22
REMARK   12  A    between atoms: C_23  and  C_24
REMARK   13  A    between atoms: C_33  and  C_34
REMARK   14  A    between atoms: C_36  and  O_37
REMARK                            x       y       z     vdW  Elec       q    Type
REMARK                         _______ _______ _______ _____ _____    ______ ____
ROOT
ATOM      1  C   UNL     1      -7.622   1.288 124.877  0.00  0.00    +0.000 C 
ATOM      2  C   UNL     1      -7.449   2.298 123.865  0.00  0.00    +0.000 C 
ATOM      3  C   UNL     1      -6.331   2.692 126.395  0.00  0.00    +0.000 C 
ATOM      4  N   UNL     1      -6.111   3.096 129.913  0.00  0.00    +0.000 N 
ATOM      5  C   UNL     1      -6.347   1.681 127.210  0.00  0.00    +0.000 C 
ATOM      6  C   UNL     1      -5.183   1.755 126.038  0.00  0.00    +0.000 C 
ATOM      7  O   UNL     1      -5.496   3.186 125.142  0.00  0.00    +0.000 OA
ATOM      8  O   UNL     1      -6.452   2.158 127.468  0.00  0.00    +0.000 OA
ATOM      9  C   UNL     1      -5.362   3.266 127.896  0.00  0.00    +0.000 C 
ATOM     10  C   UNL     1      -6.687   4.074 129.546  0.00  0.00    +0.000 C 
ATOM     11  C   UNL     1      -7.630   3.426 129.089  0.00  0.00    +0.000 C 
ATOM     12  C   UNL     1      -5.284   4.260 130.154  0.00  0.00    +0.000 C 
ATOM     13  C   UNL     1      -5.790   4.532 131.299  0.00  0.00    +0.000 C 
ATOM     14  C   UNL     1      -5.024   5.325 132.256  0.00  0.00    +0.000 C 
ATOM     15  O   UNL     1      -5.110   6.388 131.687  0.00  0.00    +0.000 OA
ATOM     16  N   UNL     1      -5.436   5.569 133.702  0.00  0.00    +0.000 N 
ATOM     17  C   UNL     1      -4.795   6.460 134.514  0.00  0.00    +0.000 C 
ATOM     18  C   UNL     1      -5.367   6.565 135.788  0.00  0.00    +0.000 C 
ATOM     19  C   UNL     1      -4.971   7.346 136.841  0.00  0.00    +0.000 C 
ATOM     20  C   UNL     1      -5.585   7.434 138.164  0.00  0.00    +0.000 C 
ATOM     21  C   UNL     1      -7.041   6.409 138.370  0.00  0.00    +0.000 C 
ATOM     22  C   UNL     1      -5.096   8.241 139.110  0.00  0.00    +0.000 C 
ATOM     23  C   UNL     1      -5.596   8.544 140.296  0.00  0.00    +0.000 C 
ATOM     24  C   UNL     1      -5.005   9.339 141.360  0.00  0.00    +0.000 C 
ATOM     25  C   UNL     1      -5.640   9.310 142.725  0.00  0.00    +0.000 C 
ATOM     26  O   UNL     1      -5.476   7.667 143.226  0.00  0.00    +0.000 OA
ATOM     27  C   UNL     1      -5.304  10.047 143.694  0.00  0.00    +0.000 C 
ATOM     28  C   UNL     1      -6.054   8.291 141.768  0.00  0.00    +0.000 A 
ATOM     29  N   UNL     1      -6.257   7.028 139.479  0.00  0.00    +0.000 NA
ATOM     30  C   UNL     1      -6.381   5.655 136.737  0.00  0.00    +0.000 A 
ATOM     31  C   UNL     1      -6.728   6.898 139.487  0.00  0.00    +0.000 A 
ATOM     32  O   UNL     1      -7.106   8.133 141.855  0.00  0.00    +0.000 OA
ATOM     33  C   UNL     1      -6.184   4.224 133.156  0.00  0.00    +0.000 C 
ATOM     34  O   UNL     1      -5.574   3.082 131.717  0.00  0.00    +0.000 OA
ATOM     35  H   UNL     1      -6.272   5.051 134.126  0.00  0.00    +0.000 HD
ENDROOT
BRANCH   1  36
ATOM     36  S   UNL     1      -8.832  -0.181 124.054  0.00  0.00    +0.000 S 
ATOM     37  O   UNL     1      -7.940  -0.977 123.163  0.00  0.00    +0.000 OA
ATOM     38  O   UNL     1     -10.074   0.268 123.332  0.00  0.00    +0.000 OA
BRANCH  36  39
ATOM     39  C   UNL     1      -9.324  -1.196 125.483  0.00  0.00    +0.000 C 
BRANCH  39  40
ATOM     40  C   UNL     1      -9.013  -2.652 125.198  0.00  0.00    +0.000 C 
BRANCH  40  41
ATOM     41  N   UNL     1      -8.045  -3.159 126.178  0.00  0.00    +0.000 NA
BRANCH  41  43
ATOM     42  C   UNL     1      -5.817  -2.162 126.058  0.00  0.00    +0.000 C 
ATOM     43  C   UNL     1      -7.194  -2.058 126.648  0.00  0.00    +0.000 C 
ENDBRANCH  41  43
BRANCH  41  44
ATOM     44  C   UNL     1      -8.759  -3.743 127.319  0.00  0.00    +0.000 C 
ATOM     45  C   UNL     1      -8.270  -3.159 128.611  0.00  0.00    +0.000 C 
ENDBRANCH  41  44
ENDBRANCH  40  41
ENDBRANCH  39  40
ENDBRANCH  36  39
ENDBRANCH   1  36
BRANCH   9  46
ATOM     46  C   UNL     1      -3.935   2.600 128.023  0.00  0.00    +0.000 C 
ATOM     47  C   UNL     1      -4.139   1.800 129.275  0.00  0.00    +0.000 C 
ATOM     48  C   UNL     1      -2.911   3.681 128.286  0.00  0.00    +0.000 C 
ENDBRANCH   9  46
BRANCH  23  49
ATOM     49  O   UNL     1      -5.491   6.643 141.141  0.00  0.00    +0.000 OA
ATOM     50  H   UNL     1      -6.024   6.351 140.612  0.00  0.00    +0.000 HD
ENDBRANCH  23  49
TORSDOF 8
ENDMDL
