MODEL 1
REMARK VINA RESULT:      -8.5      0.000      0.000
REMARK  Name = Danazol
REMARK  4 active torsions:
REMARK  status: ('A' for Active; 'I' for Inactive)
REMARK    1  A    between atoms: C_5  and  O_6
REMARK    2  A    between atoms: C_5  and  C_7
REMARK    3  A    between atoms: C_9  and  C_10
REMARK    4  A    between atoms: C_24  and  C_25
REMARK                            x       y       z     vdW  Elec       q    Type
REMARK                         _______ _______ _______ _____ _____    ______ ____
ROOT
ATOM      1  C   UNL     1      -8.294  -3.055 125.739  0.00  0.00    +0.000 C 
ATOM      2  C   UNL     1      -9.691  -3.193 125.920  0.00  0.00    +0.000 C 
ATOM      3  C   UNL     1      -9.167  -1.806 125.893  0.00  0.00    +0.000 C 
ATOM      4  C   UNL     1      -7.253  -1.621 125.093  0.00  0.00    +0.000 C 
ATOM      5  C   UNL     1      -8.479  -1.651 124.486  0.00  0.00    +0.000 C 
ATOM      6  C   UNL     1      -8.818  -2.032 123.109  0.00  0.00    +0.000 C 
ATOM      7  C   UNL     1      -8.602   0.106 125.065  0.00  0.00    +0.000 C 
ATOM      8  C   UNL     1      -7.758   0.292 126.524  0.00  0.00    +0.000 C 
ATOM      9  C   UNL     1      -7.831  -0.855 127.719  0.00  0.00    +0.000 C 
ATOM     10  C   UNL     1      -7.449  -2.436 127.240  0.00  0.00    +0.000 C 
ATOM     11  C   UNL     1      -7.725  -3.453 128.309  0.00  0.00    +0.000 C 
ATOM     12  C   UNL     1      -7.116  -3.047 129.627  0.00  0.00    +0.000 C 
ATOM     13  C   UNL     1      -7.468  -1.642 130.057  0.00  0.00    +0.000 C 
ATOM     14  C   UNL     1      -7.983  -1.433 131.287  0.00  0.00    +0.000 C 
ATOM     15  C   UNL     1      -8.313  -0.115 131.647  0.00  0.00    +0.000 A 
ATOM     16  C   UNL     1      -8.562   0.901 130.763  0.00  0.00    +0.000 A 
ATOM     17  C   UNL     1      -7.813   0.913 129.487  0.00  0.00    +0.000 C 
ATOM     18  C   UNL     1      -7.181  -0.487 129.049  0.00  0.00    +0.000 C 
ATOM     19  C   UNL     1      -5.676  -0.406 128.784  0.00  0.00    +0.000 C 
ATOM     20  C   UNL     1      -9.103   1.929 131.551  0.00  0.00    +0.000 A 
ATOM     21  N   UNL     1      -8.617   1.804 132.791  0.00  0.00    +0.000 NA
ATOM     22  O   UNL     1      -8.119   0.505 132.855  0.00  0.00    +0.000 OA
ENDROOT
BRANCH   4  23
ATOM     23  O   UNL     1      -6.647  -0.711 124.109  0.00  0.00    +0.000 OA
ATOM     24  H   UNL     1      -6.778  -0.819 123.161  0.00  0.00    +0.000 HD
ENDBRANCH   4  23
BRANCH   4  25
ATOM     25  C   UNL     1      -6.359  -2.842 124.528  0.00  0.00    +0.000 C 
ATOM     26  C   UNL     1      -5.574  -3.670 124.072  0.00  0.00    +0.000 C 
ENDBRANCH   4  25
TORSDOF 2
ENDMDL
MODEL 2
REMARK VINA RESULT:      -8.3      3.044      6.797
REMARK  Name = Danazol
REMARK  4 active torsions:
REMARK  status: ('A' for Active; 'I' for Inactive)
REMARK    1  A    between atoms: C_5  and  O_6
REMARK    2  A    between atoms: C_5  and  C_7
REMARK    3  A    between atoms: C_9  and  C_10
REMARK    4  A    between atoms: C_24  and  C_25
REMARK                            x       y       z     vdW  Elec       q    Type
REMARK                         _______ _______ _______ _____ _____    ______ ____
ROOT
ATOM      1  C   UNL     1      -6.220  -3.917 130.999  0.00  0.00    +0.000 C 
ATOM      2  C   UNL     1      -5.630  -5.139 130.597  0.00  0.00    +0.000 C 
ATOM      3  C   UNL     1      -4.991  -3.902 130.086  0.00  0.00    +0.000 C 
ATOM      4  C   UNL     1      -5.523  -2.168 131.110  0.00  0.00    +0.000 C 
ATOM      5  C   UNL     1      -4.555  -3.102 131.370  0.00  0.00    +0.000 C 
ATOM      6  C   UNL     1      -3.920  -3.442 132.649  0.00  0.00    +0.000 C 
ATOM      7  C   UNL     1      -3.621  -2.235 130.023  0.00  0.00    +0.000 C 
ATOM      8  C   UNL     1      -4.706  -1.612 128.878  0.00  0.00    +0.000 C 
ATOM      9  C   UNL     1      -6.029  -2.479 128.379  0.00  0.00    +0.000 C 
ATOM     10  C   UNL     1      -7.041  -3.045 129.615  0.00  0.00    +0.000 C 
ATOM     11  C   UNL     1      -8.103  -3.983 129.118  0.00  0.00    +0.000 C 
ATOM     12  C   UNL     1      -8.841  -3.404 127.937  0.00  0.00    +0.000 C 
ATOM     13  C   UNL     1      -7.937  -2.911 126.832  0.00  0.00    +0.000 C 
ATOM     14  C   UNL     1      -8.138  -3.340 125.569  0.00  0.00    +0.000 C 
ATOM     15  C   UNL     1      -7.267  -2.872 124.568  0.00  0.00    +0.000 A 
ATOM     16  C   UNL     1      -6.011  -2.377 124.791  0.00  0.00    +0.000 A 
ATOM     17  C   UNL     1      -5.769  -1.625 126.043  0.00  0.00    +0.000 C 
ATOM     18  C   UNL     1      -6.822  -1.890 127.215  0.00  0.00    +0.000 C 
ATOM     19  C   UNL     1      -7.466  -0.605 127.740  0.00  0.00    +0.000 C 
ATOM     20  C   UNL     1      -5.432  -2.296 123.514  0.00  0.00    +0.000 A 
ATOM     21  N   UNL     1      -6.414  -2.119 122.622  0.00  0.00    +0.000 NA
ATOM     22  O   UNL     1      -7.579  -2.489 123.288  0.00  0.00    +0.000 OA
ENDROOT
BRANCH   4  23
ATOM     23  O   UNL     1      -4.758  -1.038 131.659  0.00  0.00    +0.000 OA
ATOM     24  H   UNL     1      -4.881  -0.725 132.562  0.00  0.00    +0.000 HD
ENDBRANCH   4  23
BRANCH   4  25
ATOM     25  C   UNL     1      -6.536  -2.104 132.366  0.00  0.00    +0.000 C 
ATOM     26  C   UNL     1      -7.338  -1.917 133.278  0.00  0.00    +0.000 C 
ENDBRANCH   4  25
TORSDOF 2
ENDMDL
MODEL 3
REMARK VINA RESULT:      -8.1      2.503      4.058
REMARK  Name = Danazol
REMARK  4 active torsions:
REMARK  status: ('A' for Active; 'I' for Inactive)
REMARK    1  A    between atoms: C_5  and  O_6
REMARK    2  A    between atoms: C_5  and  C_7
REMARK    3  A    between atoms: C_9  and  C_10
REMARK    4  A    between atoms: C_24  and  C_25
REMARK                            x       y       z     vdW  Elec       q    Type
REMARK                         _______ _______ _______ _____ _____    ______ ____
ROOT
ATOM      1  C   UNL     1      -6.534  -1.294 124.483  0.00  0.00    +0.000 C 
ATOM      2  C   UNL     1      -5.484  -2.143 124.063  0.00  0.00    +0.000 C 
ATOM      3  C   UNL     1      -6.585  -2.787 124.818  0.00  0.00    +0.000 C 
ATOM      4  C   UNL     1      -8.330  -1.654 124.935  0.00  0.00    +0.000 C 
ATOM      5  C   UNL     1      -7.883  -2.516 123.969  0.00  0.00    +0.000 C 
ATOM      6  C   UNL     1      -8.228  -2.562 122.543  0.00  0.00    +0.000 C 
ATOM      7  C   UNL     1      -8.445  -3.832 125.147  0.00  0.00    +0.000 C 
ATOM      8  C   UNL     1      -8.265  -3.293 126.744  0.00  0.00    +0.000 C 
ATOM      9  C   UNL     1      -6.927  -2.438 127.223  0.00  0.00    +0.000 C 
ATOM     10  C   UNL     1      -6.568  -1.063 126.299  0.00  0.00    +0.000 C 
ATOM     11  C   UNL     1      -5.244  -0.449 126.654  0.00  0.00    +0.000 C 
ATOM     12  C   UNL     1      -5.115  -0.240 128.141  0.00  0.00    +0.000 C 
ATOM     13  C   UNL     1      -5.425  -1.470 128.962  0.00  0.00    +0.000 C 
ATOM     14  C   UNL     1      -4.534  -1.896 129.881  0.00  0.00    +0.000 C 
ATOM     15  C   UNL     1      -4.847  -3.053 130.615  0.00  0.00    +0.000 A 
ATOM     16  C   UNL     1      -5.739  -4.015 130.221  0.00  0.00    +0.000 A 
ATOM     17  C   UNL     1      -6.924  -3.590 129.442  0.00  0.00    +0.000 C 
ATOM     18  C   UNL     1      -6.797  -2.171 128.720  0.00  0.00    +0.000 C 
ATOM     19  C   UNL     1      -7.931  -1.211 129.086  0.00  0.00    +0.000 C 
ATOM     20  C   UNL     1      -5.525  -5.080 131.110  0.00  0.00    +0.000 A 
ATOM     21  N   UNL     1      -5.071  -4.575 132.263  0.00  0.00    +0.000 NA
ATOM     22  O   UNL     1      -4.637  -3.290 131.950  0.00  0.00    +0.000 OA
ENDROOT
BRANCH   4  23
ATOM     23  O   UNL     1      -9.754  -1.958 124.726  0.00  0.00    +0.000 OA
ATOM     24  H   UNL     1     -10.389  -1.284 124.462  0.00  0.00    +0.000 HD
ENDBRANCH   4  23
BRANCH   4  25
ATOM     25  C   UNL     1      -8.535  -0.193 124.278  0.00  0.00    +0.000 C 
ATOM     26  C   UNL     1      -8.836   0.897 123.800  0.00  0.00    +0.000 C 
ENDBRANCH   4  25
TORSDOF 2
ENDMDL
MODEL 4
REMARK VINA RESULT:      -7.7      6.673      8.681
REMARK  Name = Danazol
REMARK  4 active torsions:
REMARK  status: ('A' for Active; 'I' for Inactive)
REMARK    1  A    between atoms: C_5  and  O_6
REMARK    2  A    between atoms: C_5  and  C_7
REMARK    3  A    between atoms: C_9  and  C_10
REMARK    4  A    between atoms: C_24  and  C_25
REMARK                            x       y       z     vdW  Elec       q    Type
REMARK                         _______ _______ _______ _____ _____    ______ ____
ROOT
ATOM      1  C   UNL     1      -3.822   4.504 130.061  0.00  0.00    +0.000 C 
ATOM      2  C   UNL     1      -4.002   4.428 128.659  0.00  0.00    +0.000 C 
ATOM      3  C   UNL     1      -4.422   5.694 129.307  0.00  0.00    +0.000 C 
ATOM      4  C   UNL     1      -3.655   5.981 131.222  0.00  0.00    +0.000 C 
ATOM      5  C   UNL     1      -3.122   6.259 129.992  0.00  0.00    +0.000 C 
ATOM      6  C   UNL     1      -1.712   6.396 129.606  0.00  0.00    +0.000 C 
ATOM      7  C   UNL     1      -4.263   7.720 130.035  0.00  0.00    +0.000 C 
ATOM      8  C   UNL     1      -5.664   7.331 130.908  0.00  0.00    +0.000 C 
ATOM      9  C   UNL     1      -6.405   5.857 130.742  0.00  0.00    +0.000 C 
ATOM     10  C   UNL     1      -5.409   4.507 130.974  0.00  0.00    +0.000 C 
ATOM     11  C   UNL     1      -6.083   3.213 130.618  0.00  0.00    +0.000 C 
ATOM     12  C   UNL     1      -7.436   3.098 131.274  0.00  0.00    +0.000 C 
ATOM     13  C   UNL     1      -8.327   4.298 131.056  0.00  0.00    +0.000 C 
ATOM     14  C   UNL     1      -9.574   4.120 130.575  0.00  0.00    +0.000 C 
ATOM     15  C   UNL     1     -10.370   5.261 130.369  0.00  0.00    +0.000 A 
ATOM     16  C   UNL     1      -9.890   6.533 130.205  0.00  0.00    +0.000 A 
ATOM     17  C   UNL     1      -8.663   6.915 130.939  0.00  0.00    +0.000 C 
ATOM     18  C   UNL     1      -7.755   5.699 131.437  0.00  0.00    +0.000 C 
ATOM     19  C   UNL     1      -7.472   5.741 132.940  0.00  0.00    +0.000 C 
ATOM     20  C   UNL     1     -10.999   7.275 129.768  0.00  0.00    +0.000 A 
ATOM     21  N   UNL     1     -12.104   6.697 130.253  0.00  0.00    +0.000 NA
ATOM     22  O   UNL     1     -11.707   5.417 130.631  0.00  0.00    +0.000 OA
ENDROOT
BRANCH   4  23
ATOM     23  O   UNL     1      -3.010   7.118 131.898  0.00  0.00    +0.000 OA
ATOM     24  H   UNL     1      -2.805   7.105 132.839  0.00  0.00    +0.000 HD
ENDBRANCH   4  23
BRANCH   4  25
ATOM     25  C   UNL     1      -2.676   4.954 131.995  0.00  0.00    +0.000 C 
ATOM     26  C   UNL     1      -1.983   4.233 132.708  0.00  0.00    +0.000 C 
ENDBRANCH   4  25
TORSDOF 2
ENDMDL
MODEL 5
REMARK VINA RESULT:      -7.4      4.780      7.844
REMARK  Name = Danazol
REMARK  4 active torsions:
REMARK  status: ('A' for Active; 'I' for Inactive)
REMARK    1  A    between atoms: C_5  and  O_6
REMARK    2  A    between atoms: C_5  and  C_7
REMARK    3  A    between atoms: C_9  and  C_10
REMARK    4  A    between atoms: C_24  and  C_25
REMARK                            x       y       z     vdW  Elec       q    Type
REMARK                         _______ _______ _______ _____ _____    ______ ____
ROOT
ATOM      1  C   UNL     1      -8.275   2.195 131.961  0.00  0.00    +0.000 C 
ATOM      2  C   UNL     1      -9.451   1.418 131.838  0.00  0.00    +0.000 C 
ATOM      3  C   UNL     1      -9.018   2.148 130.623  0.00  0.00    +0.000 C 
ATOM      4  C   UNL     1      -7.044   2.813 130.672  0.00  0.00    +0.000 C 
ATOM      5  C   UNL     1      -7.574   1.604 130.307  0.00  0.00    +0.000 C 
ATOM      6  C   UNL     1      -6.935   0.283 130.291  0.00  0.00    +0.000 C 
ATOM      7  C   UNL     1      -8.021   2.486 128.738  0.00  0.00    +0.000 C 
ATOM      8  C   UNL     1      -8.334   4.120 129.064  0.00  0.00    +0.000 C 
ATOM      9  C   UNL     1      -9.188   4.586 130.407  0.00  0.00    +0.000 C 
ATOM     10  C   UNL     1      -8.609   3.993 131.885  0.00  0.00    +0.000 C 
ATOM     11  C   UNL     1      -9.531   4.283 133.034  0.00  0.00    +0.000 C 
ATOM     12  C   UNL     1      -9.928   5.737 133.069  0.00  0.00    +0.000 C 
ATOM     13  C   UNL     1     -10.455   6.260 131.754  0.00  0.00    +0.000 C 
ATOM     14  C   UNL     1     -11.645   6.894 131.720  0.00  0.00    +0.000 C 
ATOM     15  C   UNL     1     -12.112   7.353 130.476  0.00  0.00    +0.000 A 
ATOM     16  C   UNL     1     -11.707   6.872 129.260  0.00  0.00    +0.000 A 
ATOM     17  C   UNL     1     -10.305   6.418 129.121  0.00  0.00    +0.000 C 
ATOM     18  C   UNL     1      -9.561   6.064 130.490  0.00  0.00    +0.000 C 
ATOM     19  C   UNL     1      -8.249   6.829 130.671  0.00  0.00    +0.000 C 
ATOM     20  C   UNL     1     -12.616   7.422 128.342  0.00  0.00    +0.000 A 
ATOM     21  N   UNL     1     -13.062   8.581 128.841  0.00  0.00    +0.000 NA
ATOM     22  O   UNL     1     -12.747   8.537 130.196  0.00  0.00    +0.000 OA
ENDROOT
BRANCH   4  23
ATOM     23  O   UNL     1      -5.929   2.756 129.715  0.00  0.00    +0.000 OA
ATOM     24  H   UNL     1      -5.827   2.032 129.087  0.00  0.00    +0.000 HD
ENDBRANCH   4  23
BRANCH   4  25
ATOM     25  C   UNL     1      -6.016   2.583 131.897  0.00  0.00    +0.000 C 
ATOM     26  C   UNL     1      -5.140   2.495 132.754  0.00  0.00    +0.000 C 
ENDBRANCH   4  25
TORSDOF 2
ENDMDL
MODEL 6
REMARK VINA RESULT:      -7.3      2.765      6.569
REMARK  Name = Danazol
REMARK  4 active torsions:
REMARK  status: ('A' for Active; 'I' for Inactive)
REMARK    1  A    between atoms: C_5  and  O_6
REMARK    2  A    between atoms: C_5  and  C_7
REMARK    3  A    between atoms: C_9  and  C_10
REMARK    4  A    between atoms: C_24  and  C_25
REMARK                            x       y       z     vdW  Elec       q    Type
REMARK                         _______ _______ _______ _____ _____    ______ ____
ROOT
ATOM      1  C   UNL     1      -7.285  -0.137 131.244  0.00  0.00    +0.000 C 
ATOM      2  C   UNL     1      -8.645  -0.348 131.575  0.00  0.00    +0.000 C 
ATOM      3  C   UNL     1      -7.940  -1.488 130.939  0.00  0.00    +0.000 C 
ATOM      4  C   UNL     1      -5.862  -1.345 130.972  0.00  0.00    +0.000 C 
ATOM      5  C   UNL     1      -6.743  -1.824 131.905  0.00  0.00    +0.000 C 
ATOM      6  C   UNL     1      -6.574  -1.944 133.358  0.00  0.00    +0.000 C 
ATOM      7  C   UNL     1      -6.802  -3.318 130.808  0.00  0.00    +0.000 C 
ATOM      8  C   UNL     1      -6.575  -2.856 129.192  0.00  0.00    +0.000 C 
ATOM      9  C   UNL     1      -7.289  -1.493 128.573  0.00  0.00    +0.000 C 
ATOM     10  C   UNL     1      -7.005  -0.062 129.436  0.00  0.00    +0.000 C 
ATOM     11  C   UNL     1      -7.833   1.091 128.945  0.00  0.00    +0.000 C 
ATOM     12  C   UNL     1      -7.730   1.245 127.450  0.00  0.00    +0.000 C 
ATOM     13  C   UNL     1      -7.995  -0.028 126.682  0.00  0.00    +0.000 C 
ATOM     14  C   UNL     1      -8.907  -0.028 125.689  0.00  0.00    +0.000 C 
ATOM     15  C   UNL     1      -9.139  -1.235 125.007  0.00  0.00    +0.000 A 
ATOM     16  C   UNL     1      -8.860  -2.481 125.501  0.00  0.00    +0.000 A 
ATOM     17  C   UNL     1      -7.681  -2.634 126.383  0.00  0.00    +0.000 C 
ATOM     18  C   UNL     1      -7.158  -1.288 127.066  0.00  0.00    +0.000 C 
ATOM     19  C   UNL     1      -5.677  -1.018 126.797  0.00  0.00    +0.000 C 
ATOM     20  C   UNL     1      -9.495  -3.364 124.612  0.00  0.00    +0.000 A 
ATOM     21  N   UNL     1      -9.557  -2.774 123.413  0.00  0.00    +0.000 NA
ATOM     22  O   UNL     1      -9.336  -1.422 123.662  0.00  0.00    +0.000 OA
ENDROOT
BRANCH   4  23
ATOM     23  O   UNL     1      -4.785  -2.284 131.323  0.00  0.00    +0.000 OA
ATOM     24  H   UNL     1      -4.317  -2.799 130.657  0.00  0.00    +0.000 HD
ENDBRANCH   4  23
BRANCH   4  25
ATOM     25  C   UNL     1      -5.024  -0.127 131.623  0.00  0.00    +0.000 C 
ATOM     26  C   UNL     1      -4.268   0.741 132.052  0.00  0.00    +0.000 C 
ENDBRANCH   4  25
TORSDOF 2
ENDMDL
MODEL 7
REMARK VINA RESULT:      -7.3      5.837      9.108
REMARK  Name = Danazol
REMARK  4 active torsions:
REMARK  status: ('A' for Active; 'I' for Inactive)
REMARK    1  A    between atoms: C_5  and  O_6
REMARK    2  A    between atoms: C_5  and  C_7
REMARK    3  A    between atoms: C_9  and  C_10
REMARK    4  A    between atoms: C_24  and  C_25
REMARK                            x       y       z     vdW  Elec       q    Type
REMARK                         _______ _______ _______ _____ _____    ______ ____
ROOT
ATOM      1  C   UNL     1      -2.401   6.024 129.762  0.00  0.00    +0.000 C 
ATOM      2  C   UNL     1      -2.333   7.101 128.846  0.00  0.00    +0.000 C 
ATOM      3  C   UNL     1      -3.679   6.775 129.376  0.00  0.00    +0.000 C 
ATOM      4  C   UNL     1      -3.669   5.589 131.089  0.00  0.00    +0.000 C 
ATOM      5  C   UNL     1      -3.561   6.946 130.937  0.00  0.00    +0.000 C 
ATOM      6  C   UNL     1      -2.948   7.930 131.837  0.00  0.00    +0.000 C 
ATOM      7  C   UNL     1      -5.396   6.875 130.681  0.00  0.00    +0.000 C 
ATOM      8  C   UNL     1      -5.820   5.405 129.949  0.00  0.00    +0.000 C 
ATOM      9  C   UNL     1      -4.908   4.752 128.727  0.00  0.00    +0.000 C 
ATOM     10  C   UNL     1      -3.258   4.563 129.066  0.00  0.00    +0.000 C 
ATOM     11  C   UNL     1      -2.457   4.157 127.863  0.00  0.00    +0.000 C 
ATOM     12  C   UNL     1      -3.078   2.978 127.160  0.00  0.00    +0.000 C 
ATOM     13  C   UNL     1      -4.545   3.154 126.848  0.00  0.00    +0.000 C 
ATOM     14  C   UNL     1      -4.985   2.957 125.588  0.00  0.00    +0.000 C 
ATOM     15  C   UNL     1      -6.354   3.145 125.331  0.00  0.00    +0.000 A 
ATOM     16  C   UNL     1      -7.201   3.897 126.101  0.00  0.00    +0.000 A 
ATOM     17  C   UNL     1      -6.965   3.936 127.562  0.00  0.00    +0.000 C 
ATOM     18  C   UNL     1      -5.493   3.528 128.029  0.00  0.00    +0.000 C 
ATOM     19  C   UNL     1      -5.487   2.400 129.063  0.00  0.00    +0.000 C 
ATOM     20  C   UNL     1      -8.367   4.017 125.329  0.00  0.00    +0.000 A 
ATOM     21  N   UNL     1      -8.454   2.942 124.536  0.00  0.00    +0.000 NA
ATOM     22  O   UNL     1      -7.176   2.390 124.533  0.00  0.00    +0.000 OA
ENDROOT
BRANCH   4  23
ATOM     23  O   UNL     1      -4.372   5.663 132.379  0.00  0.00    +0.000 OA
ATOM     24  H   UNL     1      -5.320   5.824 132.439  0.00  0.00    +0.000 HD
ENDBRANCH   4  23
BRANCH   4  25
ATOM     25  C   UNL     1      -2.344   5.040 131.832  0.00  0.00    +0.000 C 
ATOM     26  C   UNL     1      -1.417   4.622 132.521  0.00  0.00    +0.000 C 
ENDBRANCH   4  25
TORSDOF 2
ENDMDL
MODEL 8
REMARK VINA RESULT:      -7.3      5.431      8.094
REMARK  Name = Danazol
REMARK  4 active torsions:
REMARK  status: ('A' for Active; 'I' for Inactive)
REMARK    1  A    between atoms: C_5  and  O_6
REMARK    2  A    between atoms: C_5  and  C_7
REMARK    3  A    between atoms: C_9  and  C_10
REMARK    4  A    between atoms: C_24  and  C_25
REMARK                            x       y       z     vdW  Elec       q    Type
REMARK                         _______ _______ _______ _____ _____    ______ ____
ROOT
ATOM      1  C   UNL     1      -9.260   6.592 131.462  0.00  0.00    +0.000 C 
ATOM      2  C   UNL     1      -7.971   7.113 131.199  0.00  0.00    +0.000 C 
ATOM      3  C   UNL     1      -8.380   5.936 130.394  0.00  0.00    +0.000 C 
ATOM      4  C   UNL     1     -10.427   5.549 130.409  0.00  0.00    +0.000 C 
ATOM      5  C   UNL     1      -9.679   6.390 129.629  0.00  0.00    +0.000 C 
ATOM      6  C   UNL     1     -10.100   7.598 128.908  0.00  0.00    +0.000 C 
ATOM      7  C   UNL     1      -9.210   4.838 128.731  0.00  0.00    +0.000 C 
ATOM      8  C   UNL     1      -9.191   3.530 129.810  0.00  0.00    +0.000 C 
ATOM      9  C   UNL     1      -8.568   3.680 131.340  0.00  0.00    +0.000 C 
ATOM     10  C   UNL     1      -9.203   4.949 132.267  0.00  0.00    +0.000 C 
ATOM     11  C   UNL     1      -8.465   5.156 133.559  0.00  0.00    +0.000 C 
ATOM     12  C   UNL     1      -8.306   3.862 134.315  0.00  0.00    +0.000 C 
ATOM     13  C   UNL     1      -7.729   2.736 133.490  0.00  0.00    +0.000 C 
ATOM     14  C   UNL     1      -6.654   2.060 133.947  0.00  0.00    +0.000 C 
ATOM     15  C   UNL     1      -6.134   1.029 133.145  0.00  0.00    +0.000 A 
ATOM     16  C   UNL     1      -6.327   0.913 131.795  0.00  0.00    +0.000 A 
ATOM     17  C   UNL     1      -7.618   1.369 131.233  0.00  0.00    +0.000 C 
ATOM     18  C   UNL     1      -8.440   2.390 132.146  0.00  0.00    +0.000 C 
ATOM     19  C   UNL     1      -9.868   1.919 132.432  0.00  0.00    +0.000 C 
ATOM     20  C   UNL     1      -5.421  -0.081 131.393  0.00  0.00    +0.000 A 
ATOM     21  N   UNL     1      -5.217  -0.902 132.430  0.00  0.00    +0.000 NA
ATOM     22  O   UNL     1      -5.665  -0.196 133.544  0.00  0.00    +0.000 OA
ENDROOT
BRANCH   4  23
ATOM     23  O   UNL     1     -11.411   5.244 129.358  0.00  0.00    +0.000 OA
ATOM     24  H   UNL     1     -11.379   4.429 128.846  0.00  0.00    +0.000 HD
ENDBRANCH   4  23
BRANCH   4  25
ATOM     25  C   UNL     1     -11.532   6.418 131.205  0.00  0.00    +0.000 C 
ATOM     26  C   UNL     1     -12.433   7.106 131.677  0.00  0.00    +0.000 C 
ENDBRANCH   4  25
TORSDOF 2
ENDMDL
MODEL 9
REMARK VINA RESULT:      -7.3      3.373      5.820
REMARK  Name = Danazol
REMARK  4 active torsions:
REMARK  status: ('A' for Active; 'I' for Inactive)
REMARK    1  A    between atoms: C_5  and  O_6
REMARK    2  A    between atoms: C_5  and  C_7
REMARK    3  A    between atoms: C_9  and  C_10
REMARK    4  A    between atoms: C_24  and  C_25
REMARK                            x       y       z     vdW  Elec       q    Type
REMARK                         _______ _______ _______ _____ _____    ______ ____
ROOT
ATOM      1  C   UNL     1      -5.620  -2.784 128.603  0.00  0.00    +0.000 C 
ATOM      2  C   UNL     1      -4.239  -3.091 128.652  0.00  0.00    +0.000 C 
ATOM      3  C   UNL     1      -4.723  -2.088 129.631  0.00  0.00    +0.000 C 
ATOM      4  C   UNL     1      -6.789  -2.070 129.900  0.00  0.00    +0.000 C 
ATOM      5  C   UNL     1      -5.815  -2.835 130.483  0.00  0.00    +0.000 C 
ATOM      6  C   UNL     1      -5.932  -4.162 131.102  0.00  0.00    +0.000 C 
ATOM      7  C   UNL     1      -5.490  -1.317 131.496  0.00  0.00    +0.000 C 
ATOM      8  C   UNL     1      -5.831   0.070 130.582  0.00  0.00    +0.000 C 
ATOM      9  C   UNL     1      -5.404   0.179 128.984  0.00  0.00    +0.000 C 
ATOM     10  C   UNL     1      -5.942  -1.088 127.994  0.00  0.00    +0.000 C 
ATOM     11  C   UNL     1      -5.360  -1.037 126.611  0.00  0.00    +0.000 C 
ATOM     12  C   UNL     1      -5.518   0.331 125.997  0.00  0.00    +0.000 C 
ATOM     13  C   UNL     1      -5.028   1.457 126.875  0.00  0.00    +0.000 C 
ATOM     14  C   UNL     1      -4.150   2.353 126.378  0.00  0.00    +0.000 C 
ATOM     15  C   UNL     1      -3.703   3.379 127.229  0.00  0.00    +0.000 A 
ATOM     16  C   UNL     1      -3.728   3.330 128.597  0.00  0.00    +0.000 A 
ATOM     17  C   UNL     1      -4.840   2.601 129.249  0.00  0.00    +0.000 C 
ATOM     18  C   UNL     1      -5.599   1.542 128.325  0.00  0.00    +0.000 C 
ATOM     19  C   UNL     1      -7.109   1.777 128.264  0.00  0.00    +0.000 C 
ATOM     20  C   UNL     1      -2.952   4.426 129.004  0.00  0.00    +0.000 A 
ATOM     21  N   UNL     1      -3.026   5.365 128.053  0.00  0.00    +0.000 NA
ATOM     22  O   UNL     1      -3.498   4.701 126.925  0.00  0.00    +0.000 OA
ENDROOT
BRANCH   4  23
ATOM     23  O   UNL     1      -7.659  -2.046 131.086  0.00  0.00    +0.000 OA
ATOM     24  H   UNL     1      -8.286  -1.333 131.248  0.00  0.00    +0.000 HD
ENDBRANCH   4  23
BRANCH   4  25
ATOM     25  C   UNL     1      -7.833  -3.041 129.142  0.00  0.00    +0.000 C 
ATOM     26  C   UNL     1      -8.714  -3.660 128.551  0.00  0.00    +0.000 C 
ENDBRANCH   4  25
TORSDOF 2
ENDMDL
