MODEL 1
REMARK VINA RESULT:      -7.7      0.000      0.000
REMARK  Name = Dantron
REMARK  2 active torsions:
REMARK  status: ('A' for Active; 'I' for Inactive)
REMARK    1  A    between atoms: O_1  and  C_2
REMARK    2  A    between atoms: C_15  and  O_16
REMARK                            x       y       z     vdW  Elec       q    Type
REMARK                         _______ _______ _______ _____ _____    ______ ____
ROOT
ATOM      1  C   UNL     1     -11.686   6.834 127.197  0.00  0.00    +0.000 A 
ATOM      2  C   UNL     1     -12.970   7.275 126.869  0.00  0.00    +0.000 A 
ATOM      3  C   UNL     1     -13.885   7.563 127.877  0.00  0.00    +0.000 A 
ATOM      4  C   UNL     1     -13.516   7.410 129.212  0.00  0.00    +0.000 A 
ATOM      5  C   UNL     1     -12.227   6.964 129.542  0.00  0.00    +0.000 A 
ATOM      6  C   UNL     1     -11.299   6.676 128.538  0.00  0.00    +0.000 A 
ATOM      7  C   UNL     1      -9.934   6.221 128.907  0.00  0.00    +0.000 C 
ATOM      8  O   UNL     1      -9.114   5.962 128.036  0.00  0.00    +0.000 OA
ATOM      9  C   UNL     1      -9.570   6.074 130.340  0.00  0.00    +0.000 A 
ATOM     10  C   UNL     1     -10.523   6.338 131.325  0.00  0.00    +0.000 A 
ATOM     11  C   UNL     1     -10.208   6.174 132.683  0.00  0.00    +0.000 A 
ATOM     12  C   UNL     1      -8.937   5.747 133.060  0.00  0.00    +0.000 A 
ATOM     13  C   UNL     1      -7.973   5.497 132.088  0.00  0.00    +0.000 A 
ATOM     14  C   UNL     1      -8.285   5.665 130.737  0.00  0.00    +0.000 A 
ATOM     15  C   UNL     1     -11.873   6.807 130.963  0.00  0.00    +0.000 C 
ATOM     16  O   UNL     1     -12.692   7.067 131.838  0.00  0.00    +0.000 OA
ENDROOT
BRANCH   1  17
ATOM     17  O   UNL     1     -10.818   6.562 126.178  0.00  0.00    +0.000 OA
ATOM     18  H   UNL     1     -11.256   6.087 125.457  0.00  0.00    +0.000 HD
ENDBRANCH   1  17
BRANCH  14  19
ATOM     19  O   UNL     1      -7.304   5.431 129.816  0.00  0.00    +0.000 OA
ATOM     20  H   UNL     1      -7.667   5.044 129.006  0.00  0.00    +0.000 HD
ENDBRANCH  14  19
TORSDOF 2
ENDMDL
MODEL 2
REMARK VINA RESULT:      -7.6      0.067      4.714
REMARK  Name = Dantron
REMARK  2 active torsions:
REMARK  status: ('A' for Active; 'I' for Inactive)
REMARK    1  A    between atoms: O_1  and  C_2
REMARK    2  A    between atoms: C_15  and  O_16
REMARK                            x       y       z     vdW  Elec       q    Type
REMARK                         _______ _______ _______ _____ _____    ______ ____
ROOT
ATOM      1  C   UNL     1      -8.263   5.625 130.704  0.00  0.00    +0.000 A 
ATOM      2  C   UNL     1      -7.938   5.442 132.049  0.00  0.00    +0.000 A 
ATOM      3  C   UNL     1      -8.895   5.673 133.034  0.00  0.00    +0.000 A 
ATOM      4  C   UNL     1     -10.175   6.088 132.672  0.00  0.00    +0.000 A 
ATOM      5  C   UNL     1     -10.501   6.275 131.320  0.00  0.00    +0.000 A 
ATOM      6  C   UNL     1      -9.550   6.042 130.324  0.00  0.00    +0.000 A 
ATOM      7  C   UNL     1      -9.919   6.229 128.896  0.00  0.00    +0.000 C 
ATOM      8  O   UNL     1      -9.092   6.032 128.015  0.00  0.00    +0.000 OA
ATOM      9  C   UNL     1     -11.294   6.667 128.544  0.00  0.00    +0.000 A 
ATOM     10  C   UNL     1     -12.219   6.924 129.558  0.00  0.00    +0.000 A 
ATOM     11  C   UNL     1     -13.512   7.368 129.246  0.00  0.00    +0.000 A 
ATOM     12  C   UNL     1     -13.887   7.555 127.917  0.00  0.00    +0.000 A 
ATOM     13  C   UNL     1     -12.980   7.287 126.897  0.00  0.00    +0.000 A 
ATOM     14  C   UNL     1     -11.694   6.839 127.207  0.00  0.00    +0.000 A 
ATOM     15  C   UNL     1     -11.861   6.721 130.974  0.00  0.00    +0.000 C 
ATOM     16  O   UNL     1     -12.691   6.919 131.855  0.00  0.00    +0.000 OA
ENDROOT
BRANCH   1  17
ATOM     17  O   UNL     1      -7.297   5.388 129.768  0.00  0.00    +0.000 OA
ATOM     18  H   UNL     1      -6.898   6.213 129.454  0.00  0.00    +0.000 HD
ENDBRANCH   1  17
BRANCH  14  19
ATOM     19  O   UNL     1     -10.841   6.565 126.176  0.00  0.00    +0.000 OA
ATOM     20  H   UNL     1     -10.050   7.122 126.216  0.00  0.00    +0.000 HD
ENDBRANCH  14  19
TORSDOF 2
ENDMDL
MODEL 3
REMARK VINA RESULT:      -7.0      1.655      3.442
REMARK  Name = Dantron
REMARK  2 active torsions:
REMARK  status: ('A' for Active; 'I' for Inactive)
REMARK    1  A    between atoms: O_1  and  C_2
REMARK    2  A    between atoms: C_15  and  O_16
REMARK                            x       y       z     vdW  Elec       q    Type
REMARK                         _______ _______ _______ _____ _____    ______ ____
ROOT
ATOM      1  C   UNL     1     -12.406   8.024 130.429  0.00  0.00    +0.000 A 
ATOM      2  C   UNL     1     -12.840   8.785 129.342  0.00  0.00    +0.000 A 
ATOM      3  C   UNL     1     -12.241   8.623 128.096  0.00  0.00    +0.000 A 
ATOM      4  C   UNL     1     -11.209   7.700 127.938  0.00  0.00    +0.000 A 
ATOM      5  C   UNL     1     -10.771   6.937 129.032  0.00  0.00    +0.000 A 
ATOM      6  C   UNL     1     -11.367   7.088 130.285  0.00  0.00    +0.000 A 
ATOM      7  C   UNL     1     -10.901   6.259 131.426  0.00  0.00    +0.000 C 
ATOM      8  O   UNL     1     -11.414   6.386 132.531  0.00  0.00    +0.000 OA
ATOM      9  C   UNL     1      -9.802   5.280 131.224  0.00  0.00    +0.000 A 
ATOM     10  C   UNL     1      -9.200   5.167 129.969  0.00  0.00    +0.000 A 
ATOM     11  C   UNL     1      -8.140   4.271 129.766  0.00  0.00    +0.000 A 
ATOM     12  C   UNL     1      -7.679   3.481 130.817  0.00  0.00    +0.000 A 
ATOM     13  C   UNL     1      -8.283   3.572 132.068  0.00  0.00    +0.000 A 
ATOM     14  C   UNL     1      -9.341   4.460 132.269  0.00  0.00    +0.000 A 
ATOM     15  C   UNL     1      -9.672   5.976 128.830  0.00  0.00    +0.000 C 
ATOM     16  O   UNL     1      -9.158   5.846 127.725  0.00  0.00    +0.000 OA
ENDROOT
BRANCH   1  17
ATOM     17  O   UNL     1     -13.019   8.212 131.635  0.00  0.00    +0.000 OA
ATOM     18  H   UNL     1     -12.465   7.901 132.366  0.00  0.00    +0.000 HD
ENDBRANCH   1  17
BRANCH  14  19
ATOM     19  O   UNL     1      -9.921   4.503 133.505  0.00  0.00    +0.000 OA
ATOM     20  H   UNL     1     -10.884   4.572 133.440  0.00  0.00    +0.000 HD
ENDBRANCH  14  19
TORSDOF 2
ENDMDL
MODEL 4
REMARK VINA RESULT:      -6.9      1.609      5.496
REMARK  Name = Dantron
REMARK  2 active torsions:
REMARK  status: ('A' for Active; 'I' for Inactive)
REMARK    1  A    between atoms: O_1  and  C_2
REMARK    2  A    between atoms: C_15  and  O_16
REMARK                            x       y       z     vdW  Elec       q    Type
REMARK                         _______ _______ _______ _____ _____    ______ ____
ROOT
ATOM      1  C   UNL     1      -9.335   4.570 132.147  0.00  0.00    +0.000 A 
ATOM      2  C   UNL     1      -8.276   3.685 131.932  0.00  0.00    +0.000 A 
ATOM      3  C   UNL     1      -7.702   3.581 130.668  0.00  0.00    +0.000 A 
ATOM      4  C   UNL     1      -8.188   4.361 129.620  0.00  0.00    +0.000 A 
ATOM      5  C   UNL     1      -9.254   5.248 129.836  0.00  0.00    +0.000 A 
ATOM      6  C   UNL     1      -9.834   5.364 131.100  0.00  0.00    +0.000 A 
ATOM      7  C   UNL     1     -10.950   6.321 131.313  0.00  0.00    +0.000 C 
ATOM      8  O   UNL     1     -11.469   6.428 132.416  0.00  0.00    +0.000 OA
ATOM      9  C   UNL     1     -11.441   7.143 130.176  0.00  0.00    +0.000 A 
ATOM     10  C   UNL     1     -10.866   6.988 128.914  0.00  0.00    +0.000 A 
ATOM     11  C   UNL     1     -11.337   7.731 127.820  0.00  0.00    +0.000 A 
ATOM     12  C   UNL     1     -12.384   8.635 127.987  0.00  0.00    +0.000 A 
ATOM     13  C   UNL     1     -12.953   8.811 129.245  0.00  0.00    +0.000 A 
ATOM     14  C   UNL     1     -12.481   8.075 130.333  0.00  0.00    +0.000 A 
ATOM     15  C   UNL     1      -9.747   6.052 128.704  0.00  0.00    +0.000 C 
ATOM     16  O   UNL     1      -9.228   5.947 127.597  0.00  0.00    +0.000 OA
ENDROOT
BRANCH   1  17
ATOM     17  O   UNL     1      -9.870   4.644 133.401  0.00  0.00    +0.000 OA
ATOM     18  H   UNL     1      -9.218   4.407 134.078  0.00  0.00    +0.000 HD
ENDBRANCH   1  17
BRANCH  14  19
ATOM     19  O   UNL     1     -13.052   8.293 131.555  0.00  0.00    +0.000 OA
ATOM     20  H   UNL     1     -12.563   8.961 132.058  0.00  0.00    +0.000 HD
ENDBRANCH  14  19
TORSDOF 2
ENDMDL
MODEL 5
REMARK VINA RESULT:      -6.9      9.992     10.208
REMARK  Name = Dantron
REMARK  2 active torsions:
REMARK  status: ('A' for Active; 'I' for Inactive)
REMARK    1  A    between atoms: O_1  and  C_2
REMARK    2  A    between atoms: C_15  and  O_16
REMARK                            x       y       z     vdW  Elec       q    Type
REMARK                         _______ _______ _______ _____ _____    ______ ____
ROOT
ATOM      1  C   UNL     1      -7.214  -2.047 124.059  0.00  0.00    +0.000 A 
ATOM      2  C   UNL     1      -8.184  -2.445 123.138  0.00  0.00    +0.000 A 
ATOM      3  C   UNL     1      -9.307  -3.147 123.569  0.00  0.00    +0.000 A 
ATOM      4  C   UNL     1      -9.457  -3.450 124.921  0.00  0.00    +0.000 A 
ATOM      5  C   UNL     1      -8.480  -3.053 125.846  0.00  0.00    +0.000 A 
ATOM      6  C   UNL     1      -7.352  -2.345 125.426  0.00  0.00    +0.000 A 
ATOM      7  C   UNL     1      -6.337  -1.918 126.423  0.00  0.00    +0.000 C 
ATOM      8  O   UNL     1      -5.342  -1.301 126.065  0.00  0.00    +0.000 OA
ATOM      9  C   UNL     1      -6.529  -2.253 127.858  0.00  0.00    +0.000 A 
ATOM     10  C   UNL     1      -7.649  -2.988 128.251  0.00  0.00    +0.000 A 
ATOM     11  C   UNL     1      -7.832  -3.341 129.597  0.00  0.00    +0.000 A 
ATOM     12  C   UNL     1      -6.897  -2.958 130.555  0.00  0.00    +0.000 A 
ATOM     13  C   UNL     1      -5.785  -2.210 130.177  0.00  0.00    +0.000 A 
ATOM     14  C   UNL     1      -5.605  -1.854 128.840  0.00  0.00    +0.000 A 
ATOM     15  C   UNL     1      -8.667  -3.397 127.267  0.00  0.00    +0.000 C 
ATOM     16  O   UNL     1      -9.663  -4.015 127.628  0.00  0.00    +0.000 OA
ENDROOT
BRANCH   1  17
ATOM     17  O   UNL     1      -6.128  -1.360 123.597  0.00  0.00    +0.000 OA
ATOM     18  H   UNL     1      -6.359  -0.802 122.840  0.00  0.00    +0.000 HD
ENDBRANCH   1  17
BRANCH  14  19
ATOM     19  O   UNL     1      -4.514  -1.101 128.514  0.00  0.00    +0.000 OA
ATOM     20  H   UNL     1      -3.820  -1.178 129.185  0.00  0.00    +0.000 HD
ENDBRANCH  14  19
TORSDOF 2
ENDMDL
MODEL 6
REMARK VINA RESULT:      -6.9      9.930     11.071
REMARK  Name = Dantron
REMARK  2 active torsions:
REMARK  status: ('A' for Active; 'I' for Inactive)
REMARK    1  A    between atoms: O_1  and  C_2
REMARK    2  A    between atoms: C_15  and  O_16
REMARK                            x       y       z     vdW  Elec       q    Type
REMARK                         _______ _______ _______ _____ _____    ______ ____
ROOT
ATOM      1  C   UNL     1      -5.628  -1.809 128.928  0.00  0.00    +0.000 A 
ATOM      2  C   UNL     1      -5.824  -2.153 130.268  0.00  0.00    +0.000 A 
ATOM      3  C   UNL     1      -6.940  -2.898 130.638  0.00  0.00    +0.000 A 
ATOM      4  C   UNL     1      -7.858  -3.299 129.669  0.00  0.00    +0.000 A 
ATOM      5  C   UNL     1      -7.661  -2.952 128.323  0.00  0.00    +0.000 A 
ATOM      6  C   UNL     1      -6.544  -2.208 127.940  0.00  0.00    +0.000 A 
ATOM      7  C   UNL     1      -6.344  -1.863 126.509  0.00  0.00    +0.000 C 
ATOM      8  O   UNL     1      -5.370  -1.208 126.162  0.00  0.00    +0.000 OA
ATOM      9  C   UNL     1      -7.338  -2.311 125.499  0.00  0.00    +0.000 A 
ATOM     10  C   UNL     1      -8.464  -3.027 125.909  0.00  0.00    +0.000 A 
ATOM     11  C   UNL     1      -9.431  -3.432 124.976  0.00  0.00    +0.000 A 
ATOM     12  C   UNL     1      -9.272  -3.122 123.627  0.00  0.00    +0.000 A 
ATOM     13  C   UNL     1      -8.146  -2.423 123.203  0.00  0.00    +0.000 A 
ATOM     14  C   UNL     1      -7.182  -2.026 124.132  0.00  0.00    +0.000 A 
ATOM     15  C   UNL     1      -8.656  -3.386 127.327  0.00  0.00    +0.000 C 
ATOM     16  O   UNL     1      -9.632  -4.043 127.671  0.00  0.00    +0.000 OA
ENDROOT
BRANCH   1  17
ATOM     17  O   UNL     1      -4.520  -1.077 128.606  0.00  0.00    +0.000 OA
ATOM     18  H   UNL     1      -4.104  -0.699 129.395  0.00  0.00    +0.000 HD
ENDBRANCH   1  17
BRANCH  14  19
ATOM     19  O   UNL     1      -6.080  -1.362 123.673  0.00  0.00    +0.000 OA
ATOM     20  H   UNL     1      -6.097  -0.430 123.934  0.00  0.00    +0.000 HD
ENDBRANCH  14  19
TORSDOF 2
ENDMDL
MODEL 7
REMARK VINA RESULT:      -6.8     10.018     11.364
REMARK  Name = Dantron
REMARK  2 active torsions:
REMARK  status: ('A' for Active; 'I' for Inactive)
REMARK    1  A    between atoms: O_1  and  C_2
REMARK    2  A    between atoms: C_15  and  O_16
REMARK                            x       y       z     vdW  Elec       q    Type
REMARK                         _______ _______ _______ _____ _____    ______ ____
ROOT
ATOM      1  C   UNL     1      -8.515  -3.430 128.660  0.00  0.00    +0.000 A 
ATOM      2  C   UNL     1      -7.822  -3.278 129.863  0.00  0.00    +0.000 A 
ATOM      3  C   UNL     1      -6.594  -2.621 129.879  0.00  0.00    +0.000 A 
ATOM      4  C   UNL     1      -6.062  -2.117 128.694  0.00  0.00    +0.000 A 
ATOM      5  C   UNL     1      -6.758  -2.273 127.485  0.00  0.00    +0.000 A 
ATOM      6  C   UNL     1      -7.991  -2.927 127.457  0.00  0.00    +0.000 A 
ATOM      7  C   UNL     1      -8.721  -3.067 126.170  0.00  0.00    +0.000 C 
ATOM      8  O   UNL     1      -9.801  -3.642 126.134  0.00  0.00    +0.000 OA
ATOM      9  C   UNL     1      -8.129  -2.515 124.925  0.00  0.00    +0.000 A 
ATOM     10  C   UNL     1      -6.880  -1.892 124.972  0.00  0.00    +0.000 A 
ATOM     11  C   UNL     1      -6.289  -1.392 123.801  0.00  0.00    +0.000 A 
ATOM     12  C   UNL     1      -6.948  -1.511 122.579  0.00  0.00    +0.000 A 
ATOM     13  C   UNL     1      -8.200  -2.114 122.523  0.00  0.00    +0.000 A 
ATOM     14  C   UNL     1      -8.790  -2.607 123.688  0.00  0.00    +0.000 A 
ATOM     15  C   UNL     1      -6.162  -1.736 126.249  0.00  0.00    +0.000 C 
ATOM     16  O   UNL     1      -5.080  -1.159 126.284  0.00  0.00    +0.000 OA
ENDROOT
BRANCH   1  17
ATOM     17  O   UNL     1      -9.716  -4.080 128.686  0.00  0.00    +0.000 OA
ATOM     18  H   UNL     1     -10.265  -3.838 127.926  0.00  0.00    +0.000 HD
ENDBRANCH   1  17
BRANCH  14  19
ATOM     19  O   UNL     1     -10.031  -3.171 123.594  0.00  0.00    +0.000 OA
ATOM     20  H   UNL     1     -10.239  -3.696 124.380  0.00  0.00    +0.000 HD
ENDBRANCH  14  19
TORSDOF 2
ENDMDL
MODEL 8
REMARK VINA RESULT:      -6.7      7.977      9.501
REMARK  Name = Dantron
REMARK  2 active torsions:
REMARK  status: ('A' for Active; 'I' for Inactive)
REMARK    1  A    between atoms: O_1  and  C_2
REMARK    2  A    between atoms: C_15  and  O_16
REMARK                            x       y       z     vdW  Elec       q    Type
REMARK                         _______ _______ _______ _____ _____    ______ ____
ROOT
ATOM      1  C   UNL     1      -9.141  -1.362 123.225  0.00  0.00    +0.000 A 
ATOM      2  C   UNL     1      -9.094  -2.752 123.344  0.00  0.00    +0.000 A 
ATOM      3  C   UNL     1      -8.104  -3.352 124.117  0.00  0.00    +0.000 A 
ATOM      4  C   UNL     1      -7.162  -2.560 124.770  0.00  0.00    +0.000 A 
ATOM      5  C   UNL     1      -7.207  -1.163 124.649  0.00  0.00    +0.000 A 
ATOM      6  C   UNL     1      -8.198  -0.551 123.879  0.00  0.00    +0.000 A 
ATOM      7  C   UNL     1      -8.240   0.931 123.775  0.00  0.00    +0.000 C 
ATOM      8  O   UNL     1      -9.103   1.478 123.100  0.00  0.00    +0.000 OA
ATOM      9  C   UNL     1      -7.224   1.747 124.489  0.00  0.00    +0.000 A 
ATOM     10  C   UNL     1      -6.224   1.112 125.228  0.00  0.00    +0.000 A 
ATOM     11  C   UNL     1      -5.236   1.864 125.883  0.00  0.00    +0.000 A 
ATOM     12  C   UNL     1      -5.248   3.255 125.803  0.00  0.00    +0.000 A 
ATOM     13  C   UNL     1      -6.250   3.899 125.084  0.00  0.00    +0.000 A 
ATOM     14  C   UNL     1      -7.235   3.152 124.436  0.00  0.00    +0.000 A 
ATOM     15  C   UNL     1      -6.190  -0.357 125.347  0.00  0.00    +0.000 C 
ATOM     16  O   UNL     1      -5.326  -0.902 126.025  0.00  0.00    +0.000 OA
ENDROOT
BRANCH   1  17
ATOM     17  O   UNL     1     -10.128  -0.813 122.457  0.00  0.00    +0.000 OA
ATOM     18  H   UNL     1     -10.605  -0.120 122.937  0.00  0.00    +0.000 HD
ENDBRANCH   1  17
BRANCH  14  19
ATOM     19  O   UNL     1      -8.213   3.823 123.760  0.00  0.00    +0.000 OA
ATOM     20  H   UNL     1      -8.420   3.390 122.919  0.00  0.00    +0.000 HD
ENDBRANCH  14  19
TORSDOF 2
ENDMDL
MODEL 9
REMARK VINA RESULT:      -6.7      7.993      9.765
REMARK  Name = Dantron
REMARK  2 active torsions:
REMARK  status: ('A' for Active; 'I' for Inactive)
REMARK    1  A    between atoms: O_1  and  C_2
REMARK    2  A    between atoms: C_15  and  O_16
REMARK                            x       y       z     vdW  Elec       q    Type
REMARK                         _______ _______ _______ _____ _____    ______ ____
ROOT
ATOM      1  C   UNL     1      -7.213   3.116 124.474  0.00  0.00    +0.000 A 
ATOM      2  C   UNL     1      -6.222   3.848 125.132  0.00  0.00    +0.000 A 
ATOM      3  C   UNL     1      -5.225   3.187 125.844  0.00  0.00    +0.000 A 
ATOM      4  C   UNL     1      -5.220   1.795 125.897  0.00  0.00    +0.000 A 
ATOM      5  C   UNL     1      -6.217   1.059 125.239  0.00  0.00    +0.000 A 
ATOM      6  C   UNL     1      -7.220   1.711 124.519  0.00  0.00    +0.000 A 
ATOM      7  C   UNL     1      -8.257   0.914 123.815  0.00  0.00    +0.000 C 
ATOM      8  O   UNL     1      -9.143   1.477 123.184  0.00  0.00    +0.000 OA
ATOM      9  C   UNL     1      -8.221  -0.569 123.887  0.00  0.00    +0.000 A 
ATOM     10  C   UNL     1      -7.227  -1.199 124.638  0.00  0.00    +0.000 A 
ATOM     11  C   UNL     1      -7.194  -2.598 124.745  0.00  0.00    +0.000 A 
ATOM     12  C   UNL     1      -8.154  -3.372 124.098  0.00  0.00    +0.000 A 
ATOM     13  C   UNL     1      -9.139  -2.756 123.332  0.00  0.00    +0.000 A 
ATOM     14  C   UNL     1      -9.169  -1.365 123.222  0.00  0.00    +0.000 A 
ATOM     15  C   UNL     1      -6.185  -0.412 125.323  0.00  0.00    +0.000 C 
ATOM     16  O   UNL     1      -5.299  -0.977 125.954  0.00  0.00    +0.000 OA
ENDROOT
BRANCH   1  17
ATOM     17  O   UNL     1      -8.173   3.802 123.787  0.00  0.00    +0.000 OA
ATOM     18  H   UNL     1      -7.826   4.159 122.956  0.00  0.00    +0.000 HD
ENDBRANCH   1  17
BRANCH  14  19
ATOM     19  O   UNL     1     -10.139  -0.801 122.443  0.00  0.00    +0.000 OA
ATOM     20  H   UNL     1     -10.653  -1.476 121.976  0.00  0.00    +0.000 HD
ENDBRANCH  14  19
TORSDOF 2
ENDMDL
