MODEL 1
REMARK VINA RESULT:      -7.8      0.000      0.000
REMARK  Name = Dantrolene
REMARK  4 active torsions:
REMARK  status: ('A' for Active; 'I' for Inactive)
REMARK    1  A    between atoms: N_2  and  C_4
REMARK    2  A    between atoms: C_7  and  C_10
REMARK    3  A    between atoms: C_13  and  C_15
REMARK    4  A    between atoms: N_16  and  N_17
REMARK                            x       y       z     vdW  Elec       q    Type
REMARK                         _______ _______ _______ _____ _____    ______ ____
ROOT
ATOM      1  C   UNL     1      -9.628   5.495 129.747  0.00  0.00    +0.000 A 
ATOM      2  C   UNL     1      -9.741   4.300 130.422  0.00  0.00    +0.000 A 
ATOM      3  C   UNL     1      -8.516   3.621 130.268  0.00  0.00    +0.000 A 
ATOM      4  C   UNL     1      -7.691   4.415 129.495  0.00  0.00    +0.000 A 
ATOM      5  O   UNL     1      -8.378   5.574 129.157  0.00  0.00    +0.000 OA
ENDROOT
BRANCH   1   9
ATOM      6  C   UNL     1     -12.335   8.808 129.547  0.00  0.00    +0.000 A 
ATOM      7  C   UNL     1     -11.387   8.638 128.533  0.00  0.00    +0.000 A 
ATOM      8  C   UNL     1     -10.522   7.529 128.571  0.00  0.00    +0.000 A 
ATOM      9  C   UNL     1     -10.542   6.639 129.656  0.00  0.00    +0.000 A 
ATOM     10  C   UNL     1     -11.535   6.815 130.642  0.00  0.00    +0.000 A 
ATOM     11  C   UNL     1     -12.427   7.898 130.600  0.00  0.00    +0.000 A 
BRANCH   6  13
ATOM     12  O   UNL     1     -13.887  10.090 128.416  0.00  0.00    +0.000 OA
ATOM     13  N   UNL     1     -13.278   9.920 129.482  0.00  0.00    +0.000 N 
ATOM     14  O   UNL     1     -13.392  10.626 130.493  0.00  0.00    +0.000 OA
ENDBRANCH   6  13
ENDBRANCH   1   9
BRANCH   4  15
ATOM     15  C   UNL     1      -6.321   4.166 129.073  0.00  0.00    +0.000 C 
ATOM     16  N   UNL     1      -5.654   5.116 128.470  0.00  0.00    +0.000 NA
BRANCH  16  17
ATOM     17  N   UNL     1      -4.384   4.854 128.008  0.00  0.00    +0.000 N 
ATOM     18  C   UNL     1      -3.976   3.510 127.647  0.00  0.00    +0.000 C 
ATOM     19  C   UNL     1      -2.495   3.731 127.389  0.00  0.00    +0.000 C 
ATOM     20  O   UNL     1      -1.694   2.880 127.035  0.00  0.00    +0.000 OA
ATOM     21  N   UNL     1      -2.194   5.035 127.617  0.00  0.00    +0.000 N 
ATOM     22  C   UNL     1      -3.286   5.723 128.047  0.00  0.00    +0.000 C 
ATOM     23  O   UNL     1      -3.266   6.893 128.411  0.00  0.00    +0.000 OA
ATOM     24  H   UNL     1      -1.270   5.429 127.540  0.00  0.00    +0.000 HD
ENDBRANCH  16  17
ENDBRANCH   4  15
TORSDOF 4
ENDMDL
MODEL 2
REMARK VINA RESULT:      -7.5      8.025      9.476
REMARK  Name = Dantrolene
REMARK  4 active torsions:
REMARK  status: ('A' for Active; 'I' for Inactive)
REMARK    1  A    between atoms: N_2  and  C_4
REMARK    2  A    between atoms: C_7  and  C_10
REMARK    3  A    between atoms: C_13  and  C_15
REMARK    4  A    between atoms: N_16  and  N_17
REMARK                            x       y       z     vdW  Elec       q    Type
REMARK                         _______ _______ _______ _____ _____    ______ ____
ROOT
ATOM      1  C   UNL     1      -8.340   2.014 123.457  0.00  0.00    +0.000 A 
ATOM      2  C   UNL     1      -9.677   1.757 123.665  0.00  0.00    +0.000 A 
ATOM      3  C   UNL     1      -9.771   0.980 124.836  0.00  0.00    +0.000 A 
ATOM      4  C   UNL     1      -8.488   0.774 125.307  0.00  0.00    +0.000 A 
ATOM      5  O   UNL     1      -7.594   1.402 124.449  0.00  0.00    +0.000 OA
ENDROOT
BRANCH   1   9
ATOM      6  C   UNL     1      -6.307   4.473 120.600  0.00  0.00    +0.000 A 
ATOM      7  C   UNL     1      -7.636   4.107 120.364  0.00  0.00    +0.000 A 
ATOM      8  C   UNL     1      -8.322   3.333 121.318  0.00  0.00    +0.000 A 
ATOM      9  C   UNL     1      -7.666   2.855 122.462  0.00  0.00    +0.000 A 
ATOM     10  C   UNL     1      -6.339   3.275 122.692  0.00  0.00    +0.000 A 
ATOM     11  C   UNL     1      -5.652   4.074 121.765  0.00  0.00    +0.000 A 
BRANCH   6  13
ATOM     12  O   UNL     1      -5.900   5.207 118.449  0.00  0.00    +0.000 OA
ATOM     13  N   UNL     1      -5.608   5.329 119.646  0.00  0.00    +0.000 N 
ATOM     14  O   UNL     1      -4.758   6.108 120.102  0.00  0.00    +0.000 OA
ENDBRANCH   6  13
ENDBRANCH   1   9
BRANCH   4  15
ATOM     15  C   UNL     1      -8.059   0.052 126.495  0.00  0.00    +0.000 C 
ATOM     16  N   UNL     1      -8.255  -1.240 126.563  0.00  0.00    +0.000 NA
BRANCH  16  17
ATOM     17  N   UNL     1      -7.914  -1.910 127.717  0.00  0.00    +0.000 N 
ATOM     18  C   UNL     1      -6.845  -1.435 128.574  0.00  0.00    +0.000 C 
ATOM     19  C   UNL     1      -6.758  -2.583 129.566  0.00  0.00    +0.000 C 
ATOM     20  O   UNL     1      -5.995  -2.652 130.518  0.00  0.00    +0.000 OA
ATOM     21  N   UNL     1      -7.668  -3.533 129.229  0.00  0.00    +0.000 N 
ATOM     22  C   UNL     1      -8.334  -3.192 128.093  0.00  0.00    +0.000 C 
ATOM     23  O   UNL     1      -9.141  -3.916 127.522  0.00  0.00    +0.000 OA
ATOM     24  H   UNL     1      -7.789  -4.405 129.717  0.00  0.00    +0.000 HD
ENDBRANCH  16  17
ENDBRANCH   4  15
TORSDOF 4
ENDMDL
MODEL 3
REMARK VINA RESULT:      -7.4      7.630      9.741
REMARK  Name = Dantrolene
REMARK  4 active torsions:
REMARK  status: ('A' for Active; 'I' for Inactive)
REMARK    1  A    between atoms: N_2  and  C_4
REMARK    2  A    between atoms: C_7  and  C_10
REMARK    3  A    between atoms: C_13  and  C_15
REMARK    4  A    between atoms: N_16  and  N_17
REMARK                            x       y       z     vdW  Elec       q    Type
REMARK                         _______ _______ _______ _____ _____    ______ ____
ROOT
ATOM      1  C   UNL     1      -6.311   2.985 123.897  0.00  0.00    +0.000 A 
ATOM      2  C   UNL     1      -5.668   3.523 124.990  0.00  0.00    +0.000 A 
ATOM      3  C   UNL     1      -5.763   2.578 126.031  0.00  0.00    +0.000 A 
ATOM      4  C   UNL     1      -6.469   1.493 125.549  0.00  0.00    +0.000 A 
ATOM      5  O   UNL     1      -6.824   1.743 124.229  0.00  0.00    +0.000 OA
ENDROOT
BRANCH   1   9
ATOM      6  C   UNL     1      -6.593   4.430 119.875  0.00  0.00    +0.000 A 
ATOM      7  C   UNL     1      -7.716   3.846 120.472  0.00  0.00    +0.000 A 
ATOM      8  C   UNL     1      -7.641   3.406 121.806  0.00  0.00    +0.000 A 
ATOM      9  C   UNL     1      -6.434   3.471 122.518  0.00  0.00    +0.000 A 
ATOM     10  C   UNL     1      -5.332   4.101 121.903  0.00  0.00    +0.000 A 
ATOM     11  C   UNL     1      -5.400   4.574 120.583  0.00  0.00    +0.000 A 
BRANCH   6  13
ATOM     12  O   UNL     1      -7.437   4.360 117.726  0.00  0.00    +0.000 OA
ATOM     13  N   UNL     1      -6.680   4.947 118.512  0.00  0.00    +0.000 N 
ATOM     14  O   UNL     1      -5.977   5.928 118.233  0.00  0.00    +0.000 OA
ENDBRANCH   6  13
ENDBRANCH   1   9
BRANCH   4  15
ATOM     15  C   UNL     1      -6.813   0.255 126.231  0.00  0.00    +0.000 C 
ATOM     16  N   UNL     1      -7.918  -0.368 125.909  0.00  0.00    +0.000 NA
BRANCH  16  17
ATOM     17  N   UNL     1      -8.277  -1.500 126.606  0.00  0.00    +0.000 N 
ATOM     18  C   UNL     1      -7.625  -1.855 127.851  0.00  0.00    +0.000 C 
ATOM     19  C   UNL     1      -8.237  -3.224 128.101  0.00  0.00    +0.000 C 
ATOM     20  O   UNL     1      -8.010  -3.946 129.059  0.00  0.00    +0.000 OA
ATOM     21  N   UNL     1      -9.083  -3.526 127.083  0.00  0.00    +0.000 N 
ATOM     22  C   UNL     1      -9.085  -2.545 126.140  0.00  0.00    +0.000 C 
ATOM     23  O   UNL     1      -9.691  -2.611 125.077  0.00  0.00    +0.000 OA
ATOM     24  H   UNL     1      -9.593  -4.390 127.003  0.00  0.00    +0.000 HD
ENDBRANCH  16  17
ENDBRANCH   4  15
TORSDOF 4
ENDMDL
MODEL 4
REMARK VINA RESULT:      -7.3      3.674      4.384
REMARK  Name = Dantrolene
REMARK  4 active torsions:
REMARK  status: ('A' for Active; 'I' for Inactive)
REMARK    1  A    between atoms: N_2  and  C_4
REMARK    2  A    between atoms: C_7  and  C_10
REMARK    3  A    between atoms: C_13  and  C_15
REMARK    4  A    between atoms: N_16  and  N_17
REMARK                            x       y       z     vdW  Elec       q    Type
REMARK                         _______ _______ _______ _____ _____    ______ ____
ROOT
ATOM      1  C   UNL     1     -10.143   4.896 130.442  0.00  0.00    +0.000 A 
ATOM      2  C   UNL     1      -9.540   4.375 131.566  0.00  0.00    +0.000 A 
ATOM      3  C   UNL     1      -8.798   3.251 131.152  0.00  0.00    +0.000 A 
ATOM      4  C   UNL     1      -8.976   3.110 129.789  0.00  0.00    +0.000 A 
ATOM      5  O   UNL     1      -9.819   4.120 129.343  0.00  0.00    +0.000 OA
ENDROOT
BRANCH   1   9
ATOM      6  C   UNL     1     -12.414   8.476 129.838  0.00  0.00    +0.000 A 
ATOM      7  C   UNL     1     -12.761   7.616 130.885  0.00  0.00    +0.000 A 
ATOM      8  C   UNL     1     -11.994   6.459 131.113  0.00  0.00    +0.000 A 
ATOM      9  C   UNL     1     -10.937   6.115 130.256  0.00  0.00    +0.000 A 
ATOM     10  C   UNL     1     -10.588   7.023 129.234  0.00  0.00    +0.000 A 
ATOM     11  C   UNL     1     -11.324   8.198 129.014  0.00  0.00    +0.000 A 
BRANCH   6  13
ATOM     12  O   UNL     1     -13.656   9.902 128.511  0.00  0.00    +0.000 OA
ATOM     13  N   UNL     1     -13.165   9.712 129.633  0.00  0.00    +0.000 N 
ATOM     14  O   UNL     1     -13.245  10.491 130.592  0.00  0.00    +0.000 OA
ENDBRANCH   6  13
ENDBRANCH   1   9
BRANCH   4  15
ATOM     15  C   UNL     1      -8.404   2.114 128.895  0.00  0.00    +0.000 C 
ATOM     16  N   UNL     1      -9.006   1.851 127.763  0.00  0.00    +0.000 NA
BRANCH  16  17
ATOM     17  N   UNL     1      -8.503   0.858 126.952  0.00  0.00    +0.000 N 
ATOM     18  C   UNL     1      -7.102   0.488 126.996  0.00  0.00    +0.000 C 
ATOM     19  C   UNL     1      -7.036  -0.481 125.828  0.00  0.00    +0.000 C 
ATOM     20  O   UNL     1      -6.044  -1.089 125.455  0.00  0.00    +0.000 OA
ATOM     21  N   UNL     1      -8.263  -0.568 125.252  0.00  0.00    +0.000 N 
ATOM     22  C   UNL     1      -9.149   0.266 125.860  0.00  0.00    +0.000 C 
ATOM     23  O   UNL     1     -10.299   0.448 125.477  0.00  0.00    +0.000 OA
ATOM     24  H   UNL     1      -8.474  -1.127 124.442  0.00  0.00    +0.000 HD
ENDBRANCH  16  17
ENDBRANCH   4  15
TORSDOF 4
ENDMDL
MODEL 5
REMARK VINA RESULT:      -7.3      6.311      8.936
REMARK  Name = Dantrolene
REMARK  4 active torsions:
REMARK  status: ('A' for Active; 'I' for Inactive)
REMARK    1  A    between atoms: N_2  and  C_4
REMARK    2  A    between atoms: C_7  and  C_10
REMARK    3  A    between atoms: C_13  and  C_15
REMARK    4  A    between atoms: N_16  and  N_17
REMARK                            x       y       z     vdW  Elec       q    Type
REMARK                         _______ _______ _______ _____ _____    ______ ____
ROOT
ATOM      1  C   UNL     1      -8.542   2.158 123.267  0.00  0.00    +0.000 A 
ATOM      2  C   UNL     1      -9.723   1.457 123.158  0.00  0.00    +0.000 A 
ATOM      3  C   UNL     1     -10.030   0.963 124.442  0.00  0.00    +0.000 A 
ATOM      4  C   UNL     1      -9.023   1.367 125.298  0.00  0.00    +0.000 A 
ATOM      5  O   UNL     1      -8.090   2.098 124.574  0.00  0.00    +0.000 OA
ENDROOT
BRANCH   1   9
ATOM      6  C   UNL     1      -6.474   4.527 120.359  0.00  0.00    +0.000 A 
ATOM      7  C   UNL     1      -5.783   4.072 121.487  0.00  0.00    +0.000 A 
ATOM      8  C   UNL     1      -6.446   3.260 122.426  0.00  0.00    +0.000 A 
ATOM      9  C   UNL     1      -7.812   2.968 122.287  0.00  0.00    +0.000 A 
ATOM     10  C   UNL     1      -8.470   3.408 121.119  0.00  0.00    +0.000 A 
ATOM     11  C   UNL     1      -7.813   4.191 120.158  0.00  0.00    +0.000 A 
BRANCH   6  13
ATOM     12  O   UNL     1      -4.929   6.128 119.743  0.00  0.00    +0.000 OA
ATOM     13  N   UNL     1      -5.777   5.316 119.348  0.00  0.00    +0.000 N 
ATOM     14  O   UNL     1      -6.096   5.131 118.166  0.00  0.00    +0.000 OA
ENDBRANCH   6  13
ENDBRANCH   1   9
BRANCH   4  15
ATOM     15  C   UNL     1      -8.892   1.126 126.727  0.00  0.00    +0.000 C 
ATOM     16  N   UNL     1      -8.837   2.145 127.545  0.00  0.00    +0.000 NA
BRANCH  16  17
ATOM     17  N   UNL     1      -8.640   1.917 128.888  0.00  0.00    +0.000 N 
ATOM     18  C   UNL     1      -7.933   0.741 129.356  0.00  0.00    +0.000 C 
ATOM     19  C   UNL     1      -8.146   0.870 130.855  0.00  0.00    +0.000 C 
ATOM     20  O   UNL     1      -7.719   0.107 131.708  0.00  0.00    +0.000 OA
ATOM     21  N   UNL     1      -8.893   1.976 131.105  0.00  0.00    +0.000 N 
ATOM     22  C   UNL     1      -9.258   2.592 129.949  0.00  0.00    +0.000 C 
ATOM     23  O   UNL     1     -10.011   3.557 129.888  0.00  0.00    +0.000 OA
ATOM     24  H   UNL     1      -9.192   2.266 132.021  0.00  0.00    +0.000 HD
ENDBRANCH  16  17
ENDBRANCH   4  15
TORSDOF 4
ENDMDL
MODEL 6
REMARK VINA RESULT:      -7.3      5.833      8.761
REMARK  Name = Dantrolene
REMARK  4 active torsions:
REMARK  status: ('A' for Active; 'I' for Inactive)
REMARK    1  A    between atoms: N_2  and  C_4
REMARK    2  A    between atoms: C_7  and  C_10
REMARK    3  A    between atoms: C_13  and  C_15
REMARK    4  A    between atoms: N_16  and  N_17
REMARK                            x       y       z     vdW  Elec       q    Type
REMARK                         _______ _______ _______ _____ _____    ______ ____
ROOT
ATOM      1  C   UNL     1      -7.890   2.001 124.487  0.00  0.00    +0.000 A 
ATOM      2  C   UNL     1      -8.418   0.758 124.760  0.00  0.00    +0.000 A 
ATOM      3  C   UNL     1      -8.613   0.689 126.153  0.00  0.00    +0.000 A 
ATOM      4  C   UNL     1      -8.191   1.888 126.695  0.00  0.00    +0.000 A 
ATOM      5  O   UNL     1      -7.729   2.703 125.669  0.00  0.00    +0.000 OA
ENDROOT
BRANCH   1   9
ATOM      6  C   UNL     1      -6.938   3.932 120.784  0.00  0.00    +0.000 A 
ATOM      7  C   UNL     1      -8.261   3.558 121.040  0.00  0.00    +0.000 A 
ATOM      8  C   UNL     1      -8.587   2.960 122.271  0.00  0.00    +0.000 A 
ATOM      9  C   UNL     1      -7.590   2.660 123.211  0.00  0.00    +0.000 A 
ATOM     10  C   UNL     1      -6.272   3.084 122.941  0.00  0.00    +0.000 A 
ATOM     11  C   UNL     1      -5.937   3.712 121.731  0.00  0.00    +0.000 A 
BRANCH   6  13
ATOM     12  O   UNL     1      -7.410   4.522 118.602  0.00  0.00    +0.000 OA
ATOM     13  N   UNL     1      -6.601   4.611 119.536  0.00  0.00    +0.000 N 
ATOM     14  O   UNL     1      -5.521   5.215 119.494  0.00  0.00    +0.000 OA
ENDBRANCH   6  13
ENDBRANCH   1   9
BRANCH   4  15
ATOM     15  C   UNL     1      -8.206   2.314 128.087  0.00  0.00    +0.000 C 
ATOM     16  N   UNL     1      -9.304   2.177 128.786  0.00  0.00    +0.000 NA
BRANCH  16  17
ATOM     17  N   UNL     1      -9.338   2.646 130.079  0.00  0.00    +0.000 N 
ATOM     18  C   UNL     1      -8.603   1.984 131.140  0.00  0.00    +0.000 C 
ATOM     19  C   UNL     1      -9.106   2.756 132.348  0.00  0.00    +0.000 C 
ATOM     20  O   UNL     1      -8.763   2.578 133.506  0.00  0.00    +0.000 OA
ATOM     21  N   UNL     1     -10.007   3.686 131.938  0.00  0.00    +0.000 N 
ATOM     22  C   UNL     1     -10.216   3.608 130.596  0.00  0.00    +0.000 C 
ATOM     23  O   UNL     1     -11.048   4.270 129.987  0.00  0.00    +0.000 OA
ATOM     24  H   UNL     1     -10.503   4.309 132.554  0.00  0.00    +0.000 HD
ENDBRANCH  16  17
ENDBRANCH   4  15
TORSDOF 4
ENDMDL
MODEL 7
REMARK VINA RESULT:      -7.2      1.623      2.319
REMARK  Name = Dantrolene
REMARK  4 active torsions:
REMARK  status: ('A' for Active; 'I' for Inactive)
REMARK    1  A    between atoms: N_2  and  C_4
REMARK    2  A    between atoms: C_7  and  C_10
REMARK    3  A    between atoms: C_13  and  C_15
REMARK    4  A    between atoms: N_16  and  N_17
REMARK                            x       y       z     vdW  Elec       q    Type
REMARK                         _______ _______ _______ _____ _____    ______ ____
ROOT
ATOM      1  C   UNL     1      -8.640   6.351 130.594  0.00  0.00    +0.000 A 
ATOM      2  C   UNL     1      -8.051   6.322 131.839  0.00  0.00    +0.000 A 
ATOM      3  C   UNL     1      -6.850   5.596 131.710  0.00  0.00    +0.000 A 
ATOM      4  C   UNL     1      -6.743   5.193 130.393  0.00  0.00    +0.000 A 
ATOM      5  O   UNL     1      -7.856   5.647 129.696  0.00  0.00    +0.000 OA
ENDROOT
BRANCH   1   9
ATOM      6  C   UNL     1     -12.091   8.424 129.133  0.00  0.00    +0.000 A 
ATOM      7  C   UNL     1     -12.209   7.616 130.268  0.00  0.00    +0.000 A 
ATOM      8  C   UNL     1     -11.070   6.964 130.776  0.00  0.00    +0.000 A 
ATOM      9  C   UNL     1      -9.837   7.049 130.113  0.00  0.00    +0.000 A 
ATOM     10  C   UNL     1      -9.741   7.904 128.994  0.00  0.00    +0.000 A 
ATOM     11  C   UNL     1     -10.861   8.586 128.495  0.00  0.00    +0.000 A 
BRANCH   6  13
ATOM     12  O   UNL     1     -13.535  10.226 129.191  0.00  0.00    +0.000 OA
ATOM     13  N   UNL     1     -13.253   9.155 128.636  0.00  0.00    +0.000 N 
ATOM     14  O   UNL     1     -13.887   8.643 127.703  0.00  0.00    +0.000 OA
ENDBRANCH   6  13
ENDBRANCH   1   9
BRANCH   4  15
ATOM     15  C   UNL     1      -5.675   4.436 129.756  0.00  0.00    +0.000 C 
ATOM     16  N   UNL     1      -5.474   4.571 128.471  0.00  0.00    +0.000 NA
BRANCH  16  17
ATOM     17  N   UNL     1      -4.512   3.800 127.858  0.00  0.00    +0.000 N 
ATOM     18  C   UNL     1      -3.174   4.309 127.628  0.00  0.00    +0.000 C 
ATOM     19  C   UNL     1      -2.590   3.181 126.794  0.00  0.00    +0.000 C 
ATOM     20  O   UNL     1      -1.452   3.131 126.352  0.00  0.00    +0.000 OA
ATOM     21  N   UNL     1      -3.537   2.225 126.612  0.00  0.00    +0.000 N 
ATOM     22  C   UNL     1      -4.717   2.590 127.182  0.00  0.00    +0.000 C 
ATOM     23  O   UNL     1      -5.758   1.951 127.084  0.00  0.00    +0.000 OA
ATOM     24  H   UNL     1      -3.404   1.387 126.072  0.00  0.00    +0.000 HD
ENDBRANCH  16  17
ENDBRANCH   4  15
TORSDOF 4
ENDMDL
MODEL 8
REMARK VINA RESULT:      -7.2      5.164      9.330
REMARK  Name = Dantrolene
REMARK  4 active torsions:
REMARK  status: ('A' for Active; 'I' for Inactive)
REMARK    1  A    between atoms: N_2  and  C_4
REMARK    2  A    between atoms: C_7  and  C_10
REMARK    3  A    between atoms: C_13  and  C_15
REMARK    4  A    between atoms: N_16  and  N_17
REMARK                            x       y       z     vdW  Elec       q    Type
REMARK                         _______ _______ _______ _____ _____    ______ ____
ROOT
ATOM      1  C   UNL     1      -7.999   1.209 128.292  0.00  0.00    +0.000 A 
ATOM      2  C   UNL     1      -6.988   1.454 129.195  0.00  0.00    +0.000 A 
ATOM      3  C   UNL     1      -7.404   2.534 129.998  0.00  0.00    +0.000 A 
ATOM      4  C   UNL     1      -8.653   2.927 129.558  0.00  0.00    +0.000 A 
ATOM      5  O   UNL     1      -9.024   2.117 128.492  0.00  0.00    +0.000 OA
ENDROOT
BRANCH   1   9
ATOM      6  C   UNL     1      -8.515  -1.846 125.335  0.00  0.00    +0.000 A 
ATOM      7  C   UNL     1      -7.853  -2.154 126.528  0.00  0.00    +0.000 A 
ATOM      8  C   UNL     1      -7.716  -1.166 127.520  0.00  0.00    +0.000 A 
ATOM      9  C   UNL     1      -8.161   0.146 127.295  0.00  0.00    +0.000 A 
ATOM     10  C   UNL     1      -8.860   0.415 126.099  0.00  0.00    +0.000 A 
ATOM     11  C   UNL     1      -9.033  -0.570 125.114  0.00  0.00    +0.000 A 
BRANCH   6  13
ATOM     12  O   UNL     1      -9.769  -2.843 123.672  0.00  0.00    +0.000 OA
ATOM     13  N   UNL     1      -8.718  -2.882 124.327  0.00  0.00    +0.000 N 
ATOM     14  O   UNL     1      -7.831  -3.739 124.209  0.00  0.00    +0.000 OA
ENDBRANCH   6  13
ENDBRANCH   1   9
BRANCH   4  15
ATOM     15  C   UNL     1      -9.510   3.983 130.075  0.00  0.00    +0.000 C 
ATOM     16  N   UNL     1      -9.872   4.959 129.282  0.00  0.00    +0.000 NA
BRANCH  16  17
ATOM     17  N   UNL     1     -10.622   5.994 129.791  0.00  0.00    +0.000 N 
ATOM     18  C   UNL     1     -11.646   5.761 130.791  0.00  0.00    +0.000 C 
ATOM     19  C   UNL     1     -12.273   7.143 130.872  0.00  0.00    +0.000 C 
ATOM     20  O   UNL     1     -13.194   7.470 131.603  0.00  0.00    +0.000 OA
ATOM     21  N   UNL     1     -11.645   7.968 129.995  0.00  0.00    +0.000 N 
ATOM     22  C   UNL     1     -10.694   7.300 129.288  0.00  0.00    +0.000 C 
ATOM     23  O   UNL     1     -10.047   7.788 128.369  0.00  0.00    +0.000 OA
ATOM     24  H   UNL     1     -11.893   8.931 129.842  0.00  0.00    +0.000 HD
ENDBRANCH  16  17
ENDBRANCH   4  15
TORSDOF 4
ENDMDL
MODEL 9
REMARK VINA RESULT:      -7.2      8.029     11.181
REMARK  Name = Dantrolene
REMARK  4 active torsions:
REMARK  status: ('A' for Active; 'I' for Inactive)
REMARK    1  A    between atoms: N_2  and  C_4
REMARK    2  A    between atoms: C_7  and  C_10
REMARK    3  A    between atoms: C_13  and  C_15
REMARK    4  A    between atoms: N_16  and  N_17
REMARK                            x       y       z     vdW  Elec       q    Type
REMARK                         _______ _______ _______ _____ _____    ______ ____
ROOT
ATOM      1  C   UNL     1      -7.837  -3.219 128.821  0.00  0.00    +0.000 A 
ATOM      2  C   UNL     1      -8.693  -3.969 128.044  0.00  0.00    +0.000 A 
ATOM      3  C   UNL     1      -8.957  -3.220 126.880  0.00  0.00    +0.000 A 
ATOM      4  C   UNL     1      -8.263  -2.029 126.981  0.00  0.00    +0.000 A 
ATOM      5  O   UNL     1      -7.576  -2.016 128.189  0.00  0.00    +0.000 OA
ENDROOT
BRANCH   1   9
ATOM      6  C   UNL     1      -5.875  -4.096 132.525  0.00  0.00    +0.000 A 
ATOM      7  C   UNL     1      -5.465  -4.755 131.362  0.00  0.00    +0.000 A 
ATOM      8  C   UNL     1      -6.078  -4.442 130.135  0.00  0.00    +0.000 A 
ATOM      9  C   UNL     1      -7.150  -3.539 130.077  0.00  0.00    +0.000 A 
ATOM     10  C   UNL     1      -7.513  -2.861 131.260  0.00  0.00    +0.000 A 
ATOM     11  C   UNL     1      -6.889  -3.139 132.485  0.00  0.00    +0.000 A 
BRANCH   6  13
ATOM     12  O   UNL     1      -3.989  -4.118 133.858  0.00  0.00    +0.000 OA
ATOM     13  N   UNL     1      -5.201  -4.368 133.791  0.00  0.00    +0.000 N 
ATOM     14  O   UNL     1      -5.886  -4.847 134.706  0.00  0.00    +0.000 OA
ENDBRANCH   6  13
ENDBRANCH   1   9
BRANCH   4  15
ATOM     15  C   UNL     1      -8.195  -0.931 126.029  0.00  0.00    +0.000 C 
ATOM     16  N   UNL     1      -9.222  -0.690 125.256  0.00  0.00    +0.000 NA
BRANCH  16  17
ATOM     17  N   UNL     1      -9.129   0.302 124.307  0.00  0.00    +0.000 N 
ATOM     18  C   UNL     1      -8.541   1.590 124.620  0.00  0.00    +0.000 C 
ATOM     19  C   UNL     1      -8.839   2.348 123.337  0.00  0.00    +0.000 C 
ATOM     20  O   UNL     1      -8.524   3.504 123.097  0.00  0.00    +0.000 OA
ATOM     21  N   UNL     1      -9.518   1.536 122.487  0.00  0.00    +0.000 N 
ATOM     22  C   UNL     1      -9.763   0.325 123.058  0.00  0.00    +0.000 C 
ATOM     23  O   UNL     1     -10.438  -0.557 122.541  0.00  0.00    +0.000 OA
ATOM     24  H   UNL     1      -9.853   1.813 121.580  0.00  0.00    +0.000 HD
ENDBRANCH  16  17
ENDBRANCH   4  15
TORSDOF 4
ENDMDL
