MODEL 1
REMARK VINA RESULT:      -8.0      0.000      0.000
REMARK  Name = Dapagliflozin
REMARK  11 active torsions:
REMARK  status: ('A' for Active; 'I' for Inactive)
REMARK    1  A    between atoms: C_1  and  C_2
REMARK    2  A    between atoms: C_2  and  O_3
REMARK    3  A    between atoms: O_3  and  C_4
REMARK    4  A    between atoms: C_7  and  C_8
REMARK    5  A    between atoms: C_8  and  C_9
REMARK    6  A    between atoms: C_14  and  C_16
REMARK    7  A    between atoms: C_18  and  C_19
REMARK    8  A    between atoms: C_19  and  O_20
REMARK    9  A    between atoms: C_21  and  O_22
REMARK   10  A    between atoms: C_23  and  O_24
REMARK   11  A    between atoms: C_25  and  O_26
REMARK                            x       y       z     vdW  Elec       q    Type
REMARK                         _______ _______ _______ _____ _____    ______ ____
ROOT
ATOM      1  C   UNL     1      -8.569   4.788 132.240  0.00  0.00    +0.000 A 
ATOM      2  C   UNL     1      -8.698   3.395 132.214  0.00  0.00    +0.000 A 
ATOM      3 CL   UNL     1      -7.812   2.367 133.278  0.00  0.00    +0.000 Cl
ATOM      4  C   UNL     1      -9.617   2.790 131.350  0.00  0.00    +0.000 A 
ATOM      5  C   UNL     1     -10.496   3.573 130.603  0.00  0.00    +0.000 A 
ATOM      6  C   UNL     1     -10.419   4.967 130.665  0.00  0.00    +0.000 A 
ATOM      7  C   UNL     1      -9.410   5.555 131.421  0.00  0.00    +0.000 A 
ENDROOT
BRANCH   6   8
ATOM      8  C   UNL     1     -11.397   5.870 129.965  0.00  0.00    +0.000 C 
ATOM      9  O   UNL     1     -10.765   6.339 128.770  0.00  0.00    +0.000 OA
ATOM     10  C   UNL     1     -11.624   7.174 127.991  0.00  0.00    +0.000 C 
ATOM     11  C   UNL     1     -12.058   8.405 128.797  0.00  0.00    +0.000 C 
ATOM     12  C   UNL     1     -12.743   7.965 130.106  0.00  0.00    +0.000 C 
ATOM     13  C   UNL     1     -11.857   6.999 130.896  0.00  0.00    +0.000 C 
BRANCH  11  14
ATOM     14  O   UNL     1     -12.959   9.205 128.025  0.00  0.00    +0.000 OA
ATOM     15  H   UNL     1     -12.478   9.567 127.261  0.00  0.00    +0.000 HD
ENDBRANCH  11  14
BRANCH  12  16
ATOM     16  O   UNL     1     -13.073   9.102 130.911  0.00  0.00    +0.000 OA
ATOM     17  H   UNL     1     -12.266   9.633 131.021  0.00  0.00    +0.000 HD
ENDBRANCH  12  16
BRANCH  13  18
ATOM     18  O   UNL     1     -12.570   6.481 132.032  0.00  0.00    +0.000 OA
ATOM     19  H   UNL     1     -11.932   6.179 132.701  0.00  0.00    +0.000 HD
ENDBRANCH  13  18
BRANCH  10  20
ATOM     20  C   UNL     1     -10.975   7.545 126.644  0.00  0.00    +0.000 C 
BRANCH  20  21
ATOM     21  O   UNL     1     -10.106   6.539 126.136  0.00  0.00    +0.000 OA
ATOM     22  H   UNL     1     -10.135   5.802 126.773  0.00  0.00    +0.000 HD
ENDBRANCH  20  21
ENDBRANCH  10  20
ENDBRANCH   6   8
BRANCH   1  23
ATOM     23  C   UNL     1      -7.649   5.555 133.160  0.00  0.00    +0.000 C 
BRANCH  23  27
ATOM     24  C   UNL     1      -3.935   6.744 131.265  0.00  0.00    +0.000 A 
ATOM     25  C   UNL     1      -5.171   7.083 130.704  0.00  0.00    +0.000 A 
ATOM     26  C   UNL     1      -6.362   6.738 131.353  0.00  0.00    +0.000 A 
ATOM     27  C   UNL     1      -6.334   5.993 132.533  0.00  0.00    +0.000 A 
ATOM     28  C   UNL     1      -5.079   5.666 133.080  0.00  0.00    +0.000 A 
ATOM     29  C   UNL     1      -3.896   6.068 132.470  0.00  0.00    +0.000 A 
BRANCH  24  30
ATOM     30  O   UNL     1      -2.823   7.181 130.600  0.00  0.00    +0.000 OA
BRANCH  30  32
ATOM     31  C   UNL     1      -2.302   6.801 128.311  0.00  0.00    +0.000 C 
ATOM     32  C   UNL     1      -2.240   6.225 129.710  0.00  0.00    +0.000 C 
ENDBRANCH  30  32
ENDBRANCH  24  30
ENDBRANCH  23  27
ENDBRANCH   1  23
TORSDOF 10
ENDMDL
MODEL 2
REMARK VINA RESULT:      -7.8      7.648      9.684
REMARK  Name = Dapagliflozin
REMARK  11 active torsions:
REMARK  status: ('A' for Active; 'I' for Inactive)
REMARK    1  A    between atoms: C_1  and  C_2
REMARK    2  A    between atoms: C_2  and  O_3
REMARK    3  A    between atoms: O_3  and  C_4
REMARK    4  A    between atoms: C_7  and  C_8
REMARK    5  A    between atoms: C_8  and  C_9
REMARK    6  A    between atoms: C_14  and  C_16
REMARK    7  A    between atoms: C_18  and  C_19
REMARK    8  A    between atoms: C_19  and  O_20
REMARK    9  A    between atoms: C_21  and  O_22
REMARK   10  A    between atoms: C_23  and  O_24
REMARK   11  A    between atoms: C_25  and  O_26
REMARK                            x       y       z     vdW  Elec       q    Type
REMARK                         _______ _______ _______ _____ _____    ______ ____
ROOT
ATOM      1  C   UNL     1      -7.851  -1.559 123.669  0.00  0.00    +0.000 A 
ATOM      2  C   UNL     1      -9.113  -1.940 123.200  0.00  0.00    +0.000 A 
ATOM      3 CL   UNL     1      -9.690  -3.561 123.322  0.00  0.00    +0.000 Cl
ATOM      4  C   UNL     1      -9.984  -0.984 122.668  0.00  0.00    +0.000 A 
ATOM      5  C   UNL     1      -9.653   0.369 122.717  0.00  0.00    +0.000 A 
ATOM      6  C   UNL     1      -8.420   0.771 123.237  0.00  0.00    +0.000 A 
ATOM      7  C   UNL     1      -7.506  -0.199 123.636  0.00  0.00    +0.000 A 
ENDROOT
BRANCH   6   8
ATOM      8  C   UNL     1      -8.039   2.216 123.411  0.00  0.00    +0.000 C 
ATOM      9  O   UNL     1      -6.835   2.431 122.669  0.00  0.00    +0.000 OA
ATOM     10  C   UNL     1      -6.400   3.792 122.720  0.00  0.00    +0.000 C 
ATOM     11  C   UNL     1      -6.133   4.220 124.169  0.00  0.00    +0.000 C 
ATOM     12  C   UNL     1      -7.397   4.004 125.025  0.00  0.00    +0.000 C 
ATOM     13  C   UNL     1      -7.913   2.570 124.898  0.00  0.00    +0.000 C 
BRANCH  11  14
ATOM     14  O   UNL     1      -5.749   5.598 124.211  0.00  0.00    +0.000 OA
ATOM     15  H   UNL     1      -6.131   6.052 123.440  0.00  0.00    +0.000 HD
ENDBRANCH  11  14
BRANCH  12  16
ATOM     16  O   UNL     1      -7.137   4.316 126.398  0.00  0.00    +0.000 OA
ATOM     17  H   UNL     1      -7.358   5.253 126.537  0.00  0.00    +0.000 HD
ENDBRANCH  12  16
BRANCH  13  18
ATOM     18  O   UNL     1      -9.172   2.429 125.576  0.00  0.00    +0.000 OA
ATOM     19  H   UNL     1      -9.284   1.504 125.857  0.00  0.00    +0.000 HD
ENDBRANCH  13  18
BRANCH  10  20
ATOM     20  C   UNL     1      -5.188   4.027 121.798  0.00  0.00    +0.000 C 
BRANCH  20  21
ATOM     21  O   UNL     1      -4.868   5.402 121.620  0.00  0.00    +0.000 OA
ATOM     22  H   UNL     1      -4.517   5.716 122.475  0.00  0.00    +0.000 HD
ENDBRANCH  20  21
ENDBRANCH  10  20
ENDBRANCH   6   8
BRANCH   1  23
ATOM     23  C   UNL     1      -6.846  -2.489 124.305  0.00  0.00    +0.000 C 
BRANCH  23  27
ATOM     24  C   UNL     1      -6.788  -2.619 128.639  0.00  0.00    +0.000 A 
ATOM     25  C   UNL     1      -5.669  -2.191 127.915  0.00  0.00    +0.000 A 
ATOM     26  C   UNL     1      -5.719  -2.104 126.519  0.00  0.00    +0.000 A 
ATOM     27  C   UNL     1      -6.861  -2.507 125.826  0.00  0.00    +0.000 A 
ATOM     28  C   UNL     1      -7.975  -2.931 126.575  0.00  0.00    +0.000 A 
ATOM     29  C   UNL     1      -7.948  -2.953 127.964  0.00  0.00    +0.000 A 
BRANCH  24  30
ATOM     30  O   UNL     1      -6.674  -2.606 130.001  0.00  0.00    +0.000 OA
BRANCH  30  32
ATOM     31  C   UNL     1      -5.753  -4.686 130.694  0.00  0.00    +0.000 C 
ATOM     32  C   UNL     1      -5.481  -3.208 130.511  0.00  0.00    +0.000 C 
ENDBRANCH  30  32
ENDBRANCH  24  30
ENDBRANCH  23  27
ENDBRANCH   1  23
TORSDOF 10
ENDMDL
MODEL 3
REMARK VINA RESULT:      -7.5      7.272      9.373
REMARK  Name = Dapagliflozin
REMARK  11 active torsions:
REMARK  status: ('A' for Active; 'I' for Inactive)
REMARK    1  A    between atoms: C_1  and  C_2
REMARK    2  A    between atoms: C_2  and  O_3
REMARK    3  A    between atoms: O_3  and  C_4
REMARK    4  A    between atoms: C_7  and  C_8
REMARK    5  A    between atoms: C_8  and  C_9
REMARK    6  A    between atoms: C_14  and  C_16
REMARK    7  A    between atoms: C_18  and  C_19
REMARK    8  A    between atoms: C_19  and  O_20
REMARK    9  A    between atoms: C_21  and  O_22
REMARK   10  A    between atoms: C_23  and  O_24
REMARK   11  A    between atoms: C_25  and  O_26
REMARK                            x       y       z     vdW  Elec       q    Type
REMARK                         _______ _______ _______ _____ _____    ______ ____
ROOT
ATOM      1  C   UNL     1      -7.815  -1.631 125.687  0.00  0.00    +0.000 A 
ATOM      2  C   UNL     1      -7.665  -2.427 124.546  0.00  0.00    +0.000 A 
ATOM      3 CL   UNL     1      -8.179  -4.072 124.496  0.00  0.00    +0.000 Cl
ATOM      4  C   UNL     1      -7.143  -1.878 123.371  0.00  0.00    +0.000 A 
ATOM      5  C   UNL     1      -6.886  -0.510 123.290  0.00  0.00    +0.000 A 
ATOM      6  C   UNL     1      -7.088   0.308 124.404  0.00  0.00    +0.000 A 
ATOM      7  C   UNL     1      -7.477  -0.272 125.607  0.00  0.00    +0.000 A 
ENDROOT
BRANCH   6   8
ATOM      8  C   UNL     1      -6.927   1.803 124.358  0.00  0.00    +0.000 C 
ATOM      9  O   UNL     1      -5.756   2.129 125.113  0.00  0.00    +0.000 OA
ATOM     10  C   UNL     1      -5.472   3.530 125.100  0.00  0.00    +0.000 C 
ATOM     11  C   UNL     1      -6.641   4.324 125.696  0.00  0.00    +0.000 C 
ATOM     12  C   UNL     1      -7.940   4.009 124.928  0.00  0.00    +0.000 C 
ATOM     13  C   UNL     1      -8.195   2.502 124.865  0.00  0.00    +0.000 C 
BRANCH  11  14
ATOM     14  O   UNL     1      -6.367   5.727 125.630  0.00  0.00    +0.000 OA
ATOM     15  H   UNL     1      -7.128   6.211 125.993  0.00  0.00    +0.000 HD
ENDBRANCH  11  14
BRANCH  12  16
ATOM     16  O   UNL     1      -9.057   4.674 125.528  0.00  0.00    +0.000 OA
ATOM     17  H   UNL     1      -9.145   5.547 125.107  0.00  0.00    +0.000 HD
ENDBRANCH  12  16
BRANCH  13  18
ATOM     18  O   UNL     1      -9.321   2.219 124.018  0.00  0.00    +0.000 OA
ATOM     19  H   UNL     1      -9.979   2.928 124.112  0.00  0.00    +0.000 HD
ENDBRANCH  13  18
BRANCH  10  20
ATOM     20  C   UNL     1      -4.131   3.835 125.794  0.00  0.00    +0.000 C 
BRANCH  20  21
ATOM     21  O   UNL     1      -4.277   4.381 127.099  0.00  0.00    +0.000 OA
ATOM     22  H   UNL     1      -4.197   5.348 127.005  0.00  0.00    +0.000 HD
ENDBRANCH  20  21
ENDBRANCH  10  20
ENDBRANCH   6   8
BRANCH   1  23
ATOM     23  C   UNL     1      -8.409  -2.096 126.996  0.00  0.00    +0.000 C 
BRANCH  23  27
ATOM     24  C   UNL     1      -5.592  -3.436 130.007  0.00  0.00    +0.000 A 
ATOM     25  C   UNL     1      -6.962  -3.686 130.140  0.00  0.00    +0.000 A 
ATOM     26  C   UNL     1      -7.855  -3.294 129.135  0.00  0.00    +0.000 A 
ATOM     27  C   UNL     1      -7.399  -2.589 128.020  0.00  0.00    +0.000 A 
ATOM     28  C   UNL     1      -6.015  -2.352 127.907  0.00  0.00    +0.000 A 
ATOM     29  C   UNL     1      -5.122  -2.801 128.872  0.00  0.00    +0.000 A 
BRANCH  24  30
ATOM     30  O   UNL     1      -4.785  -3.916 131.001  0.00  0.00    +0.000 OA
BRANCH  30  32
ATOM     31  C   UNL     1      -4.653  -5.091 133.065  0.00  0.00    +0.000 C 
ATOM     32  C   UNL     1      -5.299  -5.056 131.695  0.00  0.00    +0.000 C 
ENDBRANCH  30  32
ENDBRANCH  24  30
ENDBRANCH  23  27
ENDBRANCH   1  23
TORSDOF 10
ENDMDL
MODEL 4
REMARK VINA RESULT:      -7.5      3.471      4.945
REMARK  Name = Dapagliflozin
REMARK  11 active torsions:
REMARK  status: ('A' for Active; 'I' for Inactive)
REMARK    1  A    between atoms: C_1  and  C_2
REMARK    2  A    between atoms: C_2  and  O_3
REMARK    3  A    between atoms: O_3  and  C_4
REMARK    4  A    between atoms: C_7  and  C_8
REMARK    5  A    between atoms: C_8  and  C_9
REMARK    6  A    between atoms: C_14  and  C_16
REMARK    7  A    between atoms: C_18  and  C_19
REMARK    8  A    between atoms: C_19  and  O_20
REMARK    9  A    between atoms: C_21  and  O_22
REMARK   10  A    between atoms: C_23  and  O_24
REMARK   11  A    between atoms: C_25  and  O_26
REMARK                            x       y       z     vdW  Elec       q    Type
REMARK                         _______ _______ _______ _____ _____    ______ ____
ROOT
ATOM      1  C   UNL     1      -6.936   5.583 133.256  0.00  0.00    +0.000 A 
ATOM      2  C   UNL     1      -5.835   6.172 132.624  0.00  0.00    +0.000 A 
ATOM      3 CL   UNL     1      -4.230   6.017 133.236  0.00  0.00    +0.000 Cl
ATOM      4  C   UNL     1      -6.002   6.862 131.419  0.00  0.00    +0.000 A 
ATOM      5  C   UNL     1      -7.240   6.861 130.777  0.00  0.00    +0.000 A 
ATOM      6  C   UNL     1      -8.335   6.225 131.367  0.00  0.00    +0.000 A 
ATOM      7  C   UNL     1      -8.189   5.661 132.630  0.00  0.00    +0.000 A 
ENDROOT
BRANCH   6   8
ATOM      8  C   UNL     1      -9.670   6.099 130.685  0.00  0.00    +0.000 C 
ATOM      9  O   UNL     1      -9.586   6.814 129.448  0.00  0.00    +0.000 OA
ATOM     10  C   UNL     1     -10.790   6.724 128.683  0.00  0.00    +0.000 C 
ATOM     11  C   UNL     1     -11.974   7.300 129.470  0.00  0.00    +0.000 C 
ATOM     12  C   UNL     1     -12.114   6.573 130.822  0.00  0.00    +0.000 C 
ATOM     13  C   UNL     1     -10.797   6.593 131.601  0.00  0.00    +0.000 C 
BRANCH  11  14
ATOM     14  O   UNL     1     -13.182   7.156 128.716  0.00  0.00    +0.000 OA
ATOM     15  H   UNL     1     -13.698   6.423 129.092  0.00  0.00    +0.000 HD
ENDBRANCH  11  14
BRANCH  12  16
ATOM     16  O   UNL     1     -13.159   7.159 131.606  0.00  0.00    +0.000 OA
ATOM     17  H   UNL     1     -13.200   8.107 131.387  0.00  0.00    +0.000 HD
ENDBRANCH  12  16
BRANCH  13  18
ATOM     18  O   UNL     1     -10.901   5.783 132.783  0.00  0.00    +0.000 OA
ATOM     19  H   UNL     1     -10.336   6.158 133.480  0.00  0.00    +0.000 HD
ENDBRANCH  13  18
BRANCH  10  20
ATOM     20  C   UNL     1     -10.624   7.376 127.298  0.00  0.00    +0.000 C 
BRANCH  20  21
ATOM     21  O   UNL     1     -11.355   6.720 126.269  0.00  0.00    +0.000 OA
ATOM     22  H   UNL     1     -10.726   6.127 125.817  0.00  0.00    +0.000 HD
ENDBRANCH  20  21
ENDBRANCH  10  20
ENDBRANCH   6   8
BRANCH   1  23
ATOM     23  C   UNL     1      -6.874   4.775 134.530  0.00  0.00    +0.000 C 
BRANCH  23  27
ATOM     24  C   UNL     1      -6.914   7.211 138.117  0.00  0.00    +0.000 A 
ATOM     25  C   UNL     1      -8.097   6.923 137.428  0.00  0.00    +0.000 A 
ATOM     26  C   UNL     1      -8.077   6.092 136.302  0.00  0.00    +0.000 A 
ATOM     27  C   UNL     1      -6.868   5.596 135.811  0.00  0.00    +0.000 A 
ATOM     28  C   UNL     1      -5.691   5.897 136.522  0.00  0.00    +0.000 A 
ATOM     29  C   UNL     1      -5.721   6.666 137.679  0.00  0.00    +0.000 A 
BRANCH  24  30
ATOM     30  O   UNL     1      -7.036   7.972 139.246  0.00  0.00    +0.000 OA
BRANCH  30  32
ATOM     31  C   UNL     1      -6.792  10.198 138.445  0.00  0.00    +0.000 C 
ATOM     32  C   UNL     1      -7.746   9.201 139.069  0.00  0.00    +0.000 C 
ENDBRANCH  30  32
ENDBRANCH  24  30
ENDBRANCH  23  27
ENDBRANCH   1  23
TORSDOF 10
ENDMDL
MODEL 5
REMARK VINA RESULT:      -7.4      3.672      4.653
REMARK  Name = Dapagliflozin
REMARK  11 active torsions:
REMARK  status: ('A' for Active; 'I' for Inactive)
REMARK    1  A    between atoms: C_1  and  C_2
REMARK    2  A    between atoms: C_2  and  O_3
REMARK    3  A    between atoms: O_3  and  C_4
REMARK    4  A    between atoms: C_7  and  C_8
REMARK    5  A    between atoms: C_8  and  C_9
REMARK    6  A    between atoms: C_14  and  C_16
REMARK    7  A    between atoms: C_18  and  C_19
REMARK    8  A    between atoms: C_19  and  O_20
REMARK    9  A    between atoms: C_21  and  O_22
REMARK   10  A    between atoms: C_23  and  O_24
REMARK   11  A    between atoms: C_25  and  O_26
REMARK                            x       y       z     vdW  Elec       q    Type
REMARK                         _______ _______ _______ _____ _____    ______ ____
ROOT
ATOM      1  C   UNL     1      -6.328   4.662 130.149  0.00  0.00    +0.000 A 
ATOM      2  C   UNL     1      -5.709   5.701 130.851  0.00  0.00    +0.000 A 
ATOM      3 CL   UNL     1      -3.997   5.792 131.041  0.00  0.00    +0.000 Cl
ATOM      4  C   UNL     1      -6.473   6.750 131.373  0.00  0.00    +0.000 A 
ATOM      5  C   UNL     1      -7.836   6.832 131.091  0.00  0.00    +0.000 A 
ATOM      6  C   UNL     1      -8.457   5.832 130.339  0.00  0.00    +0.000 A 
ATOM      7  C   UNL     1      -7.715   4.724 129.942  0.00  0.00    +0.000 A 
ENDROOT
BRANCH   6   8
ATOM      8  C   UNL     1      -9.898   5.908 129.914  0.00  0.00    +0.000 C 
ATOM      9  O   UNL     1      -9.957   6.748 128.757  0.00  0.00    +0.000 OA
ATOM     10  C   UNL     1     -11.281   6.856 128.229  0.00  0.00    +0.000 C 
ATOM     11  C   UNL     1     -12.234   7.446 129.277  0.00  0.00    +0.000 C 
ATOM     12  C   UNL     1     -12.210   6.586 130.556  0.00  0.00    +0.000 C 
ATOM     13  C   UNL     1     -10.781   6.397 131.069  0.00  0.00    +0.000 C 
BRANCH  11  14
ATOM     14  O   UNL     1     -13.565   7.500 128.755  0.00  0.00    +0.000 OA
ATOM     15  H   UNL     1     -13.523   7.763 127.819  0.00  0.00    +0.000 HD
ENDBRANCH  11  14
BRANCH  12  16
ATOM     16  O   UNL     1     -13.026   7.173 131.575  0.00  0.00    +0.000 OA
ATOM     17  H   UNL     1     -13.522   7.908 131.173  0.00  0.00    +0.000 HD
ENDBRANCH  12  16
BRANCH  13  18
ATOM     18  O   UNL     1     -10.762   5.471 132.168  0.00  0.00    +0.000 OA
ATOM     19  H   UNL     1     -10.855   4.565 131.826  0.00  0.00    +0.000 HD
ENDBRANCH  13  18
BRANCH  10  20
ATOM     20  C   UNL     1     -11.293   7.643 126.905  0.00  0.00    +0.000 C 
BRANCH  20  21
ATOM     21  O   UNL     1     -12.121   7.060 125.905  0.00  0.00    +0.000 OA
ATOM     22  H   UNL     1     -11.599   6.343 125.499  0.00  0.00    +0.000 HD
ENDBRANCH  20  21
ENDBRANCH  10  20
ENDBRANCH   6   8
BRANCH   1  23
ATOM     23  C   UNL     1      -5.608   3.504 129.500  0.00  0.00    +0.000 C 
BRANCH  23  27
ATOM     24  C   UNL     1      -5.654   3.667 125.167  0.00  0.00    +0.000 A 
ATOM     25  C   UNL     1      -4.928   4.599 125.916  0.00  0.00    +0.000 A 
ATOM     26  C   UNL     1      -4.879   4.504 127.311  0.00  0.00    +0.000 A 
ATOM     27  C   UNL     1      -5.609   3.519 127.979  0.00  0.00    +0.000 A 
ATOM     28  C   UNL     1      -6.330   2.590 127.204  0.00  0.00    +0.000 A 
ATOM     29  C   UNL     1      -6.323   2.645 125.816  0.00  0.00    +0.000 A 
BRANCH  24  30
ATOM     30  O   UNL     1      -5.590   3.793 123.807  0.00  0.00    +0.000 OA
BRANCH  30  32
ATOM     31  C   UNL     1      -6.696   3.583 121.712  0.00  0.00    +0.000 C 
ATOM     32  C   UNL     1      -6.507   2.968 123.083  0.00  0.00    +0.000 C 
ENDBRANCH  30  32
ENDBRANCH  24  30
ENDBRANCH  23  27
ENDBRANCH   1  23
TORSDOF 10
ENDMDL
MODEL 6
REMARK VINA RESULT:      -7.4      1.842      2.097
REMARK  Name = Dapagliflozin
REMARK  11 active torsions:
REMARK  status: ('A' for Active; 'I' for Inactive)
REMARK    1  A    between atoms: C_1  and  C_2
REMARK    2  A    between atoms: C_2  and  O_3
REMARK    3  A    between atoms: O_3  and  C_4
REMARK    4  A    between atoms: C_7  and  C_8
REMARK    5  A    between atoms: C_8  and  C_9
REMARK    6  A    between atoms: C_14  and  C_16
REMARK    7  A    between atoms: C_18  and  C_19
REMARK    8  A    between atoms: C_19  and  O_20
REMARK    9  A    between atoms: C_21  and  O_22
REMARK   10  A    between atoms: C_23  and  O_24
REMARK   11  A    between atoms: C_25  and  O_26
REMARK                            x       y       z     vdW  Elec       q    Type
REMARK                         _______ _______ _______ _____ _____    ______ ____
ROOT
ATOM      1  C   UNL     1      -8.215   4.483 131.197  0.00  0.00    +0.000 A 
ATOM      2  C   UNL     1      -8.496   3.159 131.552  0.00  0.00    +0.000 A 
ATOM      3 CL   UNL     1      -7.376   2.182 132.428  0.00  0.00    +0.000 Cl
ATOM      4  C   UNL     1      -9.745   2.602 131.258  0.00  0.00    +0.000 A 
ATOM      5  C   UNL     1     -10.758   3.397 130.724  0.00  0.00    +0.000 A 
ATOM      6  C   UNL     1     -10.510   4.737 130.419  0.00  0.00    +0.000 A 
ATOM      7  C   UNL     1      -9.225   5.243 130.588  0.00  0.00    +0.000 A 
ENDROOT
BRANCH   6   8
ATOM      8  C   UNL     1     -11.582   5.676 129.935  0.00  0.00    +0.000 C 
ATOM      9  O   UNL     1     -11.213   6.101 128.620  0.00  0.00    +0.000 OA
ATOM     10  C   UNL     1     -12.189   6.965 128.033  0.00  0.00    +0.000 C 
ATOM     11  C   UNL     1     -12.381   8.224 128.888  0.00  0.00    +0.000 C 
ATOM     12  C   UNL     1     -12.774   7.830 130.327  0.00  0.00    +0.000 C 
ATOM     13  C   UNL     1     -11.775   6.835 130.921  0.00  0.00    +0.000 C 
BRANCH  11  14
ATOM     14  O   UNL     1     -13.397   9.055 128.319  0.00  0.00    +0.000 OA
ATOM     15  H   UNL     1     -12.978   9.853 127.953  0.00  0.00    +0.000 HD
ENDBRANCH  11  14
BRANCH  12  16
ATOM     16  O   UNL     1     -12.869   8.991 131.160  0.00  0.00    +0.000 OA
ATOM     17  H   UNL     1     -12.207   9.634 130.852  0.00  0.00    +0.000 HD
ENDBRANCH  12  16
BRANCH  13  18
ATOM     18  O   UNL     1     -12.237   6.363 132.197  0.00  0.00    +0.000 OA
ATOM     19  H   UNL     1     -12.782   5.568 132.067  0.00  0.00    +0.000 HD
ENDBRANCH  13  18
BRANCH  10  20
ATOM     20  C   UNL     1     -11.841   7.290 126.568  0.00  0.00    +0.000 C 
BRANCH  20  21
ATOM     21  O   UNL     1     -10.888   8.337 126.428  0.00  0.00    +0.000 OA
ATOM     22  H   UNL     1     -10.378   8.358 127.259  0.00  0.00    +0.000 HD
ENDBRANCH  20  21
ENDBRANCH  10  20
ENDBRANCH   6   8
BRANCH   1  23
ATOM     23  C   UNL     1      -6.926   5.207 131.502  0.00  0.00    +0.000 C 
BRANCH  23  27
ATOM     24  C   UNL     1      -3.877   4.912 128.433  0.00  0.00    +0.000 A 
ATOM     25  C   UNL     1      -3.930   6.014 129.293  0.00  0.00    +0.000 A 
ATOM     26  C   UNL     1      -4.886   6.072 130.313  0.00  0.00    +0.000 A 
ATOM     27  C   UNL     1      -5.843   5.064 130.443  0.00  0.00    +0.000 A 
ATOM     28  C   UNL     1      -5.769   3.963 129.568  0.00  0.00    +0.000 A 
ATOM     29  C   UNL     1      -4.776   3.875 128.599  0.00  0.00    +0.000 A 
BRANCH  24  30
ATOM     30  O   UNL     1      -2.867   4.905 127.511  0.00  0.00    +0.000 OA
BRANCH  30  32
ATOM     31  C   UNL     1      -1.634   3.088 126.599  0.00  0.00    +0.000 C 
ATOM     32  C   UNL     1      -2.941   3.851 126.547  0.00  0.00    +0.000 C 
ENDBRANCH  30  32
ENDBRANCH  24  30
ENDBRANCH  23  27
ENDBRANCH   1  23
TORSDOF 10
ENDMDL
MODEL 7
REMARK VINA RESULT:      -7.4      4.910      7.618
REMARK  Name = Dapagliflozin
REMARK  11 active torsions:
REMARK  status: ('A' for Active; 'I' for Inactive)
REMARK    1  A    between atoms: C_1  and  C_2
REMARK    2  A    between atoms: C_2  and  O_3
REMARK    3  A    between atoms: O_3  and  C_4
REMARK    4  A    between atoms: C_7  and  C_8
REMARK    5  A    between atoms: C_8  and  C_9
REMARK    6  A    between atoms: C_14  and  C_16
REMARK    7  A    between atoms: C_18  and  C_19
REMARK    8  A    between atoms: C_19  and  O_20
REMARK    9  A    between atoms: C_21  and  O_22
REMARK   10  A    between atoms: C_23  and  O_24
REMARK   11  A    between atoms: C_25  and  O_26
REMARK                            x       y       z     vdW  Elec       q    Type
REMARK                         _______ _______ _______ _____ _____    ______ ____
ROOT
ATOM      1  C   UNL     1      -7.756   2.887 129.491  0.00  0.00    +0.000 A 
ATOM      2  C   UNL     1      -6.361   2.794 129.429  0.00  0.00    +0.000 A 
ATOM      3 CL   UNL     1      -5.353   3.149 130.782  0.00  0.00    +0.000 Cl
ATOM      4  C   UNL     1      -5.738   2.338 128.263  0.00  0.00    +0.000 A 
ATOM      5  C   UNL     1      -6.504   1.856 127.202  0.00  0.00    +0.000 A 
ATOM      6  C   UNL     1      -7.899   1.887 127.273  0.00  0.00    +0.000 A 
ATOM      7  C   UNL     1      -8.507   2.469 128.381  0.00  0.00    +0.000 A 
ENDROOT
BRANCH   6   8
ATOM      8  C   UNL     1      -8.784   1.294 126.211  0.00  0.00    +0.000 C 
ATOM      9  O   UNL     1      -8.395  -0.073 126.047  0.00  0.00    +0.000 OA
ATOM     10  C   UNL     1      -9.205  -0.760 125.090  0.00  0.00    +0.000 C 
ATOM     11  C   UNL     1      -9.107  -0.084 123.716  0.00  0.00    +0.000 C 
ATOM     12  C   UNL     1      -9.508   1.400 123.827  0.00  0.00    +0.000 C 
ATOM     13  C   UNL     1      -8.701   2.112 124.916  0.00  0.00    +0.000 C 
BRANCH  11  14
ATOM     14  O   UNL     1      -9.962  -0.748 122.780  0.00  0.00    +0.000 OA
ATOM     15  H   UNL     1     -10.641  -1.240 123.273  0.00  0.00    +0.000 HD
ENDBRANCH  11  14
BRANCH  12  16
ATOM     16  O   UNL     1      -9.336   2.066 122.571  0.00  0.00    +0.000 OA
ATOM     17  H   UNL     1     -10.216   2.333 122.253  0.00  0.00    +0.000 HD
ENDBRANCH  12  16
BRANCH  13  18
ATOM     18  O   UNL     1      -9.192   3.448 125.110  0.00  0.00    +0.000 OA
ATOM     19  H   UNL     1      -9.820   3.666 124.401  0.00  0.00    +0.000 HD
ENDBRANCH  13  18
BRANCH  10  20
ATOM     20  C   UNL     1      -8.863  -2.261 125.040  0.00  0.00    +0.000 C 
BRANCH  20  21
ATOM     21  O   UNL     1      -9.856  -3.049 124.393  0.00  0.00    +0.000 OA
ATOM     22  H   UNL     1      -9.914  -2.720 123.477  0.00  0.00    +0.000 HD
ENDBRANCH  20  21
ENDBRANCH  10  20
ENDBRANCH   6   8
BRANCH   1  23
ATOM     23  C   UNL     1      -8.543   3.318 130.706  0.00  0.00    +0.000 C 
BRANCH  23  27
ATOM     24  C   UNL     1     -10.978   6.873 130.230  0.00  0.00    +0.000 A 
ATOM     25  C   UNL     1      -9.582   6.954 130.254  0.00  0.00    +0.000 A 
ATOM     26  C   UNL     1      -8.807   5.793 130.355  0.00  0.00    +0.000 A 
ATOM     27  C   UNL     1      -9.416   4.546 130.502  0.00  0.00    +0.000 A 
ATOM     28  C   UNL     1     -10.823   4.489 130.472  0.00  0.00    +0.000 A 
ATOM     29  C   UNL     1     -11.590   5.635 130.304  0.00  0.00    +0.000 A 
BRANCH  24  30
ATOM     30  O   UNL     1     -11.655   8.049 130.057  0.00  0.00    +0.000 OA
BRANCH  30  32
ATOM     31  C   UNL     1     -13.166   8.381 128.252  0.00  0.00    +0.000 C 
ATOM     32  C   UNL     1     -11.727   8.508 128.705  0.00  0.00    +0.000 C 
ENDBRANCH  30  32
ENDBRANCH  24  30
ENDBRANCH  23  27
ENDBRANCH   1  23
TORSDOF 10
ENDMDL
MODEL 8
REMARK VINA RESULT:      -7.3      3.401      5.323
REMARK  Name = Dapagliflozin
REMARK  11 active torsions:
REMARK  status: ('A' for Active; 'I' for Inactive)
REMARK    1  A    between atoms: C_1  and  C_2
REMARK    2  A    between atoms: C_2  and  O_3
REMARK    3  A    between atoms: O_3  and  C_4
REMARK    4  A    between atoms: C_7  and  C_8
REMARK    5  A    between atoms: C_8  and  C_9
REMARK    6  A    between atoms: C_14  and  C_16
REMARK    7  A    between atoms: C_18  and  C_19
REMARK    8  A    between atoms: C_19  and  O_20
REMARK    9  A    between atoms: C_21  and  O_22
REMARK   10  A    between atoms: C_23  and  O_24
REMARK   11  A    between atoms: C_25  and  O_26
REMARK                            x       y       z     vdW  Elec       q    Type
REMARK                         _______ _______ _______ _____ _____    ______ ____
ROOT
ATOM      1  C   UNL     1      -8.452   2.983 131.189  0.00  0.00    +0.000 A 
ATOM      2  C   UNL     1      -7.251   3.695 131.275  0.00  0.00    +0.000 A 
ATOM      3 CL   UNL     1      -5.735   2.915 131.537  0.00  0.00    +0.000 Cl
ATOM      4  C   UNL     1      -7.238   5.080 131.081  0.00  0.00    +0.000 A 
ATOM      5  C   UNL     1      -8.398   5.741 130.679  0.00  0.00    +0.000 A 
ATOM      6  C   UNL     1      -9.593   5.033 130.531  0.00  0.00    +0.000 A 
ATOM      7  C   UNL     1      -9.624   3.682 130.860  0.00  0.00    +0.000 A 
ENDROOT
BRANCH   6   8
ATOM      8  C   UNL     1     -10.855   5.662 130.006  0.00  0.00    +0.000 C 
ATOM      9  O   UNL     1     -10.535   6.279 128.755  0.00  0.00    +0.000 OA
ATOM     10  C   UNL     1     -11.676   6.872 128.132  0.00  0.00    +0.000 C 
ATOM     11  C   UNL     1     -12.284   7.952 129.036  0.00  0.00    +0.000 C 
ATOM     12  C   UNL     1     -12.646   7.350 130.408  0.00  0.00    +0.000 C 
ATOM     13  C   UNL     1     -11.445   6.636 131.033  0.00  0.00    +0.000 C 
BRANCH  11  14
ATOM     14  O   UNL     1     -13.456   8.502 128.425  0.00  0.00    +0.000 OA
ATOM     15  H   UNL     1     -14.038   7.771 128.154  0.00  0.00    +0.000 HD
ENDBRANCH  11  14
BRANCH  12  16
ATOM     16  O   UNL     1     -13.132   8.365 131.294  0.00  0.00    +0.000 OA
ATOM     17  H   UNL     1     -12.380   8.933 131.537  0.00  0.00    +0.000 HD
ENDBRANCH  12  16
BRANCH  13  18
ATOM     18  O   UNL     1     -11.838   5.953 132.234  0.00  0.00    +0.000 OA
ATOM     19  H   UNL     1     -11.055   5.550 132.646  0.00  0.00    +0.000 HD
ENDBRANCH  13  18
BRANCH  10  20
ATOM     20  C   UNL     1     -11.336   7.398 126.724  0.00  0.00    +0.000 C 
BRANCH  20  21
ATOM     21  O   UNL     1     -12.320   7.083 125.746  0.00  0.00    +0.000 OA
ATOM     22  H   UNL     1     -12.747   7.925 125.504  0.00  0.00    +0.000 HD
ENDBRANCH  20  21
ENDBRANCH  10  20
ENDBRANCH   6   8
BRANCH   1  23
ATOM     23  C   UNL     1      -8.584   1.486 131.332  0.00  0.00    +0.000 C 
BRANCH  23  27
ATOM     24  C   UNL     1      -7.659  -0.759 127.739  0.00  0.00    +0.000 A 
ATOM     25  C   UNL     1      -8.010   0.594 127.674  0.00  0.00    +0.000 A 
ATOM     26  C   UNL     1      -8.255   1.320 128.845  0.00  0.00    +0.000 A 
ATOM     27  C   UNL     1      -8.219   0.688 130.089  0.00  0.00    +0.000 A 
ATOM     28  C   UNL     1      -7.861  -0.673 130.130  0.00  0.00    +0.000 A 
ATOM     29  C   UNL     1      -7.552  -1.376 128.972  0.00  0.00    +0.000 A 
BRANCH  24  30
ATOM     30  O   UNL     1      -7.368  -1.372 126.552  0.00  0.00    +0.000 OA
BRANCH  30  32
ATOM     31  C   UNL     1      -9.303  -2.609 125.935  0.00  0.00    +0.000 C 
ATOM     32  C   UNL     1      -8.445  -1.404 125.612  0.00  0.00    +0.000 C 
ENDBRANCH  30  32
ENDBRANCH  24  30
ENDBRANCH  23  27
ENDBRANCH   1  23
TORSDOF 10
ENDMDL
MODEL 9
REMARK VINA RESULT:      -7.3      6.541      8.644
REMARK  Name = Dapagliflozin
REMARK  11 active torsions:
REMARK  status: ('A' for Active; 'I' for Inactive)
REMARK    1  A    between atoms: C_1  and  C_2
REMARK    2  A    between atoms: C_2  and  O_3
REMARK    3  A    between atoms: O_3  and  C_4
REMARK    4  A    between atoms: C_7  and  C_8
REMARK    5  A    between atoms: C_8  and  C_9
REMARK    6  A    between atoms: C_14  and  C_16
REMARK    7  A    between atoms: C_18  and  C_19
REMARK    8  A    between atoms: C_19  and  O_20
REMARK    9  A    between atoms: C_21  and  O_22
REMARK   10  A    between atoms: C_23  and  O_24
REMARK   11  A    between atoms: C_25  and  O_26
REMARK                            x       y       z     vdW  Elec       q    Type
REMARK                         _______ _______ _______ _____ _____    ______ ____
ROOT
ATOM      1  C   UNL     1      -7.823  -2.414 129.813  0.00  0.00    +0.000 A 
ATOM      2  C   UNL     1      -6.759  -2.874 130.596  0.00  0.00    +0.000 A 
ATOM      3 CL   UNL     1      -6.047  -4.427 130.362  0.00  0.00    +0.000 Cl
ATOM      4  C   UNL     1      -6.191  -2.044 131.568  0.00  0.00    +0.000 A 
ATOM      5  C   UNL     1      -6.595  -0.714 131.676  0.00  0.00    +0.000 A 
ATOM      6  C   UNL     1      -7.616  -0.223 130.859  0.00  0.00    +0.000 A 
ATOM      7  C   UNL     1      -8.267  -1.095 129.993  0.00  0.00    +0.000 A 
ENDROOT
BRANCH   6   8
ATOM      8  C   UNL     1      -8.032   1.223 130.854  0.00  0.00    +0.000 C 
ATOM      9  O   UNL     1      -6.842   2.009 130.740  0.00  0.00    +0.000 OA
ATOM     10  C   UNL     1      -7.118   3.409 130.675  0.00  0.00    +0.000 C 
ATOM     11  C   UNL     1      -7.858   3.873 131.936  0.00  0.00    +0.000 C 
ATOM     12  C   UNL     1      -9.152   3.056 132.119  0.00  0.00    +0.000 C 
ATOM     13  C   UNL     1      -8.865   1.553 132.099  0.00  0.00    +0.000 C 
BRANCH  11  14
ATOM     14  O   UNL     1      -8.175   5.266 131.835  0.00  0.00    +0.000 OA
ATOM     15  H   UNL     1      -7.550   5.768 132.386  0.00  0.00    +0.000 HD
ENDBRANCH  11  14
BRANCH  12  16
ATOM     16  O   UNL     1      -9.809   3.416 133.340  0.00  0.00    +0.000 OA
ATOM     17  H   UNL     1     -10.122   2.597 133.762  0.00  0.00    +0.000 HD
ENDBRANCH  12  16
BRANCH  13  18
ATOM     18  O   UNL     1     -10.094   0.808 132.116  0.00  0.00    +0.000 OA
ATOM     19  H   UNL     1     -10.279   0.515 133.025  0.00  0.00    +0.000 HD
ENDBRANCH  13  18
BRANCH  10  20
ATOM     20  C   UNL     1      -5.836   4.221 130.406  0.00  0.00    +0.000 C 
BRANCH  20  21
ATOM     21  O   UNL     1      -6.071   5.443 129.716  0.00  0.00    +0.000 OA
ATOM     22  H   UNL     1      -5.323   6.030 129.930  0.00  0.00    +0.000 HD
ENDBRANCH  20  21
ENDBRANCH  10  20
ENDBRANCH   6   8
BRANCH   1  23
ATOM     23  C   UNL     1      -8.486  -3.197 128.705  0.00  0.00    +0.000 C 
BRANCH  23  27
ATOM     24  C   UNL     1      -6.633  -2.908 124.796  0.00  0.00    +0.000 A 
ATOM     25  C   UNL     1      -7.859  -3.561 124.966  0.00  0.00    +0.000 A 
ATOM     26  C   UNL     1      -8.472  -3.601 126.224  0.00  0.00    +0.000 A 
ATOM     27  C   UNL     1      -7.836  -3.051 127.338  0.00  0.00    +0.000 A 
ATOM     28  C   UNL     1      -6.604  -2.397 127.142  0.00  0.00    +0.000 A 
ATOM     29  C   UNL     1      -6.030  -2.298 125.880  0.00  0.00    +0.000 A 
BRANCH  24  30
ATOM     30  O   UNL     1      -6.141  -2.856 123.521  0.00  0.00    +0.000 OA
BRANCH  30  32
ATOM     31  C   UNL     1      -4.505  -4.580 123.595  0.00  0.00    +0.000 C 
ATOM     32  C   UNL     1      -4.736  -3.096 123.408  0.00  0.00    +0.000 C 
ENDBRANCH  30  32
ENDBRANCH  24  30
ENDBRANCH  23  27
ENDBRANCH   1  23
TORSDOF 10
ENDMDL
