MODEL 1
REMARK VINA RESULT:      -8.3      0.000      0.000
REMARK  Name = Dapiprazole
REMARK  5 active torsions:
REMARK  status: ('A' for Active; 'I' for Inactive)
REMARK    1  A    between atoms: C_1  and  C_2
REMARK    2  A    between atoms: C_7  and  N_8
REMARK    3  A    between atoms: N_11  and  C_12
REMARK    4  A    between atoms: C_12  and  C_13
REMARK    5  A    between atoms: C_13  and  C_14
REMARK                            x       y       z     vdW  Elec       q    Type
REMARK                         _______ _______ _______ _____ _____    ______ ____
ROOT
ATOM      1  N   UNL     1      -7.907  -0.793 126.072  0.00  0.00    +0.000 N 
ATOM      2  C   UNL     1      -6.694  -0.464 125.311  0.00  0.00    +0.000 C 
ATOM      3  C   UNL     1      -7.062  -0.405 123.792  0.00  0.00    +0.000 C 
ATOM      4  N   UNL     1      -8.237   0.461 123.456  0.00  0.00    +0.000 NA
ATOM      5  C   UNL     1      -9.371   0.012 124.308  0.00  0.00    +0.000 C 
ATOM      6  C   UNL     1      -9.051   0.078 125.815  0.00  0.00    +0.000 C 
ENDROOT
BRANCH   1  13
ATOM      7  C   UNL     1      -8.842  -3.537 125.621  0.00  0.00    +0.000 C 
ATOM      8  C   UNL     1      -8.480  -2.978 126.976  0.00  0.00    +0.000 A 
ATOM      9  C   UNL     1      -8.622  -3.824 128.086  0.00  0.00    +0.000 A 
ATOM     10  C   UNL     1      -8.273  -3.388 129.359  0.00  0.00    +0.000 A 
ATOM     11  C   UNL     1      -7.766  -2.104 129.531  0.00  0.00    +0.000 A 
ATOM     12  C   UNL     1      -7.605  -1.256 128.429  0.00  0.00    +0.000 A 
ATOM     13  C   UNL     1      -7.977  -1.661 127.139  0.00  0.00    +0.000 A 
ENDBRANCH   1  13
BRANCH   4  14
ATOM     14  C   UNL     1      -7.907   1.887 123.671  0.00  0.00    +0.000 C 
BRANCH  14  15
ATOM     15  C   UNL     1      -8.196   2.763 122.442  0.00  0.00    +0.000 C 
BRANCH  15  16
ATOM     16  C   UNL     1      -7.010   3.555 122.025  0.00  0.00    +0.000 A 
ATOM     17  N   UNL     1      -5.911   3.802 122.713  0.00  0.00    +0.000 NA
ATOM     18  N   UNL     1      -5.048   4.519 121.905  0.00  0.00    +0.000 NA
ATOM     19  C   UNL     1      -5.641   4.705 120.742  0.00  0.00    +0.000 A 
ATOM     20  C   UNL     1      -5.121   5.365 119.511  0.00  0.00    +0.000 C 
ATOM     21  C   UNL     1      -6.250   5.656 118.509  0.00  0.00    +0.000 C 
ATOM     22  C   UNL     1      -7.177   4.448 118.375  0.00  0.00    +0.000 C 
ATOM     23  C   UNL     1      -7.841   4.168 119.715  0.00  0.00    +0.000 C 
ATOM     24  N   UNL     1      -6.875   4.122 120.792  0.00  0.00    +0.000 N 
ENDBRANCH  15  16
ENDBRANCH  14  15
ENDBRANCH   4  14
TORSDOF 4
ENDMDL
MODEL 2
REMARK VINA RESULT:      -8.0      1.362      8.903
REMARK  Name = Dapiprazole
REMARK  5 active torsions:
REMARK  status: ('A' for Active; 'I' for Inactive)
REMARK    1  A    between atoms: C_1  and  C_2
REMARK    2  A    between atoms: C_7  and  N_8
REMARK    3  A    between atoms: N_11  and  C_12
REMARK    4  A    between atoms: C_12  and  C_13
REMARK    5  A    between atoms: C_13  and  C_14
REMARK                            x       y       z     vdW  Elec       q    Type
REMARK                         _______ _______ _______ _____ _____    ______ ____
ROOT
ATOM      1  N   UNL     1      -7.079   3.114 122.757  0.00  0.00    +0.000 N 
ATOM      2  C   UNL     1      -7.342   3.699 124.079  0.00  0.00    +0.000 C 
ATOM      3  C   UNL     1      -8.673   3.093 124.634  0.00  0.00    +0.000 C 
ATOM      4  N   UNL     1      -8.748   1.598 124.613  0.00  0.00    +0.000 NA
ATOM      5  C   UNL     1      -8.453   1.163 123.221  0.00  0.00    +0.000 C 
ATOM      6  C   UNL     1      -7.079   1.654 122.720  0.00  0.00    +0.000 C 
ENDROOT
BRANCH   1  13
ATOM      7  C   UNL     1      -8.897   3.608 120.509  0.00  0.00    +0.000 C 
ATOM      8  C   UNL     1      -7.440   4.001 120.522  0.00  0.00    +0.000 A 
ATOM      9  C   UNL     1      -6.926   4.623 119.374  0.00  0.00    +0.000 A 
ATOM     10  C   UNL     1      -5.602   5.045 119.328  0.00  0.00    +0.000 A 
ATOM     11  C   UNL     1      -4.784   4.860 120.437  0.00  0.00    +0.000 A 
ATOM     12  C   UNL     1      -5.289   4.255 121.594  0.00  0.00    +0.000 A 
ATOM     13  C   UNL     1      -6.612   3.793 121.655  0.00  0.00    +0.000 A 
ENDBRANCH   1  13
BRANCH   4  14
ATOM     14  C   UNL     1      -7.802   1.018 125.592  0.00  0.00    +0.000 C 
BRANCH  14  15
ATOM     15  C   UNL     1      -7.271  -0.361 125.173  0.00  0.00    +0.000 C 
BRANCH  15  16
ATOM     16  C   UNL     1      -8.176  -1.463 125.590  0.00  0.00    +0.000 A 
ATOM     17  N   UNL     1      -9.151  -2.024 124.900  0.00  0.00    +0.000 NA
ATOM     18  N   UNL     1      -9.677  -3.054 125.656  0.00  0.00    +0.000 NA
ATOM     19  C   UNL     1      -9.020  -3.097 126.799  0.00  0.00    +0.000 A 
ATOM     20  C   UNL     1      -9.158  -4.054 127.933  0.00  0.00    +0.000 C 
ATOM     21  C   UNL     1      -8.437  -3.543 129.190  0.00  0.00    +0.000 C 
ATOM     22  C   UNL     1      -7.053  -2.999 128.836  0.00  0.00    +0.000 C 
ATOM     23  C   UNL     1      -7.202  -1.808 127.900  0.00  0.00    +0.000 C 
ATOM     24  N   UNL     1      -8.082  -2.106 126.790  0.00  0.00    +0.000 N 
ENDBRANCH  15  16
ENDBRANCH  14  15
ENDBRANCH   4  14
TORSDOF 4
ENDMDL
MODEL 3
REMARK VINA RESULT:      -8.0      1.996      8.130
REMARK  Name = Dapiprazole
REMARK  5 active torsions:
REMARK  status: ('A' for Active; 'I' for Inactive)
REMARK    1  A    between atoms: C_1  and  C_2
REMARK    2  A    between atoms: C_7  and  N_8
REMARK    3  A    between atoms: N_11  and  C_12
REMARK    4  A    between atoms: C_12  and  C_13
REMARK    5  A    between atoms: C_13  and  C_14
REMARK                            x       y       z     vdW  Elec       q    Type
REMARK                         _______ _______ _______ _____ _____    ______ ____
ROOT
ATOM      1  N   UNL     1      -7.156   3.134 122.745  0.00  0.00    +0.000 N 
ATOM      2  C   UNL     1      -6.367   3.922 123.702  0.00  0.00    +0.000 C 
ATOM      3  C   UNL     1      -7.035   3.804 125.112  0.00  0.00    +0.000 C 
ATOM      4  N   UNL     1      -7.313   2.405 125.568  0.00  0.00    +0.000 NA
ATOM      5  C   UNL     1      -8.105   1.742 124.498  0.00  0.00    +0.000 C 
ATOM      6  C   UNL     1      -7.385   1.745 123.133  0.00  0.00    +0.000 C 
ENDROOT
BRANCH   1  13
ATOM      7  C   UNL     1      -4.990   3.763 120.870  0.00  0.00    +0.000 C 
ATOM      8  C   UNL     1      -6.458   3.883 120.539  0.00  0.00    +0.000 A 
ATOM      9  C   UNL     1      -6.798   4.344 119.259  0.00  0.00    +0.000 A 
ATOM     10  C   UNL     1      -8.130   4.445 118.872  0.00  0.00    +0.000 A 
ATOM     11  C   UNL     1      -9.133   4.072 119.760  0.00  0.00    +0.000 A 
ATOM     12  C   UNL     1      -8.806   3.595 121.035  0.00  0.00    +0.000 A 
ATOM     13  C   UNL     1      -7.472   3.512 121.460  0.00  0.00    +0.000 A 
ENDBRANCH   1  13
BRANCH   4  14
ATOM     14  C   UNL     1      -6.047   1.692 125.851  0.00  0.00    +0.000 C 
BRANCH  14  15
ATOM     15  C   UNL     1      -6.251   0.401 126.658  0.00  0.00    +0.000 C 
BRANCH  15  16
ATOM     16  C   UNL     1      -6.188  -0.813 125.803  0.00  0.00    +0.000 A 
ATOM     17  N   UNL     1      -5.136  -1.329 125.196  0.00  0.00    +0.000 NA
ATOM     18  N   UNL     1      -5.529  -2.497 124.571  0.00  0.00    +0.000 NA
ATOM     19  C   UNL     1      -6.817  -2.667 124.800  0.00  0.00    +0.000 A 
ATOM     20  C   UNL     1      -7.707  -3.793 124.399  0.00  0.00    +0.000 C 
ATOM     21  C   UNL     1      -9.189  -3.430 124.582  0.00  0.00    +0.000 C 
ATOM     22  C   UNL     1      -9.414  -2.743 125.929  0.00  0.00    +0.000 C 
ATOM     23  C   UNL     1      -8.634  -1.436 125.966  0.00  0.00    +0.000 C 
ATOM     24  N   UNL     1      -7.258  -1.623 125.559  0.00  0.00    +0.000 N 
ENDBRANCH  15  16
ENDBRANCH  14  15
ENDBRANCH   4  14
TORSDOF 4
ENDMDL
MODEL 4
REMARK VINA RESULT:      -8.0      1.992      8.037
REMARK  Name = Dapiprazole
REMARK  5 active torsions:
REMARK  status: ('A' for Active; 'I' for Inactive)
REMARK    1  A    between atoms: C_1  and  C_2
REMARK    2  A    between atoms: C_7  and  N_8
REMARK    3  A    between atoms: N_11  and  C_12
REMARK    4  A    between atoms: C_12  and  C_13
REMARK    5  A    between atoms: C_13  and  C_14
REMARK                            x       y       z     vdW  Elec       q    Type
REMARK                         _______ _______ _______ _____ _____    ______ ____
ROOT
ATOM      1  N   UNL     1      -7.012   3.237 123.094  0.00  0.00    +0.000 N 
ATOM      2  C   UNL     1      -7.275   3.938 124.358  0.00  0.00    +0.000 C 
ATOM      3  C   UNL     1      -8.596   3.371 124.974  0.00  0.00    +0.000 C 
ATOM      4  N   UNL     1      -8.653   1.879 125.090  0.00  0.00    +0.000 NA
ATOM      5  C   UNL     1      -8.360   1.322 123.743  0.00  0.00    +0.000 C 
ATOM      6  C   UNL     1      -6.994   1.780 123.190  0.00  0.00    +0.000 C 
ENDROOT
BRANCH   1  13
ATOM      7  C   UNL     1      -8.855   3.530 120.831  0.00  0.00    +0.000 C 
ATOM      8  C   UNL     1      -7.399   3.924 120.793  0.00  0.00    +0.000 A 
ATOM      9  C   UNL     1      -6.898   4.444 119.589  0.00  0.00    +0.000 A 
ATOM     10  C   UNL     1      -5.576   4.861 119.493  0.00  0.00    +0.000 A 
ATOM     11  C   UNL     1      -4.745   4.775 120.604  0.00  0.00    +0.000 A 
ATOM     12  C   UNL     1      -5.237   4.274 121.815  0.00  0.00    +0.000 A 
ATOM     13  C   UNL     1      -6.558   3.818 121.931  0.00  0.00    +0.000 A 
ENDBRANCH   1  13
BRANCH   4  14
ATOM     14  C   UNL     1      -7.696   1.402 126.113  0.00  0.00    +0.000 C 
BRANCH  14  15
ATOM     15  C   UNL     1      -8.239   0.230 126.945  0.00  0.00    +0.000 C 
BRANCH  15  16
ATOM     16  C   UNL     1      -8.480  -0.981 126.119  0.00  0.00    +0.000 A 
ATOM     17  N   UNL     1      -9.635  -1.541 125.810  0.00  0.00    +0.000 NA
ATOM     18  N   UNL     1      -9.386  -2.605 124.964  0.00  0.00    +0.000 NA
ATOM     19  C   UNL     1      -8.082  -2.682 124.781  0.00  0.00    +0.000 A 
ATOM     20  C   UNL     1      -7.302  -3.612 123.916  0.00  0.00    +0.000 C 
ATOM     21  C   UNL     1      -5.804  -3.573 124.255  0.00  0.00    +0.000 C 
ATOM     22  C   UNL     1      -5.326  -2.130 124.421  0.00  0.00    +0.000 C 
ATOM     23  C   UNL     1      -6.058  -1.486 125.590  0.00  0.00    +0.000 C 
ATOM     24  N   UNL     1      -7.489  -1.685 125.501  0.00  0.00    +0.000 N 
ENDBRANCH  15  16
ENDBRANCH  14  15
ENDBRANCH   4  14
TORSDOF 4
ENDMDL
MODEL 5
REMARK VINA RESULT:      -7.7      9.435     11.163
REMARK  Name = Dapiprazole
REMARK  5 active torsions:
REMARK  status: ('A' for Active; 'I' for Inactive)
REMARK    1  A    between atoms: C_1  and  C_2
REMARK    2  A    between atoms: C_7  and  N_8
REMARK    3  A    between atoms: N_11  and  C_12
REMARK    4  A    between atoms: C_12  and  C_13
REMARK    5  A    between atoms: C_13  and  C_14
REMARK                            x       y       z     vdW  Elec       q    Type
REMARK                         _______ _______ _______ _____ _____    ______ ____
ROOT
ATOM      1  N   UNL     1      -4.405   6.611 132.150  0.00  0.00    +0.000 N 
ATOM      2  C   UNL     1      -5.204   6.965 130.969  0.00  0.00    +0.000 C 
ATOM      3  C   UNL     1      -6.109   5.743 130.598  0.00  0.00    +0.000 C 
ATOM      4  N   UNL     1      -6.919   5.187 131.729  0.00  0.00    +0.000 NA
ATOM      5  C   UNL     1      -5.976   4.891 132.841  0.00  0.00    +0.000 C 
ATOM      6  C   UNL     1      -5.176   6.129 133.293  0.00  0.00    +0.000 C 
ENDROOT
BRANCH   1  13
ATOM      7  C   UNL     1      -2.380   4.552 131.638  0.00  0.00    +0.000 C 
ATOM      8  C   UNL     1      -2.070   5.932 132.165  0.00  0.00    +0.000 A 
ATOM      9  C   UNL     1      -0.728   6.233 132.444  0.00  0.00    +0.000 A 
ATOM     10  C   UNL     1      -0.364   7.496 132.897  0.00  0.00    +0.000 A 
ATOM     11  C   UNL     1      -1.339   8.474 133.062  0.00  0.00    +0.000 A 
ATOM     12  C   UNL     1      -2.679   8.190 132.772  0.00  0.00    +0.000 A 
ATOM     13  C   UNL     1      -3.076   6.916 132.342  0.00  0.00    +0.000 A 
ENDBRANCH   1  13
BRANCH   4  14
ATOM     14  C   UNL     1      -7.974   6.145 132.130  0.00  0.00    +0.000 C 
BRANCH  14  15
ATOM     15  C   UNL     1      -8.618   6.866 130.937  0.00  0.00    +0.000 C 
BRANCH  15  16
ATOM     16  C   UNL     1     -10.099   6.747 130.940  0.00  0.00    +0.000 A 
ATOM     17  N   UNL     1     -10.882   6.334 131.919  0.00  0.00    +0.000 NA
ATOM     18  N   UNL     1     -12.193   6.454 131.502  0.00  0.00    +0.000 NA
ATOM     19  C   UNL     1     -12.187   6.930 130.272  0.00  0.00    +0.000 A 
ATOM     20  C   UNL     1     -13.334   7.295 129.394  0.00  0.00    +0.000 C 
ATOM     21  C   UNL     1     -12.888   7.490 127.937  0.00  0.00    +0.000 C 
ATOM     22  C   UNL     1     -11.604   8.319 127.872  0.00  0.00    +0.000 C 
ATOM     23  C   UNL     1     -10.483   7.570 128.579  0.00  0.00    +0.000 C 
ATOM     24  N   UNL     1     -10.890   7.112 129.890  0.00  0.00    +0.000 N 
ENDBRANCH  15  16
ENDBRANCH  14  15
ENDBRANCH   4  14
TORSDOF 4
ENDMDL
MODEL 6
REMARK VINA RESULT:      -7.6      8.026      9.927
REMARK  Name = Dapiprazole
REMARK  5 active torsions:
REMARK  status: ('A' for Active; 'I' for Inactive)
REMARK    1  A    between atoms: C_1  and  C_2
REMARK    2  A    between atoms: C_7  and  N_8
REMARK    3  A    between atoms: N_11  and  C_12
REMARK    4  A    between atoms: C_12  and  C_13
REMARK    5  A    between atoms: C_13  and  C_14
REMARK                            x       y       z     vdW  Elec       q    Type
REMARK                         _______ _______ _______ _____ _____    ______ ____
ROOT
ATOM      1  N   UNL     1      -4.635   4.473 131.011  0.00  0.00    +0.000 N 
ATOM      2  C   UNL     1      -4.937   3.443 130.007  0.00  0.00    +0.000 C 
ATOM      3  C   UNL     1      -6.035   2.490 130.588  0.00  0.00    +0.000 C 
ATOM      4  N   UNL     1      -7.250   3.178 131.129  0.00  0.00    +0.000 NA
ATOM      5  C   UNL     1      -6.781   4.187 132.116  0.00  0.00    +0.000 C 
ATOM      6  C   UNL     1      -5.796   5.207 131.508  0.00  0.00    +0.000 C 
ENDROOT
BRANCH   1  13
ATOM      7  C   UNL     1      -3.027   3.047 133.007  0.00  0.00    +0.000 C 
ATOM      8  C   UNL     1      -2.595   4.323 132.327  0.00  0.00    +0.000 A 
ATOM      9  C   UNL     1      -1.354   4.866 132.693  0.00  0.00    +0.000 A 
ATOM     10  C   UNL     1      -0.877   6.020 132.082  0.00  0.00    +0.000 A 
ATOM     11  C   UNL     1      -1.631   6.634 131.088  0.00  0.00    +0.000 A 
ATOM     12  C   UNL     1      -2.864   6.093 130.703  0.00  0.00    +0.000 A 
ATOM     13  C   UNL     1      -3.382   4.947 131.324  0.00  0.00    +0.000 A 
ENDBRANCH   1  13
BRANCH   4  14
ATOM     14  C   UNL     1      -8.031   3.790 130.032  0.00  0.00    +0.000 C 
BRANCH  14  15
ATOM     15  C   UNL     1      -9.290   4.521 130.523  0.00  0.00    +0.000 C 
BRANCH  15  16
ATOM     16  C   UNL     1      -9.753   5.553 129.560  0.00  0.00    +0.000 A 
ATOM     17  N   UNL     1      -9.332   5.766 128.327  0.00  0.00    +0.000 NA
ATOM     18  N   UNL     1     -10.093   6.782 127.781  0.00  0.00    +0.000 NA
ATOM     19  C   UNL     1     -10.958   7.179 128.695  0.00  0.00    +0.000 A 
ATOM     20  C   UNL     1     -12.036   8.202 128.594  0.00  0.00    +0.000 C 
ATOM     21  C   UNL     1     -12.583   8.581 129.979  0.00  0.00    +0.000 C 
ATOM     22  C   UNL     1     -12.816   7.330 130.828  0.00  0.00    +0.000 C 
ATOM     23  C   UNL     1     -11.489   6.621 131.058  0.00  0.00    +0.000 C 
ATOM     24  N   UNL     1     -10.761   6.434 129.822  0.00  0.00    +0.000 N 
ENDBRANCH  15  16
ENDBRANCH  14  15
ENDBRANCH   4  14
TORSDOF 4
ENDMDL
MODEL 7
REMARK VINA RESULT:      -7.4      8.227     10.124
REMARK  Name = Dapiprazole
REMARK  5 active torsions:
REMARK  status: ('A' for Active; 'I' for Inactive)
REMARK    1  A    between atoms: C_1  and  C_2
REMARK    2  A    between atoms: C_7  and  N_8
REMARK    3  A    between atoms: N_11  and  C_12
REMARK    4  A    between atoms: C_12  and  C_13
REMARK    5  A    between atoms: C_13  and  C_14
REMARK                            x       y       z     vdW  Elec       q    Type
REMARK                         _______ _______ _______ _____ _____    ______ ____
ROOT
ATOM      1  N   UNL     1      -9.562   6.409 130.247  0.00  0.00    +0.000 N 
ATOM      2  C   UNL     1      -8.390   6.910 130.978  0.00  0.00    +0.000 C 
ATOM      3  C   UNL     1      -8.164   6.004 132.234  0.00  0.00    +0.000 C 
ATOM      4  N   UNL     1      -8.117   4.533 131.955  0.00  0.00    +0.000 NA
ATOM      5  C   UNL     1      -9.357   4.187 131.210  0.00  0.00    +0.000 C 
ATOM      6  C   UNL     1      -9.513   4.990 129.903  0.00  0.00    +0.000 C 
ENDROOT
BRANCH   1  13
ATOM      7  C   UNL     1     -12.071   6.845 131.703  0.00  0.00    +0.000 C 
ATOM      8  C   UNL     1     -11.795   7.372 130.316  0.00  0.00    +0.000 A 
ATOM      9  C   UNL     1     -12.815   8.097 129.682  0.00  0.00    +0.000 A 
ATOM     10  C   UNL     1     -12.618   8.642 128.418  0.00  0.00    +0.000 A 
ATOM     11  C   UNL     1     -11.391   8.479 127.783  0.00  0.00    +0.000 A 
ATOM     12  C   UNL     1     -10.360   7.770 128.412  0.00  0.00    +0.000 A 
ATOM     13  C   UNL     1     -10.544   7.185 129.673  0.00  0.00    +0.000 A 
ENDBRANCH   1  13
BRANCH   4  14
ATOM     14  C   UNL     1      -6.894   4.188 131.197  0.00  0.00    +0.000 C 
BRANCH  14  15
ATOM     15  C   UNL     1      -5.607   4.370 132.016  0.00  0.00    +0.000 C 
BRANCH  15  16
ATOM     16  C   UNL     1      -4.705   5.394 131.426  0.00  0.00    +0.000 A 
ATOM     17  N   UNL     1      -4.394   6.582 131.909  0.00  0.00    +0.000 NA
ATOM     18  N   UNL     1      -3.468   7.162 131.063  0.00  0.00    +0.000 NA
ATOM     19  C   UNL     1      -3.238   6.321 130.074  0.00  0.00    +0.000 A 
ATOM     20  C   UNL     1      -2.286   6.440 128.934  0.00  0.00    +0.000 C 
ATOM     21  C   UNL     1      -2.578   5.397 127.845  0.00  0.00    +0.000 C 
ATOM     22  C   UNL     1      -2.830   4.023 128.467  0.00  0.00    +0.000 C 
ATOM     23  C   UNL     1      -4.065   4.089 129.355  0.00  0.00    +0.000 C 
ATOM     24  N   UNL     1      -4.007   5.210 130.269  0.00  0.00    +0.000 N 
ENDBRANCH  15  16
ENDBRANCH  14  15
ENDBRANCH   4  14
TORSDOF 4
ENDMDL
MODEL 8
REMARK VINA RESULT:      -7.4      8.260     10.310
REMARK  Name = Dapiprazole
REMARK  5 active torsions:
REMARK  status: ('A' for Active; 'I' for Inactive)
REMARK    1  A    between atoms: C_1  and  C_2
REMARK    2  A    between atoms: C_7  and  N_8
REMARK    3  A    between atoms: N_11  and  C_12
REMARK    4  A    between atoms: C_12  and  C_13
REMARK    5  A    between atoms: C_13  and  C_14
REMARK                            x       y       z     vdW  Elec       q    Type
REMARK                         _______ _______ _______ _____ _____    ______ ____
ROOT
ATOM      1  N   UNL     1      -9.821   6.342 130.249  0.00  0.00    +0.000 N 
ATOM      2  C   UNL     1      -8.616   6.801 130.953  0.00  0.00    +0.000 C 
ATOM      3  C   UNL     1      -8.471   5.979 132.277  0.00  0.00    +0.000 C 
ATOM      4  N   UNL     1      -8.543   4.492 132.112  0.00  0.00    +0.000 NA
ATOM      5  C   UNL     1      -9.803   4.192 131.382  0.00  0.00    +0.000 C 
ATOM      6  C   UNL     1      -9.886   4.902 130.015  0.00  0.00    +0.000 C 
ENDROOT
BRANCH   1  13
ATOM      7  C   UNL     1     -12.272   7.129 131.655  0.00  0.00    +0.000 C 
ATOM      8  C   UNL     1     -11.958   7.503 130.227  0.00  0.00    +0.000 A 
ATOM      9  C   UNL     1     -12.913   8.258 129.529  0.00  0.00    +0.000 A 
ATOM     10  C   UNL     1     -12.675   8.668 128.222  0.00  0.00    +0.000 A 
ATOM     11  C   UNL     1     -11.472   8.339 127.607  0.00  0.00    +0.000 A 
ATOM     12  C   UNL     1     -10.505   7.601 128.298  0.00  0.00    +0.000 A 
ATOM     13  C   UNL     1     -10.732   7.149 129.606  0.00  0.00    +0.000 A 
ENDBRANCH   1  13
BRANCH   4  14
ATOM     14  C   UNL     1      -7.348   3.992 131.397  0.00  0.00    +0.000 C 
BRANCH  14  15
ATOM     15  C   UNL     1      -6.067   4.763 131.752  0.00  0.00    +0.000 C 
BRANCH  15  16
ATOM     16  C   UNL     1      -5.304   5.171 130.544  0.00  0.00    +0.000 A 
ATOM     17  N   UNL     1      -5.717   5.205 129.291  0.00  0.00    +0.000 NA
ATOM     18  N   UNL     1      -4.695   5.716 128.514  0.00  0.00    +0.000 NA
ATOM     19  C   UNL     1      -3.673   5.976 129.306  0.00  0.00    +0.000 A 
ATOM     20  C   UNL     1      -2.355   6.589 128.978  0.00  0.00    +0.000 C 
ATOM     21  C   UNL     1      -1.347   6.402 130.122  0.00  0.00    +0.000 C 
ATOM     22  C   UNL     1      -1.999   6.709 131.471  0.00  0.00    +0.000 C 
ATOM     23  C   UNL     1      -3.134   5.726 131.720  0.00  0.00    +0.000 C 
ATOM     24  N   UNL     1      -4.021   5.634 130.581  0.00  0.00    +0.000 N 
ENDBRANCH  15  16
ENDBRANCH  14  15
ENDBRANCH   4  14
TORSDOF 4
ENDMDL
MODEL 9
REMARK VINA RESULT:      -7.3      8.810     10.625
REMARK  Name = Dapiprazole
REMARK  5 active torsions:
REMARK  status: ('A' for Active; 'I' for Inactive)
REMARK    1  A    between atoms: C_1  and  C_2
REMARK    2  A    between atoms: C_7  and  N_8
REMARK    3  A    between atoms: N_11  and  C_12
REMARK    4  A    between atoms: C_12  and  C_13
REMARK    5  A    between atoms: C_13  and  C_14
REMARK                            x       y       z     vdW  Elec       q    Type
REMARK                         _______ _______ _______ _____ _____    ______ ____
ROOT
ATOM      1  N   UNL     1      -5.124   5.890 131.830  0.00  0.00    +0.000 N 
ATOM      2  C   UNL     1      -4.877   4.833 130.839  0.00  0.00    +0.000 C 
ATOM      3  C   UNL     1      -5.714   3.573 131.239  0.00  0.00    +0.000 C 
ATOM      4  N   UNL     1      -7.167   3.832 131.494  0.00  0.00    +0.000 NA
ATOM      5  C   UNL     1      -7.250   4.922 132.502  0.00  0.00    +0.000 C 
ATOM      6  C   UNL     1      -6.532   6.211 132.050  0.00  0.00    +0.000 C 
ENDROOT
BRANCH   1  13
ATOM      7  C   UNL     1      -4.027   8.036 130.157  0.00  0.00    +0.000 C 
ATOM      8  C   UNL     1      -3.574   7.746 131.567  0.00  0.00    +0.000 A 
ATOM      9  C   UNL     1      -2.549   8.545 132.097  0.00  0.00    +0.000 A 
ATOM     10  C   UNL     1      -2.106   8.358 133.401  0.00  0.00    +0.000 A 
ATOM     11  C   UNL     1      -2.695   7.378 134.193  0.00  0.00    +0.000 A 
ATOM     12  C   UNL     1      -3.730   6.586 133.682  0.00  0.00    +0.000 A 
ATOM     13  C   UNL     1      -4.174   6.733 132.360  0.00  0.00    +0.000 A 
ENDBRANCH   1  13
BRANCH   4  14
ATOM     14  C   UNL     1      -7.860   4.181 130.234  0.00  0.00    +0.000 C 
BRANCH  14  15
ATOM     15  C   UNL     1      -9.326   4.588 130.446  0.00  0.00    +0.000 C 
BRANCH  15  16
ATOM     16  C   UNL     1      -9.771   5.617 129.470  0.00  0.00    +0.000 A 
ATOM     17  N   UNL     1      -9.333   5.819 128.241  0.00  0.00    +0.000 NA
ATOM     18  N   UNL     1     -10.081   6.837 127.680  0.00  0.00    +0.000 NA
ATOM     19  C   UNL     1     -10.955   7.244 128.580  0.00  0.00    +0.000 A 
ATOM     20  C   UNL     1     -12.026   8.273 128.459  0.00  0.00    +0.000 C 
ATOM     21  C   UNL     1     -12.588   8.664 129.834  0.00  0.00    +0.000 C 
ATOM     22  C   UNL     1     -12.839   7.420 130.688  0.00  0.00    +0.000 C 
ATOM     23  C   UNL     1     -11.520   6.705 130.939  0.00  0.00    +0.000 C 
ATOM     24  N   UNL     1     -10.777   6.506 129.714  0.00  0.00    +0.000 N 
ENDBRANCH  15  16
ENDBRANCH  14  15
ENDBRANCH   4  14
TORSDOF 4
ENDMDL
