MODEL 1
REMARK VINA RESULT:      -6.5      0.000      0.000
REMARK  Name = Dapsone
REMARK  4 active torsions:
REMARK  status: ('A' for Active; 'I' for Inactive)
REMARK    1  A    between atoms: N_1  and  C_2
REMARK    2  A    between atoms: C_5  and  S_8
REMARK    3  A    between atoms: S_8  and  C_11
REMARK    4  A    between atoms: C_14  and  N_15
REMARK                            x       y       z     vdW  Elec       q    Type
REMARK                         _______ _______ _______ _____ _____    ______ ____
ROOT
ATOM      1  S   UNL     1     -10.242   4.715 130.118  0.00  0.00    +0.000 S 
ATOM      2  O   UNL     1      -9.197   4.561 129.117  0.00  0.00    +0.000 OA
ATOM      3  O   UNL     1     -11.311   3.745 130.228  0.00  0.00    +0.000 OA
ENDROOT
BRANCH   1   7
ATOM      4  C   UNL     1      -8.154   4.828 134.203  0.00  0.00    +0.000 A 
ATOM      5  C   UNL     1      -8.150   5.943 133.360  0.00  0.00    +0.000 A 
ATOM      6  C   UNL     1      -8.785   5.905 132.112  0.00  0.00    +0.000 A 
ATOM      7  C   UNL     1      -9.434   4.736 131.706  0.00  0.00    +0.000 A 
ATOM      8  C   UNL     1      -9.442   3.617 132.539  0.00  0.00    +0.000 A 
ATOM      9  C   UNL     1      -8.827   3.678 133.790  0.00  0.00    +0.000 A 
BRANCH   4  10
ATOM     10  N   UNL     1      -7.607   4.894 135.473  0.00  0.00    +0.000 N 
ATOM     11  H   UNL     1      -7.403   5.793 135.888  0.00  0.00    +0.000 HD
ATOM     12  H   UNL     1      -7.143   4.083 135.863  0.00  0.00    +0.000 HD
ENDBRANCH   4  10
ENDBRANCH   1   7
BRANCH   1  13
ATOM     13  C   UNL     1     -10.997   6.301 129.799  0.00  0.00    +0.000 A 
ATOM     14  C   UNL     1     -12.109   6.699 130.548  0.00  0.00    +0.000 A 
ATOM     15  C   UNL     1     -12.741   7.911 130.255  0.00  0.00    +0.000 A 
ATOM     16  C   UNL     1     -12.231   8.769 129.274  0.00  0.00    +0.000 A 
ATOM     17  C   UNL     1     -11.115   8.354 128.538  0.00  0.00    +0.000 A 
ATOM     18  C   UNL     1     -10.492   7.129 128.797  0.00  0.00    +0.000 A 
BRANCH  16  19
ATOM     19  N   UNL     1     -12.942   9.904 128.896  0.00  0.00    +0.000 N 
ATOM     20  H   UNL     1     -12.905  10.709 129.513  0.00  0.00    +0.000 HD
ATOM     21  H   UNL     1     -12.974  10.127 127.907  0.00  0.00    +0.000 HD
ENDBRANCH  16  19
ENDBRANCH   1  13
TORSDOF 4
ENDMDL
MODEL 2
REMARK VINA RESULT:      -6.5      0.173      5.816
REMARK  Name = Dapsone
REMARK  4 active torsions:
REMARK  status: ('A' for Active; 'I' for Inactive)
REMARK    1  A    between atoms: N_1  and  C_2
REMARK    2  A    between atoms: C_5  and  S_8
REMARK    3  A    between atoms: S_8  and  C_11
REMARK    4  A    between atoms: C_14  and  N_15
REMARK                            x       y       z     vdW  Elec       q    Type
REMARK                         _______ _______ _______ _____ _____    ______ ____
ROOT
ATOM      1  S   UNL     1     -10.244   4.851 130.060  0.00  0.00    +0.000 S 
ATOM      2  O   UNL     1     -11.287   3.838 130.128  0.00  0.00    +0.000 OA
ATOM      3  O   UNL     1      -9.184   4.759 129.078  0.00  0.00    +0.000 OA
ENDROOT
BRANCH   1   7
ATOM      4  C   UNL     1     -12.311   8.864 129.226  0.00  0.00    +0.000 A 
ATOM      5  C   UNL     1     -11.249   8.420 128.431  0.00  0.00    +0.000 A 
ATOM      6  C   UNL     1     -10.618   7.196 128.690  0.00  0.00    +0.000 A 
ATOM      7  C   UNL     1     -11.057   6.408 129.757  0.00  0.00    +0.000 A 
ATOM      8  C   UNL     1     -12.114   6.842 130.556  0.00  0.00    +0.000 A 
ATOM      9  C   UNL     1     -12.750   8.051 130.271  0.00  0.00    +0.000 A 
BRANCH   4  10
ATOM     10  N   UNL     1     -12.995  10.027 128.916  0.00  0.00    +0.000 N 
ATOM     11  H   UNL     1     -12.520  10.918 128.962  0.00  0.00    +0.000 HD
ATOM     12  H   UNL     1     -14.006  10.034 128.935  0.00  0.00    +0.000 HD
ENDBRANCH   4  10
ENDBRANCH   1   7
BRANCH   1  13
ATOM     13  C   UNL     1      -9.474   4.872 131.670  0.00  0.00    +0.000 A 
ATOM     14  C   UNL     1      -9.568   3.746 132.495  0.00  0.00    +0.000 A 
ATOM     15  C   UNL     1      -9.023   3.786 133.782  0.00  0.00    +0.000 A 
ATOM     16  C   UNL     1      -8.317   4.908 134.229  0.00  0.00    +0.000 A 
ATOM     17  C   UNL     1      -8.231   6.023 133.388  0.00  0.00    +0.000 A 
ATOM     18  C   UNL     1      -8.800   6.011 132.110  0.00  0.00    +0.000 A 
BRANCH  16  19
ATOM     19  N   UNL     1      -7.898   4.991 135.554  0.00  0.00    +0.000 N 
ATOM     20  H   UNL     1      -8.549   5.379 136.228  0.00  0.00    +0.000 HD
ATOM     21  H   UNL     1      -7.315   4.241 135.908  0.00  0.00    +0.000 HD
ENDBRANCH  16  19
ENDBRANCH   1  13
TORSDOF 4
ENDMDL
MODEL 3
REMARK VINA RESULT:      -6.3      9.335     11.369
REMARK  Name = Dapsone
REMARK  4 active torsions:
REMARK  status: ('A' for Active; 'I' for Inactive)
REMARK    1  A    between atoms: N_1  and  C_2
REMARK    2  A    between atoms: C_5  and  S_8
REMARK    3  A    between atoms: S_8  and  C_11
REMARK    4  A    between atoms: C_14  and  N_15
REMARK                            x       y       z     vdW  Elec       q    Type
REMARK                         _______ _______ _______ _____ _____    ______ ____
ROOT
ATOM      1  S   UNL     1      -7.497   2.555 124.190  0.00  0.00    +0.000 S 
ATOM      2  O   UNL     1      -6.194   2.767 124.803  0.00  0.00    +0.000 OA
ATOM      3  O   UNL     1      -8.687   3.158 124.752  0.00  0.00    +0.000 OA
ENDROOT
BRANCH   1   7
ATOM      4  C   UNL     1      -7.266   4.128 119.884  0.00  0.00    +0.000 A 
ATOM      5  C   UNL     1      -8.495   3.812 120.472  0.00  0.00    +0.000 A 
ATOM      6  C   UNL     1      -8.563   3.330 121.786  0.00  0.00    +0.000 A 
ATOM      7  C   UNL     1      -7.384   3.163 122.519  0.00  0.00    +0.000 A 
ATOM      8  C   UNL     1      -6.154   3.473 121.940  0.00  0.00    +0.000 A 
ATOM      9  C   UNL     1      -6.103   3.977 120.640  0.00  0.00    +0.000 A 
BRANCH   4  10
ATOM     10  N   UNL     1      -7.205   4.692 118.621  0.00  0.00    +0.000 N 
ATOM     11  H   UNL     1      -8.013   4.657 118.014  0.00  0.00    +0.000 HD
ATOM     12  H   UNL     1      -6.305   4.867 118.193  0.00  0.00    +0.000 HD
ENDBRANCH   4  10
ENDBRANCH   1   7
BRANCH   1  13
ATOM     13  C   UNL     1      -7.752   0.789 124.178  0.00  0.00    +0.000 A 
ATOM     14  C   UNL     1      -7.049  -0.005 123.266  0.00  0.00    +0.000 A 
ATOM     15  C   UNL     1      -7.298  -1.379 123.211  0.00  0.00    +0.000 A 
ATOM     16  C   UNL     1      -8.184  -1.986 124.108  0.00  0.00    +0.000 A 
ATOM     17  C   UNL     1      -8.876  -1.176 125.015  0.00  0.00    +0.000 A 
ATOM     18  C   UNL     1      -8.662   0.207 125.060  0.00  0.00    +0.000 A 
BRANCH  16  19
ATOM     19  N   UNL     1      -8.527  -3.326 123.957  0.00  0.00    +0.000 N 
ATOM     20  H   UNL     1      -9.235  -3.554 123.267  0.00  0.00    +0.000 HD
ATOM     21  H   UNL     1      -7.786  -4.011 124.049  0.00  0.00    +0.000 HD
ENDBRANCH  16  19
ENDBRANCH   1  13
TORSDOF 4
ENDMDL
MODEL 4
REMARK VINA RESULT:      -6.3      9.491     10.274
REMARK  Name = Dapsone
REMARK  4 active torsions:
REMARK  status: ('A' for Active; 'I' for Inactive)
REMARK    1  A    between atoms: N_1  and  C_2
REMARK    2  A    between atoms: C_5  and  S_8
REMARK    3  A    between atoms: S_8  and  C_11
REMARK    4  A    between atoms: C_14  and  N_15
REMARK                            x       y       z     vdW  Elec       q    Type
REMARK                         _______ _______ _______ _____ _____    ______ ____
ROOT
ATOM      1  S   UNL     1      -7.395   2.179 124.422  0.00  0.00    +0.000 S 
ATOM      2  O   UNL     1      -8.790   2.083 124.825  0.00  0.00    +0.000 OA
ATOM      3  O   UNL     1      -6.438   2.907 125.228  0.00  0.00    +0.000 OA
ENDROOT
BRANCH   1   7
ATOM      4  C   UNL     1      -5.814  -2.117 124.088  0.00  0.00    +0.000 A 
ATOM      5  C   UNL     1      -6.544  -1.534 123.048  0.00  0.00    +0.000 A 
ATOM      6  C   UNL     1      -7.028  -0.224 123.153  0.00  0.00    +0.000 A 
ATOM      7  C   UNL     1      -6.775   0.511 124.315  0.00  0.00    +0.000 A 
ATOM      8  C   UNL     1      -6.049  -0.062 125.358  0.00  0.00    +0.000 A 
ATOM      9  C   UNL     1      -5.551  -1.359 125.229  0.00  0.00    +0.000 A 
BRANCH   4  10
ATOM     10  N   UNL     1      -5.256  -3.377 123.947  0.00  0.00    +0.000 N 
ATOM     11  H   UNL     1      -4.675  -3.584 123.146  0.00  0.00    +0.000 HD
ATOM     12  H   UNL     1      -5.649  -4.159 124.455  0.00  0.00    +0.000 HD
ENDBRANCH   4  10
ENDBRANCH   1   7
BRANCH   1  13
ATOM     13  C   UNL     1      -7.402   2.929 122.803  0.00  0.00    +0.000 A 
ATOM     14  C   UNL     1      -8.614   3.096 122.124  0.00  0.00    +0.000 A 
ATOM     15  C   UNL     1      -8.613   3.622 120.829  0.00  0.00    +0.000 A 
ATOM     16  C   UNL     1      -7.426   4.057 120.230  0.00  0.00    +0.000 A 
ATOM     17  C   UNL     1      -6.224   3.884 120.926  0.00  0.00    +0.000 A 
ATOM     18  C   UNL     1      -6.205   3.328 122.210  0.00  0.00    +0.000 A 
BRANCH  16  19
ATOM     19  N   UNL     1      -7.417   4.450 118.894  0.00  0.00    +0.000 N 
ATOM     20  H   UNL     1      -6.514   4.580 118.450  0.00  0.00    +0.000 HD
ATOM     21  H   UNL     1      -8.138   4.071 118.291  0.00  0.00    +0.000 HD
ENDBRANCH  16  19
ENDBRANCH   1  13
TORSDOF 4
ENDMDL
MODEL 5
REMARK VINA RESULT:      -6.2      9.283     11.279
REMARK  Name = Dapsone
REMARK  4 active torsions:
REMARK  status: ('A' for Active; 'I' for Inactive)
REMARK    1  A    between atoms: N_1  and  C_2
REMARK    2  A    between atoms: C_5  and  S_8
REMARK    3  A    between atoms: S_8  and  C_11
REMARK    4  A    between atoms: C_14  and  N_15
REMARK                            x       y       z     vdW  Elec       q    Type
REMARK                         _______ _______ _______ _____ _____    ______ ____
ROOT
ATOM      1  S   UNL     1      -7.390   2.556 124.188  0.00  0.00    +0.000 S 
ATOM      2  O   UNL     1      -6.026   2.700 124.676  0.00  0.00    +0.000 OA
ATOM      3  O   UNL     1      -8.491   3.210 124.862  0.00  0.00    +0.000 OA
ENDROOT
BRANCH   1   7
ATOM      4  C   UNL     1      -7.367   4.141 119.880  0.00  0.00    +0.000 A 
ATOM      5  C   UNL     1      -6.177   3.983 120.597  0.00  0.00    +0.000 A 
ATOM      6  C   UNL     1      -6.186   3.502 121.913  0.00  0.00    +0.000 A 
ATOM      7  C   UNL     1      -7.404   3.174 122.516  0.00  0.00    +0.000 A 
ATOM      8  C   UNL     1      -8.597   3.331 121.810  0.00  0.00    +0.000 A 
ATOM      9  C   UNL     1      -8.570   3.787 120.492  0.00  0.00    +0.000 A 
BRANCH   4  10
ATOM     10  N   UNL     1      -7.352   4.528 118.551  0.00  0.00    +0.000 N 
ATOM     11  H   UNL     1      -6.520   4.947 118.157  0.00  0.00    +0.000 HD
ATOM     12  H   UNL     1      -8.225   4.672 118.060  0.00  0.00    +0.000 HD
ENDBRANCH   4  10
ENDBRANCH   1   7
BRANCH   1  13
ATOM     13  C   UNL     1      -7.731   0.805 124.191  0.00  0.00    +0.000 A 
ATOM     14  C   UNL     1      -8.640   0.279 125.115  0.00  0.00    +0.000 A 
ATOM     15  C   UNL     1      -8.857  -1.101 125.162  0.00  0.00    +0.000 A 
ATOM     16  C   UNL     1      -8.237  -1.958 124.246  0.00  0.00    +0.000 A 
ATOM     17  C   UNL     1      -7.333  -1.413 123.327  0.00  0.00    +0.000 A 
ATOM     18  C   UNL     1      -7.079  -0.038 123.290  0.00  0.00    +0.000 A 
BRANCH  16  19
ATOM     19  N   UNL     1      -8.352  -3.338 124.388  0.00  0.00    +0.000 N 
ATOM     20  H   UNL     1      -7.495  -3.879 124.424  0.00  0.00    +0.000 HD
ATOM     21  H   UNL     1      -9.101  -3.686 124.976  0.00  0.00    +0.000 HD
ENDBRANCH  16  19
ENDBRANCH   1  13
TORSDOF 4
ENDMDL
MODEL 6
REMARK VINA RESULT:      -6.2      2.759      6.013
REMARK  Name = Dapsone
REMARK  4 active torsions:
REMARK  status: ('A' for Active; 'I' for Inactive)
REMARK    1  A    between atoms: N_1  and  C_2
REMARK    2  A    between atoms: C_5  and  S_8
REMARK    3  A    between atoms: S_8  and  C_11
REMARK    4  A    between atoms: C_14  and  N_15
REMARK                            x       y       z     vdW  Elec       q    Type
REMARK                         _______ _______ _______ _____ _____    ______ ____
ROOT
ATOM      1  S   UNL     1      -9.575   5.734 131.607  0.00  0.00    +0.000 S 
ATOM      2  O   UNL     1      -9.517   6.274 132.957  0.00  0.00    +0.000 OA
ATOM      3  O   UNL     1     -10.099   4.407 131.362  0.00  0.00    +0.000 OA
ENDROOT
BRANCH   1   7
ATOM      4  C   UNL     1     -12.232   8.593 129.191  0.00  0.00    +0.000 A 
ATOM      5  C   UNL     1     -12.719   7.945 130.330  0.00  0.00    +0.000 A 
ATOM      6  C   UNL     1     -11.907   7.070 131.064  0.00  0.00    +0.000 A 
ATOM      7  C   UNL     1     -10.591   6.844 130.652  0.00  0.00    +0.000 A 
ATOM      8  C   UNL     1     -10.096   7.484 129.515  0.00  0.00    +0.000 A 
ATOM      9  C   UNL     1     -10.908   8.372 128.809  0.00  0.00    +0.000 A 
BRANCH   4  10
ATOM     10  N   UNL     1     -13.002   9.527 128.519  0.00  0.00    +0.000 N 
ATOM     11  H   UNL     1     -12.843   9.697 127.535  0.00  0.00    +0.000 HD
ATOM     12  H   UNL     1     -13.500  10.236 129.042  0.00  0.00    +0.000 HD
ENDBRANCH   4  10
ENDBRANCH   1   7
BRANCH   1  13
ATOM     13  C   UNL     1      -7.900   5.764 130.993  0.00  0.00    +0.000 A 
ATOM     14  C   UNL     1      -7.468   4.766 130.112  0.00  0.00    +0.000 A 
ATOM     15  C   UNL     1      -6.138   4.751 129.684  0.00  0.00    +0.000 A 
ATOM     16  C   UNL     1      -5.250   5.764 130.062  0.00  0.00    +0.000 A 
ATOM     17  C   UNL     1      -5.700   6.754 130.941  0.00  0.00    +0.000 A 
ATOM     18  C   UNL     1      -7.020   6.764 131.405  0.00  0.00    +0.000 A 
BRANCH  16  19
ATOM     19  N   UNL     1      -3.898   5.666 129.744  0.00  0.00    +0.000 N 
ATOM     20  H   UNL     1      -3.260   6.307 130.204  0.00  0.00    +0.000 HD
ATOM     21  H   UNL     1      -3.523   4.739 129.577  0.00  0.00    +0.000 HD
ENDBRANCH  16  19
ENDBRANCH   1  13
TORSDOF 4
ENDMDL
MODEL 7
REMARK VINA RESULT:      -6.2      8.919      9.614
REMARK  Name = Dapsone
REMARK  4 active torsions:
REMARK  status: ('A' for Active; 'I' for Inactive)
REMARK    1  A    between atoms: N_1  and  C_2
REMARK    2  A    between atoms: C_5  and  S_8
REMARK    3  A    between atoms: S_8  and  C_11
REMARK    4  A    between atoms: C_14  and  N_15
REMARK                            x       y       z     vdW  Elec       q    Type
REMARK                         _______ _______ _______ _____ _____    ______ ____
ROOT
ATOM      1  S   UNL     1      -8.439  -2.199 124.125  0.00  0.00    +0.000 S 
ATOM      2  O   UNL     1      -7.254  -2.816 123.547  0.00  0.00    +0.000 OA
ATOM      3  O   UNL     1      -9.764  -2.653 123.761  0.00  0.00    +0.000 OA
ENDROOT
BRANCH   1   7
ATOM      4  C   UNL     1      -8.144  -2.794 128.667  0.00  0.00    +0.000 A 
ATOM      5  C   UNL     1      -8.732  -3.764 127.848  0.00  0.00    +0.000 A 
ATOM      6  C   UNL     1      -8.824  -3.578 126.463  0.00  0.00    +0.000 A 
ATOM      7  C   UNL     1      -8.318  -2.407 125.891  0.00  0.00    +0.000 A 
ATOM      8  C   UNL     1      -7.731  -1.434 126.699  0.00  0.00    +0.000 A 
ATOM      9  C   UNL     1      -7.624  -1.643 128.074  0.00  0.00    +0.000 A 
BRANCH   4  10
ATOM     10  N   UNL     1      -7.970  -3.017 130.022  0.00  0.00    +0.000 N 
ATOM     11  H   UNL     1      -7.549  -3.879 130.341  0.00  0.00    +0.000 HD
ATOM     12  H   UNL     1      -8.511  -2.484 130.691  0.00  0.00    +0.000 HD
ENDBRANCH   4  10
ENDBRANCH   1   7
BRANCH   1  13
ATOM     13  C   UNL     1      -8.340  -0.465 123.710  0.00  0.00    +0.000 A 
ATOM     14  C   UNL     1      -9.517   0.277 123.559  0.00  0.00    +0.000 A 
ATOM     15  C   UNL     1      -9.442   1.617 123.169  0.00  0.00    +0.000 A 
ATOM     16  C   UNL     1      -8.205   2.250 123.003  0.00  0.00    +0.000 A 
ATOM     17  C   UNL     1      -7.040   1.491 123.161  0.00  0.00    +0.000 A 
ATOM     18  C   UNL     1      -7.099   0.140 123.519  0.00  0.00    +0.000 A 
BRANCH  16  19
ATOM     19  N   UNL     1      -8.141   3.540 122.484  0.00  0.00    +0.000 N 
ATOM     20  H   UNL     1      -8.410   3.669 121.515  0.00  0.00    +0.000 HD
ATOM     21  H   UNL     1      -8.390   4.304 123.101  0.00  0.00    +0.000 HD
ENDBRANCH  16  19
ENDBRANCH   1  13
TORSDOF 4
ENDMDL
MODEL 8
REMARK VINA RESULT:      -6.0      8.375      9.123
REMARK  Name = Dapsone
REMARK  4 active torsions:
REMARK  status: ('A' for Active; 'I' for Inactive)
REMARK    1  A    between atoms: N_1  and  C_2
REMARK    2  A    between atoms: C_5  and  S_8
REMARK    3  A    between atoms: S_8  and  C_11
REMARK    4  A    between atoms: C_14  and  N_15
REMARK                            x       y       z     vdW  Elec       q    Type
REMARK                         _______ _______ _______ _____ _____    ______ ____
ROOT
ATOM      1  S   UNL     1      -7.890   2.391 124.218  0.00  0.00    +0.000 S 
ATOM      2  O   UNL     1      -8.216   0.987 124.014  0.00  0.00    +0.000 OA
ATOM      3  O   UNL     1      -8.793   3.265 124.936  0.00  0.00    +0.000 OA
ENDROOT
BRANCH   1   7
ATOM      4  C   UNL     1      -3.925   2.567 126.525  0.00  0.00    +0.000 A 
ATOM      5  C   UNL     1      -4.481   3.717 125.957  0.00  0.00    +0.000 A 
ATOM      6  C   UNL     1      -5.690   3.660 125.250  0.00  0.00    +0.000 A 
ATOM      7  C   UNL     1      -6.350   2.436 125.114  0.00  0.00    +0.000 A 
ATOM      8  C   UNL     1      -5.803   1.282 125.676  0.00  0.00    +0.000 A 
ATOM      9  C   UNL     1      -4.611   1.358 126.398  0.00  0.00    +0.000 A 
BRANCH   4  10
ATOM     10  N   UNL     1      -2.781   2.637 127.301  0.00  0.00    +0.000 N 
ATOM     11  H   UNL     1      -2.089   3.351 127.115  0.00  0.00    +0.000 HD
ATOM     12  H   UNL     1      -2.489   1.831 127.839  0.00  0.00    +0.000 HD
ENDBRANCH   4  10
ENDBRANCH   1   7
BRANCH   1  13
ATOM     13  C   UNL     1      -7.665   3.084 122.589  0.00  0.00    +0.000 A 
ATOM     14  C   UNL     1      -8.780   3.321 121.778  0.00  0.00    +0.000 A 
ATOM     15  C   UNL     1      -8.600   3.801 120.478  0.00  0.00    +0.000 A 
ATOM     16  C   UNL     1      -7.325   4.123 120.001  0.00  0.00    +0.000 A 
ATOM     17  C   UNL     1      -6.221   3.882 120.828  0.00  0.00    +0.000 A 
ATOM     18  C   UNL     1      -6.383   3.370 122.120  0.00  0.00    +0.000 A 
BRANCH  16  19
ATOM     19  N   UNL     1      -7.141   4.469 118.665  0.00  0.00    +0.000 N 
ATOM     20  H   UNL     1      -7.096   5.456 118.438  0.00  0.00    +0.000 HD
ATOM     21  H   UNL     1      -6.537   3.875 118.108  0.00  0.00    +0.000 HD
ENDBRANCH  16  19
ENDBRANCH   1  13
TORSDOF 4
ENDMDL
MODEL 9
REMARK VINA RESULT:      -6.0      8.027     10.274
REMARK  Name = Dapsone
REMARK  4 active torsions:
REMARK  status: ('A' for Active; 'I' for Inactive)
REMARK    1  A    between atoms: N_1  and  C_2
REMARK    2  A    between atoms: C_5  and  S_8
REMARK    3  A    between atoms: S_8  and  C_11
REMARK    4  A    between atoms: C_14  and  N_15
REMARK                            x       y       z     vdW  Elec       q    Type
REMARK                         _______ _______ _______ _____ _____    ______ ____
ROOT
ATOM      1  S   UNL     1      -7.409   2.622 124.806  0.00  0.00    +0.000 S 
ATOM      2  O   UNL     1      -8.508   3.360 125.411  0.00  0.00    +0.000 OA
ATOM      3  O   UNL     1      -7.406   1.174 124.794  0.00  0.00    +0.000 OA
ENDROOT
BRANCH   1   7
ATOM      4  C   UNL     1      -7.265   3.921 120.406  0.00  0.00    +0.000 A 
ATOM      5  C   UNL     1      -8.466   3.524 121.003  0.00  0.00    +0.000 A 
ATOM      6  C   UNL     1      -8.507   3.125 122.345  0.00  0.00    +0.000 A 
ATOM      7  C   UNL     1      -7.330   3.126 123.099  0.00  0.00    +0.000 A 
ATOM      8  C   UNL     1      -6.127   3.518 122.512  0.00  0.00    +0.000 A 
ATOM      9  C   UNL     1      -6.106   3.937 121.181  0.00  0.00    +0.000 A 
BRANCH   4  10
ATOM     10  N   UNL     1      -7.240   4.403 119.109  0.00  0.00    +0.000 N 
ATOM     11  H   UNL     1      -6.363   4.688 118.694  0.00  0.00    +0.000 HD
ATOM     12  H   UNL     1      -8.092   4.748 118.685  0.00  0.00    +0.000 HD
ENDBRANCH   4  10
ENDBRANCH   1   7
BRANCH   1  13
ATOM     13  C   UNL     1      -5.934   3.147 125.663  0.00  0.00    +0.000 A 
ATOM     14  C   UNL     1      -5.791   4.489 126.034  0.00  0.00    +0.000 A 
ATOM     15  C   UNL     1      -4.608   4.914 126.646  0.00  0.00    +0.000 A 
ATOM     16  C   UNL     1      -3.595   4.003 126.963  0.00  0.00    +0.000 A 
ATOM     17  C   UNL     1      -3.757   2.665 126.586  0.00  0.00    +0.000 A 
ATOM     18  C   UNL     1      -4.922   2.230 125.944  0.00  0.00    +0.000 A 
BRANCH  16  19
ATOM     19  N   UNL     1      -2.370   4.455 127.444  0.00  0.00    +0.000 N 
ATOM     20  H   UNL     1      -2.310   5.424 127.738  0.00  0.00    +0.000 HD
ATOM     21  H   UNL     1      -1.817   3.808 127.996  0.00  0.00    +0.000 HD
ENDBRANCH  16  19
ENDBRANCH   1  13
TORSDOF 4
ENDMDL
