MODEL 1
REMARK VINA RESULT:     -10.3      0.000      0.000
REMARK  Name = Darifenacin
REMARK  7 active torsions:
REMARK  status: ('A' for Active; 'I' for Inactive)
REMARK    1  A    between atoms: C_2  and  C_4
REMARK    2  A    between atoms: C_4  and  C_5
REMARK    3  A    between atoms: C_4  and  C_21
REMARK    4  A    between atoms: C_4  and  C_27
REMARK    5  A    between atoms: N_8  and  C_9
REMARK    6  A    between atoms: C_9  and  C_10
REMARK    7  A    between atoms: C_10  and  C_11
REMARK                            x       y       z     vdW  Elec       q    Type
REMARK                         _______ _______ _______ _____ _____    ______ ____
ROOT
ATOM      1  C   UNL     1      -7.641  -2.262 125.450  0.00  0.00    +0.000 C 
ENDROOT
BRANCH   1   2
ATOM      2  C   UNL     1      -7.674  -2.676 126.981  0.00  0.00    +0.000 A 
ATOM      3  C   UNL     1      -8.712  -3.394 127.610  0.00  0.00    +0.000 A 
ATOM      4  C   UNL     1      -8.751  -3.631 128.979  0.00  0.00    +0.000 A 
ATOM      5  C   UNL     1      -7.791  -3.063 129.787  0.00  0.00    +0.000 A 
ATOM      6  C   UNL     1      -6.748  -2.352 129.209  0.00  0.00    +0.000 A 
ATOM      7  C   UNL     1      -6.625  -2.274 127.820  0.00  0.00    +0.000 A 
ENDBRANCH   1   2
BRANCH   1   8
ATOM      8  C   UNL     1      -6.408  -2.941 124.682  0.00  0.00    +0.000 A 
ATOM      9  C   UNL     1      -6.213  -4.333 124.589  0.00  0.00    +0.000 A 
ATOM     10  C   UNL     1      -5.141  -4.910 123.903  0.00  0.00    +0.000 A 
ATOM     11  C   UNL     1      -4.160  -4.113 123.345  0.00  0.00    +0.000 A 
ATOM     12  C   UNL     1      -4.277  -2.740 123.446  0.00  0.00    +0.000 A 
ATOM     13  C   UNL     1      -5.414  -2.179 124.034  0.00  0.00    +0.000 A 
ENDBRANCH   1   8
BRANCH   1  15
ATOM     14  N   UNL     1      -8.968  -3.144 123.479  0.00  0.00    +0.000 N 
ATOM     15  C   UNL     1      -9.006  -2.727 124.793  0.00  0.00    +0.000 C 
ATOM     16  O   UNL     1     -10.075  -2.802 125.372  0.00  0.00    +0.000 OA
ATOM     17  H   UNL     1      -9.764  -3.710 123.205  0.00  0.00    +0.000 HD
ATOM     18  H   UNL     1      -8.101  -3.354 123.013  0.00  0.00    +0.000 HD
ENDBRANCH   1  15
BRANCH   1  19
ATOM     19  C   UNL     1      -7.474  -0.678 125.326  0.00  0.00    +0.000 C 
ATOM     20  C   UNL     1      -8.266   0.155 126.338  0.00  0.00    +0.000 C 
ATOM     21  C   UNL     1      -9.554   0.459 125.650  0.00  0.00    +0.000 C 
ATOM     22  N   UNL     1      -9.127   0.834 124.329  0.00  0.00    +0.000 NA
ATOM     23  C   UNL     1      -7.949   0.008 124.023  0.00  0.00    +0.000 C 
BRANCH  22  24
ATOM     24  C   UNL     1      -8.836   2.248 124.277  0.00  0.00    +0.000 C 
BRANCH  24  25
ATOM     25  C   UNL     1      -7.388   2.408 123.815  0.00  0.00    +0.000 C 
BRANCH  25  26
ATOM     26  C   UNL     1      -7.409   3.092 122.505  0.00  0.00    +0.000 A 
ATOM     27  C   UNL     1      -6.216   3.557 121.928  0.00  0.00    +0.000 A 
ATOM     28  C   UNL     1      -6.307   4.114 120.679  0.00  0.00    +0.000 A 
ATOM     29  C   UNL     1      -7.529   4.157 120.018  0.00  0.00    +0.000 A 
ATOM     30  O   UNL     1      -7.454   4.725 118.776  0.00  0.00    +0.000 OA
ATOM     31  C   UNL     1      -6.160   5.368 118.783  0.00  0.00    +0.000 C 
ATOM     32  C   UNL     1      -5.257   4.694 119.818  0.00  0.00    +0.000 C 
ATOM     33  C   UNL     1      -8.698   3.675 120.566  0.00  0.00    +0.000 A 
ATOM     34  C   UNL     1      -8.639   3.151 121.840  0.00  0.00    +0.000 A 
ENDBRANCH  25  26
ENDBRANCH  24  25
ENDBRANCH  22  24
ENDBRANCH   1  19
TORSDOF 7
ENDMDL
MODEL 2
REMARK VINA RESULT:      -9.7      0.491      1.710
REMARK  Name = Darifenacin
REMARK  7 active torsions:
REMARK  status: ('A' for Active; 'I' for Inactive)
REMARK    1  A    between atoms: C_2  and  C_4
REMARK    2  A    between atoms: C_4  and  C_5
REMARK    3  A    between atoms: C_4  and  C_21
REMARK    4  A    between atoms: C_4  and  C_27
REMARK    5  A    between atoms: N_8  and  C_9
REMARK    6  A    between atoms: C_9  and  C_10
REMARK    7  A    between atoms: C_10  and  C_11
REMARK                            x       y       z     vdW  Elec       q    Type
REMARK                         _______ _______ _______ _____ _____    ______ ____
ROOT
ATOM      1  C   UNL     1      -7.597  -2.215 125.368  0.00  0.00    +0.000 C 
ENDROOT
BRANCH   1   2
ATOM      2  C   UNL     1      -7.681  -2.600 126.904  0.00  0.00    +0.000 A 
ATOM      3  C   UNL     1      -6.713  -2.283 127.880  0.00  0.00    +0.000 A 
ATOM      4  C   UNL     1      -6.775  -2.744 129.190  0.00  0.00    +0.000 A 
ATOM      5  C   UNL     1      -7.768  -3.631 129.544  0.00  0.00    +0.000 A 
ATOM      6  C   UNL     1      -8.744  -3.967 128.616  0.00  0.00    +0.000 A 
ATOM      7  C   UNL     1      -8.770  -3.357 127.360  0.00  0.00    +0.000 A 
ENDBRANCH   1   2
BRANCH   1   8
ATOM      8  C   UNL     1      -6.355  -2.929 124.648  0.00  0.00    +0.000 A 
ATOM      9  C   UNL     1      -5.356  -2.236 123.938  0.00  0.00    +0.000 A 
ATOM     10  C   UNL     1      -4.271  -2.872 123.328  0.00  0.00    +0.000 A 
ATOM     11  C   UNL     1      -4.180  -4.251 123.330  0.00  0.00    +0.000 A 
ATOM     12  C   UNL     1      -5.158  -4.984 123.975  0.00  0.00    +0.000 A 
ATOM     13  C   UNL     1      -6.173  -4.327 124.677  0.00  0.00    +0.000 A 
ENDBRANCH   1   8
BRANCH   1  15
ATOM     14  N   UNL     1      -8.876  -3.159 123.394  0.00  0.00    +0.000 N 
ATOM     15  C   UNL     1      -8.951  -2.668 124.681  0.00  0.00    +0.000 C 
ATOM     16  O   UNL     1     -10.044  -2.673 125.218  0.00  0.00    +0.000 OA
ATOM     17  H   UNL     1      -9.681  -3.712 123.118  0.00  0.00    +0.000 HD
ATOM     18  H   UNL     1      -7.999  -3.425 122.977  0.00  0.00    +0.000 HD
ENDBRANCH   1  15
BRANCH   1  19
ATOM     19  C   UNL     1      -7.398  -0.636 125.221  0.00  0.00    +0.000 C 
ATOM     20  C   UNL     1      -8.117   0.225 126.265  0.00  0.00    +0.000 C 
ATOM     21  C   UNL     1      -9.431   0.554 125.641  0.00  0.00    +0.000 C 
ATOM     22  N   UNL     1      -9.064   0.908 124.295  0.00  0.00    +0.000 NA
ATOM     23  C   UNL     1      -7.924   0.051 123.937  0.00  0.00    +0.000 C 
BRANCH  22  24
ATOM     24  C   UNL     1      -8.741   2.314 124.216  0.00  0.00    +0.000 C 
BRANCH  24  25
ATOM     25  C   UNL     1      -7.269   2.431 123.823  0.00  0.00    +0.000 C 
BRANCH  25  26
ATOM     26  C   UNL     1      -7.214   2.988 122.454  0.00  0.00    +0.000 A 
ATOM     27  C   UNL     1      -8.397   3.237 121.742  0.00  0.00    +0.000 A 
ATOM     28  C   UNL     1      -8.267   3.823 120.509  0.00  0.00    +0.000 A 
ATOM     29  C   UNL     1      -7.013   4.188 120.035  0.00  0.00    +0.000 A 
ATOM     30  O   UNL     1      -7.050   4.777 118.801  0.00  0.00    +0.000 OA
ATOM     31  C   UNL     1      -8.382   4.475 118.330  0.00  0.00    +0.000 C 
ATOM     32  C   UNL     1      -9.299   4.201 119.522  0.00  0.00    +0.000 C 
ATOM     33  C   UNL     1      -5.849   3.975 120.744  0.00  0.00    +0.000 A 
ATOM     34  C   UNL     1      -5.952   3.346 121.966  0.00  0.00    +0.000 A 
ENDBRANCH  25  26
ENDBRANCH  24  25
ENDBRANCH  22  24
ENDBRANCH   1  19
TORSDOF 7
ENDMDL
MODEL 3
REMARK VINA RESULT:      -9.2      2.505      3.543
REMARK  Name = Darifenacin
REMARK  7 active torsions:
REMARK  status: ('A' for Active; 'I' for Inactive)
REMARK    1  A    between atoms: C_2  and  C_4
REMARK    2  A    between atoms: C_4  and  C_5
REMARK    3  A    between atoms: C_4  and  C_21
REMARK    4  A    between atoms: C_4  and  C_27
REMARK    5  A    between atoms: N_8  and  C_9
REMARK    6  A    between atoms: C_9  and  C_10
REMARK    7  A    between atoms: C_10  and  C_11
REMARK                            x       y       z     vdW  Elec       q    Type
REMARK                         _______ _______ _______ _____ _____    ______ ____
ROOT
ATOM      1  C   UNL     1      -7.602  -2.302 125.362  0.00  0.00    +0.000 C 
ENDROOT
BRANCH   1   2
ATOM      2  C   UNL     1      -7.709  -2.765 126.875  0.00  0.00    +0.000 A 
ATOM      3  C   UNL     1      -8.780  -3.494 127.433  0.00  0.00    +0.000 A 
ATOM      4  C   UNL     1      -8.883  -3.774 128.791  0.00  0.00    +0.000 A 
ATOM      5  C   UNL     1      -7.956  -3.242 129.660  0.00  0.00    +0.000 A 
ATOM      6  C   UNL     1      -6.882  -2.522 129.153  0.00  0.00    +0.000 A 
ATOM      7  C   UNL     1      -6.696  -2.400 127.774  0.00  0.00    +0.000 A 
ENDBRANCH   1   2
BRANCH   1   8
ATOM      8  C   UNL     1      -6.336  -2.962 124.631  0.00  0.00    +0.000 A 
ATOM      9  C   UNL     1      -5.341  -2.220 123.966  0.00  0.00    +0.000 A 
ATOM     10  C   UNL     1      -4.235  -2.809 123.346  0.00  0.00    +0.000 A 
ATOM     11  C   UNL     1      -4.117  -4.185 123.292  0.00  0.00    +0.000 A 
ATOM     12  C   UNL     1      -5.089  -4.963 123.890  0.00  0.00    +0.000 A 
ATOM     13  C   UNL     1      -6.127  -4.356 124.604  0.00  0.00    +0.000 A 
ENDBRANCH   1   8
BRANCH   1  15
ATOM     14  N   UNL     1      -8.834  -3.143 123.312  0.00  0.00    +0.000 N 
ATOM     15  C   UNL     1      -8.936  -2.740 124.627  0.00  0.00    +0.000 C 
ATOM     16  O   UNL     1     -10.036  -2.806 125.147  0.00  0.00    +0.000 OA
ATOM     17  H   UNL     1      -9.621  -3.695 122.989  0.00  0.00    +0.000 HD
ATOM     18  H   UNL     1      -7.945  -3.360 122.891  0.00  0.00    +0.000 HD
ENDBRANCH   1  15
BRANCH   1  19
ATOM     19  C   UNL     1      -7.425  -0.716 125.298  0.00  0.00    +0.000 C 
ATOM     20  C   UNL     1      -8.144   0.078 126.392  0.00  0.00    +0.000 C 
ATOM     21  C   UNL     1      -9.469   0.423 125.799  0.00  0.00    +0.000 C 
ATOM     22  N   UNL     1      -9.120   0.853 124.471  0.00  0.00    +0.000 NA
ATOM     23  C   UNL     1      -7.972   0.031 124.057  0.00  0.00    +0.000 C 
BRANCH  22  24
ATOM     24  C   UNL     1      -8.816   2.265 124.464  0.00  0.00    +0.000 C 
BRANCH  24  25
ATOM     25  C   UNL     1      -7.465   2.447 123.773  0.00  0.00    +0.000 C 
BRANCH  25  26
ATOM     26  C   UNL     1      -6.570   3.149 124.717  0.00  0.00    +0.000 A 
ATOM     27  C   UNL     1      -5.512   2.464 125.334  0.00  0.00    +0.000 A 
ATOM     28  C   UNL     1      -4.681   3.201 126.139  0.00  0.00    +0.000 A 
ATOM     29  C   UNL     1      -4.872   4.569 126.276  0.00  0.00    +0.000 A 
ATOM     30  O   UNL     1      -3.953   5.166 127.095  0.00  0.00    +0.000 OA
ATOM     31  C   UNL     1      -3.334   4.047 127.768  0.00  0.00    +0.000 C 
ATOM     32  C   UNL     1      -3.502   2.782 126.924  0.00  0.00    +0.000 C 
ATOM     33  C   UNL     1      -5.891   5.255 125.648  0.00  0.00    +0.000 A 
ATOM     34  C   UNL     1      -6.765   4.526 124.870  0.00  0.00    +0.000 A 
ENDBRANCH  25  26
ENDBRANCH  24  25
ENDBRANCH  22  24
ENDBRANCH   1  19
TORSDOF 7
ENDMDL
MODEL 4
REMARK VINA RESULT:      -9.2      9.369     11.214
REMARK  Name = Darifenacin
REMARK  7 active torsions:
REMARK  status: ('A' for Active; 'I' for Inactive)
REMARK    1  A    between atoms: C_2  and  C_4
REMARK    2  A    between atoms: C_4  and  C_5
REMARK    3  A    between atoms: C_4  and  C_21
REMARK    4  A    between atoms: C_4  and  C_27
REMARK    5  A    between atoms: N_8  and  C_9
REMARK    6  A    between atoms: C_9  and  C_10
REMARK    7  A    between atoms: C_10  and  C_11
REMARK                            x       y       z     vdW  Elec       q    Type
REMARK                         _______ _______ _______ _____ _____    ______ ____
ROOT
ATOM      1  C   UNL     1      -3.154   5.687 132.064  0.00  0.00    +0.000 C 
ENDROOT
BRANCH   1   2
ATOM      2  C   UNL     1      -2.199   6.909 132.402  0.00  0.00    +0.000 A 
ATOM      3  C   UNL     1      -0.806   6.824 132.607  0.00  0.00    +0.000 A 
ATOM      4  C   UNL     1      -0.032   7.903 133.017  0.00  0.00    +0.000 A 
ATOM      5  C   UNL     1      -0.650   9.092 133.336  0.00  0.00    +0.000 A 
ATOM      6  C   UNL     1      -2.020   9.220 133.145  0.00  0.00    +0.000 A 
ATOM      7  C   UNL     1      -2.756   8.186 132.564  0.00  0.00    +0.000 A 
ENDBRANCH   1   2
BRANCH   1   8
ATOM      8  C   UNL     1      -3.019   5.242 130.529  0.00  0.00    +0.000 A 
ATOM      9  C   UNL     1      -2.509   6.073 129.513  0.00  0.00    +0.000 A 
ATOM     10  C   UNL     1      -2.384   5.665 128.183  0.00  0.00    +0.000 A 
ATOM     11  C   UNL     1      -2.845   4.423 127.788  0.00  0.00    +0.000 A 
ATOM     12  C   UNL     1      -3.396   3.583 128.736  0.00  0.00    +0.000 A 
ATOM     13  C   UNL     1      -3.407   3.962 130.082  0.00  0.00    +0.000 A 
ENDBRANCH   1   8
BRANCH   1  15
ATOM     14  N   UNL     1      -2.657   4.742 134.362  0.00  0.00    +0.000 N 
ATOM     15  C   UNL     1      -2.752   4.482 133.011  0.00  0.00    +0.000 C 
ATOM     16  O   UNL     1      -2.577   3.332 132.650  0.00  0.00    +0.000 OA
ATOM     17  H   UNL     1      -2.709   3.914 134.945  0.00  0.00    +0.000 HD
ATOM     18  H   UNL     1      -3.027   5.586 134.768  0.00  0.00    +0.000 HD
ENDBRANCH   1  15
BRANCH   1  19
ATOM     19  C   UNL     1      -4.674   6.110 132.312  0.00  0.00    +0.000 C 
ATOM     20  C   UNL     1      -5.453   5.238 133.303  0.00  0.00    +0.000 C 
ATOM     21  C   UNL     1      -6.110   4.201 132.455  0.00  0.00    +0.000 C 
ATOM     22  N   UNL     1      -6.622   4.970 131.353  0.00  0.00    +0.000 NA
ATOM     23  C   UNL     1      -5.654   6.052 131.116  0.00  0.00    +0.000 C 
BRANCH  22  24
ATOM     24  C   UNL     1      -7.942   5.470 131.659  0.00  0.00    +0.000 C 
BRANCH  24  25
ATOM     25  C   UNL     1      -8.075   6.853 131.021  0.00  0.00    +0.000 C 
BRANCH  25  26
ATOM     26  C   UNL     1      -9.491   7.035 130.637  0.00  0.00    +0.000 A 
ATOM     27  C   UNL     1      -9.823   7.695 129.443  0.00  0.00    +0.000 A 
ATOM     28  C   UNL     1     -11.154   7.759 129.119  0.00  0.00    +0.000 A 
ATOM     29  C   UNL     1     -12.102   7.145 129.928  0.00  0.00    +0.000 A 
ATOM     30  O   UNL     1     -13.381   7.281 129.463  0.00  0.00    +0.000 OA
ATOM     31  C   UNL     1     -13.262   8.318 128.463  0.00  0.00    +0.000 C 
ATOM     32  C   UNL     1     -11.821   8.380 127.956  0.00  0.00    +0.000 C 
ATOM     33  C   UNL     1     -11.780   6.469 131.086  0.00  0.00    +0.000 A 
ATOM     34  C   UNL     1     -10.453   6.431 131.455  0.00  0.00    +0.000 A 
ENDBRANCH  25  26
ENDBRANCH  24  25
ENDBRANCH  22  24
ENDBRANCH   1  19
TORSDOF 7
ENDMDL
MODEL 5
REMARK VINA RESULT:      -9.1      4.537      5.749
REMARK  Name = Darifenacin
REMARK  7 active torsions:
REMARK  status: ('A' for Active; 'I' for Inactive)
REMARK    1  A    between atoms: C_2  and  C_4
REMARK    2  A    between atoms: C_4  and  C_5
REMARK    3  A    between atoms: C_4  and  C_21
REMARK    4  A    between atoms: C_4  and  C_27
REMARK    5  A    between atoms: N_8  and  C_9
REMARK    6  A    between atoms: C_9  and  C_10
REMARK    7  A    between atoms: C_10  and  C_11
REMARK                            x       y       z     vdW  Elec       q    Type
REMARK                         _______ _______ _______ _____ _____    ______ ____
ROOT
ATOM      1  C   UNL     1      -7.743  -0.847 125.880  0.00  0.00    +0.000 C 
ENDROOT
BRANCH   1   2
ATOM      2  C   UNL     1      -8.138  -1.825 127.065  0.00  0.00    +0.000 A 
ATOM      3  C   UNL     1      -7.761  -1.667 128.414  0.00  0.00    +0.000 A 
ATOM      4  C   UNL     1      -8.033  -2.614 129.395  0.00  0.00    +0.000 A 
ATOM      5  C   UNL     1      -8.611  -3.811 129.033  0.00  0.00    +0.000 A 
ATOM      6  C   UNL     1      -9.003  -4.007 127.715  0.00  0.00    +0.000 A 
ATOM      7  C   UNL     1      -8.885  -2.978 126.779  0.00  0.00    +0.000 A 
ENDBRANCH   1   2
BRANCH   1   8
ATOM      8  C   UNL     1      -6.788  -1.568 124.813  0.00  0.00    +0.000 A 
ATOM      9  C   UNL     1      -6.785  -1.271 123.437  0.00  0.00    +0.000 A 
ATOM     10  C   UNL     1      -5.935  -1.898 122.521  0.00  0.00    +0.000 A 
ATOM     11  C   UNL     1      -5.101  -2.921 122.932  0.00  0.00    +0.000 A 
ATOM     12  C   UNL     1      -5.096  -3.285 124.265  0.00  0.00    +0.000 A 
ATOM     13  C   UNL     1      -5.867  -2.569 125.186  0.00  0.00    +0.000 A 
ENDBRANCH   1   8
BRANCH   1  15
ATOM     14  N   UNL     1      -9.129  -0.443 123.796  0.00  0.00    +0.000 N 
ATOM     15  C   UNL     1      -9.082  -0.378 125.173  0.00  0.00    +0.000 C 
ATOM     16  O   UNL     1     -10.094  -0.022 125.750  0.00  0.00    +0.000 OA
ATOM     17  H   UNL     1     -10.070  -0.438 123.417  0.00  0.00    +0.000 HD
ATOM     18  H   UNL     1      -8.445  -0.957 123.265  0.00  0.00    +0.000 HD
ENDBRANCH   1  15
BRANCH   1  19
ATOM     19  C   UNL     1      -6.951   0.411 126.465  0.00  0.00    +0.000 C 
ATOM     20  C   UNL     1      -7.620   1.774 126.255  0.00  0.00    +0.000 C 
ATOM     21  C   UNL     1      -7.043   2.283 124.977  0.00  0.00    +0.000 C 
ATOM     22  N   UNL     1      -5.641   1.992 125.123  0.00  0.00    +0.000 NA
ATOM     23  C   UNL     1      -5.555   0.733 125.879  0.00  0.00    +0.000 C 
BRANCH  22  24
ATOM     24  C   UNL     1      -4.969   3.082 125.791  0.00  0.00    +0.000 C 
BRANCH  24  25
ATOM     25  C   UNL     1      -3.685   2.528 126.408  0.00  0.00    +0.000 C 
BRANCH  25  26
ATOM     26  C   UNL     1      -3.426   3.278 127.655  0.00  0.00    +0.000 A 
ATOM     27  C   UNL     1      -2.803   4.536 127.609  0.00  0.00    +0.000 A 
ATOM     28  C   UNL     1      -2.665   5.203 128.799  0.00  0.00    +0.000 A 
ATOM     29  C   UNL     1      -3.172   4.657 129.971  0.00  0.00    +0.000 A 
ATOM     30  O   UNL     1      -2.972   5.448 131.069  0.00  0.00    +0.000 OA
ATOM     31  C   UNL     1      -1.996   6.410 130.610  0.00  0.00    +0.000 C 
ATOM     32  C   UNL     1      -2.057   6.518 129.086  0.00  0.00    +0.000 C 
ATOM     33  C   UNL     1      -3.812   3.436 130.018  0.00  0.00    +0.000 A 
ATOM     34  C   UNL     1      -3.922   2.727 128.841  0.00  0.00    +0.000 A 
ENDBRANCH  25  26
ENDBRANCH  24  25
ENDBRANCH  22  24
ENDBRANCH   1  19
TORSDOF 7
ENDMDL
MODEL 6
REMARK VINA RESULT:      -9.0      5.597      7.922
REMARK  Name = Darifenacin
REMARK  7 active torsions:
REMARK  status: ('A' for Active; 'I' for Inactive)
REMARK    1  A    between atoms: C_2  and  C_4
REMARK    2  A    between atoms: C_4  and  C_5
REMARK    3  A    between atoms: C_4  and  C_21
REMARK    4  A    between atoms: C_4  and  C_27
REMARK    5  A    between atoms: N_8  and  C_9
REMARK    6  A    between atoms: C_9  and  C_10
REMARK    7  A    between atoms: C_10  and  C_11
REMARK                            x       y       z     vdW  Elec       q    Type
REMARK                         _______ _______ _______ _____ _____    ______ ____
ROOT
ATOM      1  C   UNL     1      -7.096   2.693 124.555  0.00  0.00    +0.000 C 
ENDROOT
BRANCH   1   2
ATOM      2  C   UNL     1      -7.830   1.293 124.698  0.00  0.00    +0.000 A 
ATOM      3  C   UNL     1      -8.765   0.961 125.700  0.00  0.00    +0.000 A 
ATOM      4  C   UNL     1      -9.292  -0.317 125.853  0.00  0.00    +0.000 A 
ATOM      5  C   UNL     1      -8.818  -1.339 125.062  0.00  0.00    +0.000 A 
ATOM      6  C   UNL     1      -7.899  -1.055 124.060  0.00  0.00    +0.000 A 
ATOM      7  C   UNL     1      -7.514   0.262 123.802  0.00  0.00    +0.000 A 
ENDBRANCH   1   2
BRANCH   1   8
ATOM      8  C   UNL     1      -7.038   3.174 123.027  0.00  0.00    +0.000 A 
ATOM      9  C   UNL     1      -5.863   3.617 122.389  0.00  0.00    +0.000 A 
ATOM     10  C   UNL     1      -5.825   4.019 121.051  0.00  0.00    +0.000 A 
ATOM     11  C   UNL     1      -6.989   4.076 120.307  0.00  0.00    +0.000 A 
ATOM     12  C   UNL     1      -8.178   3.695 120.897  0.00  0.00    +0.000 A 
ATOM     13  C   UNL     1      -8.179   3.186 122.199  0.00  0.00    +0.000 A 
ENDBRANCH   1   8
BRANCH   1  15
ATOM     14  N   UNL     1      -7.863   5.065 125.009  0.00  0.00    +0.000 N 
ATOM     15  C   UNL     1      -7.898   3.750 125.422  0.00  0.00    +0.000 C 
ATOM     16  O   UNL     1      -8.590   3.485 126.389  0.00  0.00    +0.000 OA
ATOM     17  H   UNL     1      -8.614   5.634 125.387  0.00  0.00    +0.000 HD
ATOM     18  H   UNL     1      -7.534   5.327 124.095  0.00  0.00    +0.000 HD
ENDBRANCH   1  15
BRANCH   1  19
ATOM     19  C   UNL     1      -5.593   2.566 125.080  0.00  0.00    +0.000 C 
ATOM     20  C   UNL     1      -5.313   1.391 126.022  0.00  0.00    +0.000 C 
ATOM     21  C   UNL     1      -5.511   1.949 127.391  0.00  0.00    +0.000 C 
ATOM     22  N   UNL     1      -4.828   3.214 127.319  0.00  0.00    +0.000 NA
ATOM     23  C   UNL     1      -5.023   3.713 125.949  0.00  0.00    +0.000 C 
BRANCH  22  24
ATOM     24  C   UNL     1      -3.433   3.051 127.652  0.00  0.00    +0.000 C 
BRANCH  24  25
ATOM     25  C   UNL     1      -2.711   4.345 127.278  0.00  0.00    +0.000 C 
BRANCH  25  26
ATOM     26  C   UNL     1      -2.951   5.321 128.363  0.00  0.00    +0.000 A 
ATOM     27  C   UNL     1      -2.628   5.000 129.690  0.00  0.00    +0.000 A 
ATOM     28  C   UNL     1      -2.810   5.983 130.629  0.00  0.00    +0.000 A 
ATOM     29  C   UNL     1      -3.248   7.244 130.245  0.00  0.00    +0.000 A 
ATOM     30  O   UNL     1      -3.362   8.119 131.290  0.00  0.00    +0.000 OA
ATOM     31  C   UNL     1      -3.295   7.260 132.450  0.00  0.00    +0.000 C 
ATOM     32  C   UNL     1      -2.576   5.961 132.087  0.00  0.00    +0.000 C 
ATOM     33  C   UNL     1      -3.538   7.576 128.939  0.00  0.00    +0.000 A 
ATOM     34  C   UNL     1      -3.405   6.590 127.985  0.00  0.00    +0.000 A 
ENDBRANCH  25  26
ENDBRANCH  24  25
ENDBRANCH  22  24
ENDBRANCH   1  19
TORSDOF 7
ENDMDL
MODEL 7
REMARK VINA RESULT:      -8.8      7.868      9.696
REMARK  Name = Darifenacin
REMARK  7 active torsions:
REMARK  status: ('A' for Active; 'I' for Inactive)
REMARK    1  A    between atoms: C_2  and  C_4
REMARK    2  A    between atoms: C_4  and  C_5
REMARK    3  A    between atoms: C_4  and  C_21
REMARK    4  A    between atoms: C_4  and  C_27
REMARK    5  A    between atoms: N_8  and  C_9
REMARK    6  A    between atoms: C_9  and  C_10
REMARK    7  A    between atoms: C_10  and  C_11
REMARK                            x       y       z     vdW  Elec       q    Type
REMARK                         _______ _______ _______ _____ _____    ______ ____
ROOT
ATOM      1  C   UNL     1      -4.520   4.303 130.330  0.00  0.00    +0.000 C 
ENDROOT
BRANCH   1   2
ATOM      2  C   UNL     1      -3.277   4.942 131.080  0.00  0.00    +0.000 A 
ATOM      3  C   UNL     1      -2.595   6.110 130.682  0.00  0.00    +0.000 A 
ATOM      4  C   UNL     1      -1.438   6.565 131.306  0.00  0.00    +0.000 A 
ATOM      5  C   UNL     1      -0.863   5.800 132.296  0.00  0.00    +0.000 A 
ATOM      6  C   UNL     1      -1.503   4.643 132.722  0.00  0.00    +0.000 A 
ATOM      7  C   UNL     1      -2.755   4.295 132.211  0.00  0.00    +0.000 A 
ENDBRANCH   1   2
BRANCH   1   8
ATOM      8  C   UNL     1      -4.225   4.100 128.767  0.00  0.00    +0.000 A 
ATOM      9  C   UNL     1      -2.992   3.652 128.254  0.00  0.00    +0.000 A 
ATOM     10  C   UNL     1      -2.755   3.466 126.889  0.00  0.00    +0.000 A 
ATOM     11  C   UNL     1      -3.722   3.802 125.961  0.00  0.00    +0.000 A 
ATOM     12  C   UNL     1      -4.935   4.289 126.407  0.00  0.00    +0.000 A 
ATOM     13  C   UNL     1      -5.197   4.359 127.779  0.00  0.00    +0.000 A 
ENDBRANCH   1   8
BRANCH   1  15
ATOM     14  N   UNL     1      -4.861   1.796 130.185  0.00  0.00    +0.000 N 
ATOM     15  C   UNL     1      -4.826   2.903 131.006  0.00  0.00    +0.000 C 
ATOM     16  O   UNL     1      -4.975   2.717 132.201  0.00  0.00    +0.000 OA
ATOM     17  H   UNL     1      -4.747   0.916 130.676  0.00  0.00    +0.000 HD
ATOM     18  H   UNL     1      -4.503   1.821 129.244  0.00  0.00    +0.000 HD
ENDBRANCH   1  15
BRANCH   1  19
ATOM     19  C   UNL     1      -5.782   5.274 130.461  0.00  0.00    +0.000 C 
ATOM     20  C   UNL     1      -5.657   6.390 131.503  0.00  0.00    +0.000 C 
ATOM     21  C   UNL     1      -6.249   5.813 132.745  0.00  0.00    +0.000 C 
ATOM     22  N   UNL     1      -7.445   5.178 132.261  0.00  0.00    +0.000 NA
ATOM     23  C   UNL     1      -7.129   4.664 130.919  0.00  0.00    +0.000 C 
BRANCH  22  24
ATOM     24  C   UNL     1      -8.542   6.117 132.246  0.00  0.00    +0.000 C 
BRANCH  24  25
ATOM     25  C   UNL     1      -9.788   5.369 131.770  0.00  0.00    +0.000 C 
BRANCH  25  26
ATOM     26  C   UNL     1     -10.387   6.153 130.669  0.00  0.00    +0.000 A 
ATOM     27  C   UNL     1     -11.722   5.939 130.291  0.00  0.00    +0.000 A 
ATOM     28  C   UNL     1     -12.228   6.755 129.312  0.00  0.00    +0.000 A 
ATOM     29  C   UNL     1     -11.448   7.770 128.774  0.00  0.00    +0.000 A 
ATOM     30  O   UNL     1     -12.098   8.508 127.823  0.00  0.00    +0.000 OA
ATOM     31  C   UNL     1     -13.260   7.704 127.518  0.00  0.00    +0.000 C 
ATOM     32  C   UNL     1     -13.570   6.780 128.697  0.00  0.00    +0.000 C 
ATOM     33  C   UNL     1     -10.146   8.005 129.162  0.00  0.00    +0.000 A 
ATOM     34  C   UNL     1      -9.601   7.168 130.112  0.00  0.00    +0.000 A 
ENDBRANCH  25  26
ENDBRANCH  24  25
ENDBRANCH  22  24
ENDBRANCH   1  19
TORSDOF 7
ENDMDL
MODEL 8
REMARK VINA RESULT:      -8.7      5.423      8.074
REMARK  Name = Darifenacin
REMARK  7 active torsions:
REMARK  status: ('A' for Active; 'I' for Inactive)
REMARK    1  A    between atoms: C_2  and  C_4
REMARK    2  A    between atoms: C_4  and  C_5
REMARK    3  A    between atoms: C_4  and  C_21
REMARK    4  A    between atoms: C_4  and  C_27
REMARK    5  A    between atoms: N_8  and  C_9
REMARK    6  A    between atoms: C_9  and  C_10
REMARK    7  A    between atoms: C_10  and  C_11
REMARK                            x       y       z     vdW  Elec       q    Type
REMARK                         _______ _______ _______ _____ _____    ______ ____
ROOT
ATOM      1  C   UNL     1      -7.447   2.065 123.769  0.00  0.00    +0.000 C 
ENDROOT
BRANCH   1   2
ATOM      2  C   UNL     1      -7.756   0.520 123.578  0.00  0.00    +0.000 A 
ATOM      3  C   UNL     1      -6.798  -0.514 123.613  0.00  0.00    +0.000 A 
ATOM      4  C   UNL     1      -7.100  -1.840 123.324  0.00  0.00    +0.000 A 
ATOM      5  C   UNL     1      -8.366  -2.161 122.886  0.00  0.00    +0.000 A 
ATOM      6  C   UNL     1      -9.342  -1.174 122.841  0.00  0.00    +0.000 A 
ATOM      7  C   UNL     1      -9.071   0.115 123.305  0.00  0.00    +0.000 A 
ENDBRANCH   1   2
BRANCH   1   8
ATOM      8  C   UNL     1      -7.440   2.842 122.367  0.00  0.00    +0.000 A 
ATOM      9  C   UNL     1      -8.607   3.226 121.678  0.00  0.00    +0.000 A 
ATOM     10  C   UNL     1      -8.584   3.917 120.463  0.00  0.00    +0.000 A 
ATOM     11  C   UNL     1      -7.382   4.184 119.835  0.00  0.00    +0.000 A 
ATOM     12  C   UNL     1      -6.207   3.790 120.446  0.00  0.00    +0.000 A 
ATOM     13  C   UNL     1      -6.243   3.203 121.715  0.00  0.00    +0.000 A 
ENDBRANCH   1   8
BRANCH   1  15
ATOM     14  N   UNL     1      -8.648   4.042 124.805  0.00  0.00    +0.000 N 
ATOM     15  C   UNL     1      -8.568   2.668 124.714  0.00  0.00    +0.000 C 
ATOM     16  O   UNL     1      -9.401   2.018 125.320  0.00  0.00    +0.000 OA
ATOM     17  H   UNL     1      -9.540   4.379 125.152  0.00  0.00    +0.000 HD
ATOM     18  H   UNL     1      -8.175   4.646 124.153  0.00  0.00    +0.000 HD
ENDBRANCH   1  15
BRANCH   1  19
ATOM     19  C   UNL     1      -6.004   2.245 124.430  0.00  0.00    +0.000 C 
ATOM     20  C   UNL     1      -5.780   1.504 125.752  0.00  0.00    +0.000 C 
ATOM     21  C   UNL     1      -6.143   2.495 126.806  0.00  0.00    +0.000 C 
ATOM     22  N   UNL     1      -5.507   3.700 126.341  0.00  0.00    +0.000 NA
ATOM     23  C   UNL     1      -5.575   3.665 124.873  0.00  0.00    +0.000 C 
BRANCH  22  24
ATOM     24  C   UNL     1      -4.149   3.770 126.828  0.00  0.00    +0.000 C 
BRANCH  24  25
ATOM     25  C   UNL     1      -4.143   3.249 128.265  0.00  0.00    +0.000 C 
BRANCH  25  26
ATOM     26  C   UNL     1      -3.462   4.258 129.105  0.00  0.00    +0.000 A 
ATOM     27  C   UNL     1      -3.298   4.041 130.482  0.00  0.00    +0.000 A 
ATOM     28  C   UNL     1      -2.592   4.987 131.179  0.00  0.00    +0.000 A 
ATOM     29  C   UNL     1      -2.034   6.073 130.518  0.00  0.00    +0.000 A 
ATOM     30  O   UNL     1      -1.345   6.917 131.345  0.00  0.00    +0.000 OA
ATOM     31  C   UNL     1      -1.765   6.502 132.664  0.00  0.00    +0.000 C 
ATOM     32  C   UNL     1      -2.257   5.055 132.616  0.00  0.00    +0.000 C 
ATOM     33  C   UNL     1      -2.165   6.277 129.160  0.00  0.00    +0.000 A 
ATOM     34  C   UNL     1      -2.909   5.362 128.446  0.00  0.00    +0.000 A 
ENDBRANCH  25  26
ENDBRANCH  24  25
ENDBRANCH  22  24
ENDBRANCH   1  19
TORSDOF 7
ENDMDL
MODEL 9
REMARK VINA RESULT:      -8.7      3.453      7.818
REMARK  Name = Darifenacin
REMARK  7 active torsions:
REMARK  status: ('A' for Active; 'I' for Inactive)
REMARK    1  A    between atoms: C_2  and  C_4
REMARK    2  A    between atoms: C_4  and  C_5
REMARK    3  A    between atoms: C_4  and  C_21
REMARK    4  A    between atoms: C_4  and  C_27
REMARK    5  A    between atoms: N_8  and  C_9
REMARK    6  A    between atoms: C_9  and  C_10
REMARK    7  A    between atoms: C_10  and  C_11
REMARK                            x       y       z     vdW  Elec       q    Type
REMARK                         _______ _______ _______ _____ _____    ______ ____
ROOT
ATOM      1  C   UNL     1      -6.094   3.355 125.818  0.00  0.00    +0.000 C 
ENDROOT
BRANCH   1   2
ATOM      2  C   UNL     1      -5.918   3.405 124.242  0.00  0.00    +0.000 A 
ATOM      3  C   UNL     1      -5.221   4.403 123.530  0.00  0.00    +0.000 A 
ATOM      4  C   UNL     1      -5.194   4.468 122.141  0.00  0.00    +0.000 A 
ATOM      5  C   UNL     1      -5.957   3.583 121.412  0.00  0.00    +0.000 A 
ATOM      6  C   UNL     1      -6.656   2.581 122.073  0.00  0.00    +0.000 A 
ATOM      7  C   UNL     1      -6.530   2.419 123.454  0.00  0.00    +0.000 A 
ENDBRANCH   1   2
BRANCH   1   8
ATOM      8  C   UNL     1      -4.756   3.810 126.575  0.00  0.00    +0.000 A 
ATOM      9  C   UNL     1      -3.476   3.305 126.277  0.00  0.00    +0.000 A 
ATOM     10  C   UNL     1      -2.317   3.723 126.936  0.00  0.00    +0.000 A 
ATOM     11  C   UNL     1      -2.397   4.612 127.991  0.00  0.00    +0.000 A 
ATOM     12  C   UNL     1      -3.634   5.106 128.356  0.00  0.00    +0.000 A 
ATOM     13  C   UNL     1      -4.768   4.766 127.611  0.00  0.00    +0.000 A 
ENDBRANCH   1   8
BRANCH   1  15
ATOM     14  N   UNL     1      -8.231   4.585 125.231  0.00  0.00    +0.000 N 
ATOM     15  C   UNL     1      -7.287   4.324 126.202  0.00  0.00    +0.000 C 
ATOM     16  O   UNL     1      -7.469   4.811 127.304  0.00  0.00    +0.000 OA
ATOM     17  H   UNL     1      -9.109   4.937 125.596  0.00  0.00    +0.000 HD
ATOM     18  H   UNL     1      -8.296   4.033 124.392  0.00  0.00    +0.000 HD
ENDBRANCH   1  15
BRANCH   1  19
ATOM     19  C   UNL     1      -6.422   1.859 126.273  0.00  0.00    +0.000 C 
ATOM     20  C   UNL     1      -7.497   1.713 127.354  0.00  0.00    +0.000 C 
ATOM     21  C   UNL     1      -6.740   1.704 128.639  0.00  0.00    +0.000 C 
ATOM     22  N   UNL     1      -5.641   0.822 128.353  0.00  0.00    +0.000 NA
ATOM     23  C   UNL     1      -5.295   1.034 126.940  0.00  0.00    +0.000 C 
BRANCH  22  24
ATOM     24  C   UNL     1      -6.010  -0.547 128.630  0.00  0.00    +0.000 C 
BRANCH  24  25
ATOM     25  C   UNL     1      -5.479  -1.412 127.487  0.00  0.00    +0.000 C 
BRANCH  25  26
ATOM     26  C   UNL     1      -6.640  -1.858 126.688  0.00  0.00    +0.000 A 
ATOM     27  C   UNL     1      -6.569  -1.883 125.286  0.00  0.00    +0.000 A 
ATOM     28  C   UNL     1      -7.659  -2.380 124.618  0.00  0.00    +0.000 A 
ATOM     29  C   UNL     1      -8.747  -2.875 125.325  0.00  0.00    +0.000 A 
ATOM     30  O   UNL     1      -9.745  -3.351 124.519  0.00  0.00    +0.000 OA
ATOM     31  C   UNL     1      -9.396  -2.832 123.217  0.00  0.00    +0.000 C 
ATOM     32  C   UNL     1      -7.897  -2.531 123.169  0.00  0.00    +0.000 C 
ATOM     33  C   UNL     1      -8.811  -2.882 126.702  0.00  0.00    +0.000 A 
ATOM     34  C   UNL     1      -7.746  -2.346 127.393  0.00  0.00    +0.000 A 
ENDBRANCH  25  26
ENDBRANCH  24  25
ENDBRANCH  22  24
ENDBRANCH   1  19
TORSDOF 7
ENDMDL
