MODEL 1
REMARK VINA RESULT:      -9.6      0.000      0.000
REMARK  Name = Daridorexant
REMARK  7 active torsions:
REMARK  status: ('A' for Active; 'I' for Inactive)
REMARK    1  A    between atoms: C_1  and  O_2
REMARK    2  A    between atoms: O_2  and  C_3
REMARK    3  A    between atoms: C_5  and  C_6
REMARK    4  A    between atoms: C_12  and  C_13
REMARK    5  A    between atoms: C_12  and  C_14
REMARK    6  A    between atoms: C_23  and  C_24
REMARK    7  A    between atoms: C_25  and  N_28
REMARK                            x       y       z     vdW  Elec       q    Type
REMARK                         _______ _______ _______ _____ _____    ______ ____
ROOT
ATOM      1  C   UNL     1      -6.616   4.582 125.466  0.00  0.00    +0.000 C 
ATOM      2  O   UNL     1      -6.702   5.775 125.428  0.00  0.00    +0.000 OA
ATOM      3  N   UNL     1      -6.333   3.803 124.300  0.00  0.00    +0.000 N 
ATOM      4  C   UNL     1      -5.241   4.392 123.502  0.00  0.00    +0.000 C 
ATOM      5  C   UNL     1      -5.538   4.087 122.070  0.00  0.00    +0.000 C 
ATOM      6  C   UNL     1      -6.431   2.809 122.070  0.00  0.00    +0.000 C 
ATOM      7  C   UNL     1      -7.116   2.554 123.536  0.00  0.00    +0.000 C 
ATOM      8  C   UNL     1      -8.582   2.888 123.466  0.00  0.00    +0.000 C 
ENDROOT
BRANCH   7   9
ATOM      9  C   UNL     1      -6.969   0.832 123.989  0.00  0.00    +0.000 A 
ATOM     10  N   UNL     1      -6.835  -0.003 122.982  0.00  0.00    +0.000 NA
ATOM     11  C   UNL     1      -7.025  -1.226 123.410  0.00  0.00    +0.000 A 
ATOM     12  C   UNL     1      -6.349  -1.438 124.600  0.00  0.00    +0.000 A 
ATOM     13  N   UNL     1      -6.963  -0.118 125.147  0.00  0.00    +0.000 N 
ATOM     14  C   UNL     1      -6.327  -2.873 124.811  0.00  0.00    +0.000 A 
ATOM     15  C   UNL     1      -7.404  -3.663 124.278  0.00  0.00    +0.000 A 
ATOM     16  C   UNL     1      -8.472  -3.029 123.655  0.00  0.00    +0.000 A 
ATOM     17 CL   UNL     1      -9.996  -3.772 123.475  0.00  0.00    +0.000 Cl
ATOM     18  C   UNL     1      -8.285  -1.750 123.201  0.00  0.00    +0.000 A 
ATOM     19  C   UNL     1      -9.252  -0.701 122.765  0.00  0.00    +0.000 C 
ATOM     20  H   UNL     1      -7.783  -0.177 125.742  0.00  0.00    +0.000 HD
ENDBRANCH   7   9
BRANCH   1  23
ATOM     21  C   UNL     1      -8.106   3.039 128.598  0.00  0.00    +0.000 A 
ATOM     22  C   UNL     1      -7.868   3.979 127.581  0.00  0.00    +0.000 A 
ATOM     23  C   UNL     1      -6.687   3.922 126.820  0.00  0.00    +0.000 A 
ATOM     24  C   UNL     1      -5.634   3.227 127.375  0.00  0.00    +0.000 A 
ATOM     25  C   UNL     1      -5.966   2.061 128.091  0.00  0.00    +0.000 A 
ATOM     26  C   UNL     1      -7.199   1.994 128.753  0.00  0.00    +0.000 A 
BRANCH  24  27
ATOM     27  N   UNL     1      -4.307   3.528 126.996  0.00  0.00    +0.000 N 
ATOM     28  N   UNL     1      -3.814   4.531 127.656  0.00  0.00    +0.000 NA
ATOM     29  C   UNL     1      -2.526   4.479 127.577  0.00  0.00    +0.000 A 
ATOM     30  C   UNL     1      -2.194   3.492 126.708  0.00  0.00    +0.000 A 
ATOM     31  N   UNL     1      -3.305   2.755 126.461  0.00  0.00    +0.000 NA
ENDBRANCH  24  27
BRANCH  21  33
ATOM     32  C   UNL     1      -9.317   4.022 130.397  0.00  0.00    +0.000 C 
ATOM     33  O   UNL     1      -9.294   3.148 129.266  0.00  0.00    +0.000 OA
ENDBRANCH  21  33
ENDBRANCH   1  23
TORSDOF 4
ENDMDL
MODEL 2
REMARK VINA RESULT:      -9.5      3.729      7.800
REMARK  Name = Daridorexant
REMARK  7 active torsions:
REMARK  status: ('A' for Active; 'I' for Inactive)
REMARK    1  A    between atoms: C_1  and  O_2
REMARK    2  A    between atoms: O_2  and  C_3
REMARK    3  A    between atoms: C_5  and  C_6
REMARK    4  A    between atoms: C_12  and  C_13
REMARK    5  A    between atoms: C_12  and  C_14
REMARK    6  A    between atoms: C_23  and  C_24
REMARK    7  A    between atoms: C_25  and  N_28
REMARK                            x       y       z     vdW  Elec       q    Type
REMARK                         _______ _______ _______ _____ _____    ______ ____
ROOT
ATOM      1  C   UNL     1      -7.982  -1.794 126.332  0.00  0.00    +0.000 C 
ATOM      2  O   UNL     1      -8.869  -2.598 126.365  0.00  0.00    +0.000 OA
ATOM      3  N   UNL     1      -7.579  -1.058 127.490  0.00  0.00    +0.000 N 
ATOM      4  C   UNL     1      -7.468  -1.926 128.678  0.00  0.00    +0.000 C 
ATOM      5  C   UNL     1      -7.855  -1.097 129.858  0.00  0.00    +0.000 C 
ATOM      6  C   UNL     1      -7.580   0.386 129.463  0.00  0.00    +0.000 C 
ATOM      7  C   UNL     1      -7.461   0.562 127.838  0.00  0.00    +0.000 C 
ATOM      8  C   UNL     1      -8.697   1.247 127.319  0.00  0.00    +0.000 C 
ENDROOT
BRANCH   7   9
ATOM      9  C   UNL     1      -6.056   1.589 127.435  0.00  0.00    +0.000 A 
ATOM     10  N   UNL     1      -4.940   1.282 128.058  0.00  0.00    +0.000 NA
ATOM     11  C   UNL     1      -4.080   2.257 127.906  0.00  0.00    +0.000 A 
ATOM     12  C   UNL     1      -4.060   2.691 126.591  0.00  0.00    +0.000 A 
ATOM     13  N   UNL     1      -5.613   2.770 126.626  0.00  0.00    +0.000 N 
ATOM     14  C   UNL     1      -2.869   3.504 126.443  0.00  0.00    +0.000 A 
ATOM     15  C   UNL     1      -2.373   4.212 127.593  0.00  0.00    +0.000 A 
ATOM     16  C   UNL     1      -3.089   4.170 128.782  0.00  0.00    +0.000 A 
ATOM     17 CL   UNL     1      -2.909   5.349 130.001  0.00  0.00    +0.000 Cl
ATOM     18  C   UNL     1      -3.990   3.152 128.954  0.00  0.00    +0.000 A 
ATOM     19  C   UNL     1      -5.098   2.963 129.936  0.00  0.00    +0.000 C 
ATOM     20  H   UNL     1      -6.047   3.672 126.790  0.00  0.00    +0.000 HD
ENDBRANCH   7   9
BRANCH   1  23
ATOM     21  C   UNL     1      -5.431  -2.565 123.628  0.00  0.00    +0.000 A 
ATOM     22  C   UNL     1      -5.953  -2.297 124.905  0.00  0.00    +0.000 A 
ATOM     23  C   UNL     1      -7.203  -1.670 125.047  0.00  0.00    +0.000 A 
ATOM     24  C   UNL     1      -7.663  -0.967 123.953  0.00  0.00    +0.000 A 
ATOM     25  C   UNL     1      -7.392  -1.529 122.692  0.00  0.00    +0.000 A 
ATOM     26  C   UNL     1      -6.230  -2.295 122.521  0.00  0.00    +0.000 A 
BRANCH  24  27
ATOM     27  N   UNL     1      -8.582   0.091 124.126  0.00  0.00    +0.000 N 
ATOM     28  N   UNL     1      -8.071   1.250 123.843  0.00  0.00    +0.000 NA
ATOM     29  C   UNL     1      -9.035   2.078 123.614  0.00  0.00    +0.000 A 
ATOM     30  C   UNL     1     -10.205   1.459 123.911  0.00  0.00    +0.000 A 
ATOM     31  N   UNL     1      -9.954   0.136 124.070  0.00  0.00    +0.000 NA
ENDBRANCH  24  27
BRANCH  21  33
ATOM     32  C   UNL     1      -4.259  -4.637 123.565  0.00  0.00    +0.000 C 
ATOM     33  O   UNL     1      -4.225  -3.208 123.583  0.00  0.00    +0.000 OA
ENDBRANCH  21  33
ENDBRANCH   1  23
TORSDOF 4
ENDMDL
MODEL 3
REMARK VINA RESULT:      -9.1      2.912      5.551
REMARK  Name = Daridorexant
REMARK  7 active torsions:
REMARK  status: ('A' for Active; 'I' for Inactive)
REMARK    1  A    between atoms: C_1  and  O_2
REMARK    2  A    between atoms: O_2  and  C_3
REMARK    3  A    between atoms: C_5  and  C_6
REMARK    4  A    between atoms: C_12  and  C_13
REMARK    5  A    between atoms: C_12  and  C_14
REMARK    6  A    between atoms: C_23  and  C_24
REMARK    7  A    between atoms: C_25  and  N_28
REMARK                            x       y       z     vdW  Elec       q    Type
REMARK                         _______ _______ _______ _____ _____    ______ ____
ROOT
ATOM      1  C   UNL     1      -6.056   0.593 130.003  0.00  0.00    +0.000 C 
ATOM      2  O   UNL     1      -5.905   0.885 131.154  0.00  0.00    +0.000 OA
ATOM      3  N   UNL     1      -6.544  -0.690 129.601  0.00  0.00    +0.000 N 
ATOM      4  C   UNL     1      -7.700  -1.113 130.415  0.00  0.00    +0.000 C 
ATOM      5  C   UNL     1      -7.624  -2.600 130.534  0.00  0.00    +0.000 C 
ATOM      6  C   UNL     1      -6.817  -3.099 129.297  0.00  0.00    +0.000 C 
ATOM      7  C   UNL     1      -5.950  -1.888 128.616  0.00  0.00    +0.000 C 
ATOM      8  C   UNL     1      -4.491  -2.078 128.932  0.00  0.00    +0.000 C 
ENDROOT
BRANCH   7   9
ATOM      9  C   UNL     1      -6.135  -1.927 126.840  0.00  0.00    +0.000 A 
ATOM     10  N   UNL     1      -7.045  -1.113 126.352  0.00  0.00    +0.000 NA
ATOM     11  C   UNL     1      -7.285  -1.434 125.106  0.00  0.00    +0.000 A 
ATOM     12  C   UNL     1      -6.102  -1.664 124.423  0.00  0.00    +0.000 A 
ATOM     13  N   UNL     1      -5.647  -2.589 125.587  0.00  0.00    +0.000 N 
ATOM     14  C   UNL     1      -6.435  -1.667 123.011  0.00  0.00    +0.000 A 
ATOM     15  C   UNL     1      -7.754  -2.085 122.617  0.00  0.00    +0.000 A 
ATOM     16  C   UNL     1      -8.639  -2.552 123.581  0.00  0.00    +0.000 A 
ATOM     17 CL   UNL     1      -9.973  -3.540 123.194  0.00  0.00    +0.000 Cl
ATOM     18  C   UNL     1      -8.399  -2.220 124.888  0.00  0.00    +0.000 A 
ATOM     19  C   UNL     1      -8.947  -2.764 126.166  0.00  0.00    +0.000 C 
ATOM     20  H   UNL     1      -5.762  -3.591 125.480  0.00  0.00    +0.000 HD
ENDBRANCH   7   9
BRANCH   1  23
ATOM     21  C   UNL     1      -4.468   2.509 127.136  0.00  0.00    +0.000 A 
ATOM     22  C   UNL     1      -4.581   1.835 128.364  0.00  0.00    +0.000 A 
ATOM     23  C   UNL     1      -5.836   1.676 128.977  0.00  0.00    +0.000 A 
ATOM     24  C   UNL     1      -6.828   2.545 128.574  0.00  0.00    +0.000 A 
ATOM     25  C   UNL     1      -6.844   2.881 127.207  0.00  0.00    +0.000 A 
ATOM     26  C   UNL     1      -5.636   2.912 126.497  0.00  0.00    +0.000 A 
BRANCH  24  27
ATOM     27  N   UNL     1      -7.908   2.837 129.436  0.00  0.00    +0.000 N 
ATOM     28  N   UNL     1      -7.611   3.734 130.325  0.00  0.00    +0.000 NA
ATOM     29  C   UNL     1      -8.708   4.243 130.776  0.00  0.00    +0.000 A 
ATOM     30  C   UNL     1      -9.746   3.536 130.264  0.00  0.00    +0.000 A 
ATOM     31  N   UNL     1      -9.269   2.747 129.268  0.00  0.00    +0.000 NA
ENDBRANCH  24  27
BRANCH  21  33
ATOM     32  C   UNL     1      -2.261   3.387 127.299  0.00  0.00    +0.000 C 
ATOM     33  O   UNL     1      -3.214   2.588 126.595  0.00  0.00    +0.000 OA
ENDBRANCH  21  33
ENDBRANCH   1  23
TORSDOF 4
ENDMDL
MODEL 4
REMARK VINA RESULT:      -9.1      1.718      4.159
REMARK  Name = Daridorexant
REMARK  7 active torsions:
REMARK  status: ('A' for Active; 'I' for Inactive)
REMARK    1  A    between atoms: C_1  and  O_2
REMARK    2  A    between atoms: O_2  and  C_3
REMARK    3  A    between atoms: C_5  and  C_6
REMARK    4  A    between atoms: C_12  and  C_13
REMARK    5  A    between atoms: C_12  and  C_14
REMARK    6  A    between atoms: C_23  and  C_24
REMARK    7  A    between atoms: C_25  and  N_28
REMARK                            x       y       z     vdW  Elec       q    Type
REMARK                         _______ _______ _______ _____ _____    ______ ____
ROOT
ATOM      1  C   UNL     1      -6.920   3.429 127.474  0.00  0.00    +0.000 C 
ATOM      2  O   UNL     1      -7.009   4.501 128.000  0.00  0.00    +0.000 OA
ATOM      3  N   UNL     1      -7.311   2.223 128.135  0.00  0.00    +0.000 N 
ATOM      4  C   UNL     1      -8.608   2.374 128.823  0.00  0.00    +0.000 C 
ATOM      5  C   UNL     1      -8.553   1.514 130.043  0.00  0.00    +0.000 C 
ATOM      6  C   UNL     1      -7.509   0.395 129.746  0.00  0.00    +0.000 C 
ATOM      7  C   UNL     1      -6.525   0.807 128.502  0.00  0.00    +0.000 C 
ATOM      8  C   UNL     1      -5.160   1.151 129.038  0.00  0.00    +0.000 C 
ENDROOT
BRANCH   7   9
ATOM      9  C   UNL     1      -6.341  -0.574 127.384  0.00  0.00    +0.000 A 
ATOM     10  N   UNL     1      -6.417  -0.274 126.106  0.00  0.00    +0.000 NA
ATOM     11  C   UNL     1      -6.557  -1.376 125.413  0.00  0.00    +0.000 A 
ATOM     12  C   UNL     1      -5.679  -2.350 125.861  0.00  0.00    +0.000 A 
ATOM     13  N   UNL     1      -6.147  -2.058 127.315  0.00  0.00    +0.000 N 
ATOM     14  C   UNL     1      -5.656  -3.383 124.844  0.00  0.00    +0.000 A 
ATOM     15  C   UNL     1      -6.833  -3.585 124.043  0.00  0.00    +0.000 A 
ATOM     16  C   UNL     1      -7.981  -2.853 124.318  0.00  0.00    +0.000 A 
ATOM     17 CL   UNL     1      -9.531  -3.362 123.823  0.00  0.00    +0.000 Cl
ATOM     18  C   UNL     1      -7.847  -1.696 125.040  0.00  0.00    +0.000 A 
ATOM     19  C   UNL     1      -8.851  -0.844 125.743  0.00  0.00    +0.000 C 
ATOM     20  H   UNL     1      -6.843  -2.667 127.730  0.00  0.00    +0.000 HD
ENDBRANCH   7   9
BRANCH   1  23
ATOM     21  C   UNL     1      -7.192   3.289 123.690  0.00  0.00    +0.000 A 
ATOM     22  C   UNL     1      -7.378   2.929 125.035  0.00  0.00    +0.000 A 
ATOM     23  C   UNL     1      -6.498   3.398 126.027  0.00  0.00    +0.000 A 
ATOM     24  C   UNL     1      -5.262   3.829 125.594  0.00  0.00    +0.000 A 
ATOM     25  C   UNL     1      -5.238   4.520 124.368  0.00  0.00    +0.000 A 
ATOM     26  C   UNL     1      -6.188   4.204 123.387  0.00  0.00    +0.000 A 
BRANCH  24  27
ATOM     27  N   UNL     1      -4.157   3.815 126.474  0.00  0.00    +0.000 N 
ATOM     28  N   UNL     1      -3.380   2.794 126.285  0.00  0.00    +0.000 NA
ATOM     29  C   UNL     1      -2.225   3.058 126.796  0.00  0.00    +0.000 A 
ATOM     30  C   UNL     1      -2.317   4.233 127.469  0.00  0.00    +0.000 A 
ATOM     31  N   UNL     1      -3.491   4.822 127.130  0.00  0.00    +0.000 NA
ENDBRANCH  24  27
BRANCH  21  33
ATOM     32  C   UNL     1      -9.204   2.066 123.338  0.00  0.00    +0.000 C 
ATOM     33  O   UNL     1      -8.113   2.816 122.798  0.00  0.00    +0.000 OA
ENDBRANCH  21  33
ENDBRANCH   1  23
TORSDOF 4
ENDMDL
MODEL 5
REMARK VINA RESULT:      -8.8      5.121      7.965
REMARK  Name = Daridorexant
REMARK  7 active torsions:
REMARK  status: ('A' for Active; 'I' for Inactive)
REMARK    1  A    between atoms: C_1  and  O_2
REMARK    2  A    between atoms: O_2  and  C_3
REMARK    3  A    between atoms: C_5  and  C_6
REMARK    4  A    between atoms: C_12  and  C_13
REMARK    5  A    between atoms: C_12  and  C_14
REMARK    6  A    between atoms: C_23  and  C_24
REMARK    7  A    between atoms: C_25  and  N_28
REMARK                            x       y       z     vdW  Elec       q    Type
REMARK                         _______ _______ _______ _____ _____    ______ ____
ROOT
ATOM      1  C   UNL     1      -8.133   3.915 133.105  0.00  0.00    +0.000 C 
ATOM      2  O   UNL     1      -8.812   3.947 134.090  0.00  0.00    +0.000 OA
ATOM      3  N   UNL     1      -8.141   2.799 132.211  0.00  0.00    +0.000 N 
ATOM      4  C   UNL     1      -9.514   2.338 131.927  0.00  0.00    +0.000 C 
ATOM      5  C   UNL     1      -9.443   0.859 131.735  0.00  0.00    +0.000 C 
ATOM      6  C   UNL     1      -7.985   0.544 131.281  0.00  0.00    +0.000 C 
ATOM      7  C   UNL     1      -6.965   1.775 131.640  0.00  0.00    +0.000 C 
ATOM      8  C   UNL     1      -6.087   1.375 132.795  0.00  0.00    +0.000 C 
ENDROOT
BRANCH   7   9
ATOM      9  C   UNL     1      -5.907   2.120 130.243  0.00  0.00    +0.000 A 
ATOM     10  N   UNL     1      -5.528   3.374 130.123  0.00  0.00    +0.000 NA
ATOM     11  C   UNL     1      -5.011   3.555 128.934  0.00  0.00    +0.000 A 
ATOM     12  C   UNL     1      -4.147   2.520 128.613  0.00  0.00    +0.000 A 
ATOM     13  N   UNL     1      -5.248   1.511 129.043  0.00  0.00    +0.000 N 
ATOM     14  C   UNL     1      -3.377   2.967 127.469  0.00  0.00    +0.000 A 
ATOM     15  C   UNL     1      -3.979   3.902 126.557  0.00  0.00    +0.000 A 
ATOM     16  C   UNL     1      -5.301   4.283 126.745  0.00  0.00    +0.000 A 
ATOM     17 CL   UNL     1      -6.254   4.929 125.487  0.00  0.00    +0.000 Cl
ATOM     18  C   UNL     1      -5.853   4.101 127.986  0.00  0.00    +0.000 A 
ATOM     19  C   UNL     1      -7.269   4.122 128.454  0.00  0.00    +0.000 C 
ATOM     20  H   UNL     1      -5.825   1.090 128.323  0.00  0.00    +0.000 HD
ENDBRANCH   7   9
BRANCH   1  23
ATOM     21  C   UNL     1      -5.170   6.250 132.671  0.00  0.00    +0.000 A 
ATOM     22  C   UNL     1      -6.068   5.367 133.295  0.00  0.00    +0.000 A 
ATOM     23  C   UNL     1      -7.351   5.157 132.759  0.00  0.00    +0.000 A 
ATOM     24  C   UNL     1      -7.824   6.132 131.907  0.00  0.00    +0.000 A 
ATOM     25  C   UNL     1      -6.880   6.716 131.042  0.00  0.00    +0.000 A 
ATOM     26  C   UNL     1      -5.545   6.820 131.459  0.00  0.00    +0.000 A 
BRANCH  24  27
ATOM     27  N   UNL     1      -9.215   6.311 131.737  0.00  0.00    +0.000 N 
ATOM     28  N   UNL     1      -9.659   5.776 130.642  0.00  0.00    +0.000 NA
ATOM     29  C   UNL     1     -10.933   5.606 130.756  0.00  0.00    +0.000 A 
ATOM     30  C   UNL     1     -11.338   6.194 131.909  0.00  0.00    +0.000 A 
ATOM     31  N   UNL     1     -10.235   6.496 132.639  0.00  0.00    +0.000 NA
ENDBRANCH  24  27
BRANCH  21  33
ATOM     32  C   UNL     1      -3.022   7.275 132.616  0.00  0.00    +0.000 C 
ATOM     33  O   UNL     1      -3.933   6.368 133.241  0.00  0.00    +0.000 OA
ENDBRANCH  21  33
ENDBRANCH   1  23
TORSDOF 4
ENDMDL
MODEL 6
REMARK VINA RESULT:      -8.8      3.216      6.043
REMARK  Name = Daridorexant
REMARK  7 active torsions:
REMARK  status: ('A' for Active; 'I' for Inactive)
REMARK    1  A    between atoms: C_1  and  O_2
REMARK    2  A    between atoms: O_2  and  C_3
REMARK    3  A    between atoms: C_5  and  C_6
REMARK    4  A    between atoms: C_12  and  C_13
REMARK    5  A    between atoms: C_12  and  C_14
REMARK    6  A    between atoms: C_23  and  C_24
REMARK    7  A    between atoms: C_25  and  N_28
REMARK                            x       y       z     vdW  Elec       q    Type
REMARK                         _______ _______ _______ _____ _____    ______ ____
ROOT
ATOM      1  C   UNL     1      -5.279   0.940 127.458  0.00  0.00    +0.000 C 
ATOM      2  O   UNL     1      -4.777   0.646 128.504  0.00  0.00    +0.000 OA
ATOM      3  N   UNL     1      -4.964   2.159 126.779  0.00  0.00    +0.000 N 
ATOM      4  C   UNL     1      -3.511   2.415 126.764  0.00  0.00    +0.000 C 
ATOM      5  C   UNL     1      -3.332   3.897 126.823  0.00  0.00    +0.000 C 
ATOM      6  C   UNL     1      -4.637   4.520 126.241  0.00  0.00    +0.000 C 
ATOM      7  C   UNL     1      -5.871   3.442 126.243  0.00  0.00    +0.000 C 
ATOM      8  C   UNL     1      -6.853   3.810 127.323  0.00  0.00    +0.000 C 
ENDROOT
BRANCH   7   9
ATOM      9  C   UNL     1      -6.733   3.495 124.679  0.00  0.00    +0.000 A 
ATOM     10  N   UNL     1      -6.241   2.716 123.741  0.00  0.00    +0.000 NA
ATOM     11  C   UNL     1      -6.762   3.049 122.587  0.00  0.00    +0.000 A 
ATOM     12  C   UNL     1      -8.129   3.240 122.705  0.00  0.00    +0.000 A 
ATOM     13  N   UNL     1      -7.865   4.144 123.942  0.00  0.00    +0.000 N 
ATOM     14  C   UNL     1      -8.659   3.260 121.356  0.00  0.00    +0.000 A 
ATOM     15  C   UNL     1      -7.812   3.726 120.291  0.00  0.00    +0.000 A 
ATOM     16  C   UNL     1      -6.549   4.220 120.590  0.00  0.00    +0.000 A 
ATOM     17 CL   UNL     1      -5.700   5.257 119.535  0.00  0.00    +0.000 Cl
ATOM     18  C   UNL     1      -5.992   3.876 121.793  0.00  0.00    +0.000 A 
ATOM     19  C   UNL     1      -4.829   4.434 122.544  0.00  0.00    +0.000 C 
ATOM     20  H   UNL     1      -7.858   5.150 123.813  0.00  0.00    +0.000 HD
ENDBRANCH   7   9
BRANCH   1  23
ATOM     21  C   UNL     1      -6.451  -1.704 124.999  0.00  0.00    +0.000 A 
ATOM     22  C   UNL     1      -5.944  -0.483 125.473  0.00  0.00    +0.000 A 
ATOM     23  C   UNL     1      -6.170  -0.084 126.802  0.00  0.00    +0.000 A 
ATOM     24  C   UNL     1      -7.225  -0.690 127.452  0.00  0.00    +0.000 A 
ATOM     25  C   UNL     1      -7.428  -2.055 127.171  0.00  0.00    +0.000 A 
ATOM     26  C   UNL     1      -7.082  -2.550 125.906  0.00  0.00    +0.000 A 
BRANCH  24  27
ATOM     27  N   UNL     1      -7.862  -0.039 128.530  0.00  0.00    +0.000 N 
ATOM     28  N   UNL     1      -7.620  -0.606 129.672  0.00  0.00    +0.000 NA
ATOM     29  C   UNL     1      -7.862   0.245 130.612  0.00  0.00    +0.000 A 
ATOM     30  C   UNL     1      -8.423   1.346 130.053  0.00  0.00    +0.000 A 
ATOM     31  N   UNL     1      -8.271   1.261 128.708  0.00  0.00    +0.000 NA
ENDBRANCH  24  27
BRANCH  21  33
ATOM     32  C   UNL     1      -7.035  -1.520 122.698  0.00  0.00    +0.000 C 
ATOM     33  O   UNL     1      -6.155  -2.028 123.704  0.00  0.00    +0.000 OA
ENDBRANCH  21  33
ENDBRANCH   1  23
TORSDOF 4
ENDMDL
MODEL 7
REMARK VINA RESULT:      -8.6      3.151      5.872
REMARK  Name = Daridorexant
REMARK  7 active torsions:
REMARK  status: ('A' for Active; 'I' for Inactive)
REMARK    1  A    between atoms: C_1  and  O_2
REMARK    2  A    between atoms: O_2  and  C_3
REMARK    3  A    between atoms: C_5  and  C_6
REMARK    4  A    between atoms: C_12  and  C_13
REMARK    5  A    between atoms: C_12  and  C_14
REMARK    6  A    between atoms: C_23  and  C_24
REMARK    7  A    between atoms: C_25  and  N_28
REMARK                            x       y       z     vdW  Elec       q    Type
REMARK                         _______ _______ _______ _____ _____    ______ ____
ROOT
ATOM      1  C   UNL     1      -6.382   3.763 131.401  0.00  0.00    +0.000 C 
ATOM      2  O   UNL     1      -6.366   3.671 132.594  0.00  0.00    +0.000 OA
ATOM      3  N   UNL     1      -5.729   2.812 130.555  0.00  0.00    +0.000 N 
ATOM      4  C   UNL     1      -5.996   1.426 130.987  0.00  0.00    +0.000 C 
ATOM      5  C   UNL     1      -4.772   0.631 130.671  0.00  0.00    +0.000 C 
ATOM      6  C   UNL     1      -4.052   1.376 129.506  0.00  0.00    +0.000 C 
ATOM      7  C   UNL     1      -4.561   2.929 129.380  0.00  0.00    +0.000 C 
ATOM      8  C   UNL     1      -3.481   3.850 129.880  0.00  0.00    +0.000 C 
ENDROOT
BRANCH   7   9
ATOM      9  C   UNL     1      -4.877   3.333 127.670  0.00  0.00    +0.000 A 
ATOM     10  N   UNL     1      -6.146   3.445 127.345  0.00  0.00    +0.000 NA
ATOM     11  C   UNL     1      -6.258   3.455 126.041  0.00  0.00    +0.000 A 
ATOM     12  C   UNL     1      -5.306   4.288 125.475  0.00  0.00    +0.000 A 
ATOM     13  N   UNL     1      -4.223   3.591 126.346  0.00  0.00    +0.000 N 
ATOM     14  C   UNL     1      -5.714   4.506 124.101  0.00  0.00    +0.000 A 
ATOM     15  C   UNL     1      -6.464   3.475 123.435  0.00  0.00    +0.000 A 
ATOM     16  C   UNL     1      -6.701   2.273 124.088  0.00  0.00    +0.000 A 
ATOM     17 CL   UNL     1      -7.084   0.838 123.251  0.00  0.00    +0.000 Cl
ATOM     18  C   UNL     1      -6.591   2.251 125.453  0.00  0.00    +0.000 A 
ATOM     19  C   UNL     1      -6.491   1.120 126.422  0.00  0.00    +0.000 C 
ATOM     20  H   UNL     1      -3.660   2.861 125.923  0.00  0.00    +0.000 HD
ENDBRANCH   7   9
BRANCH   1  23
ATOM     21  C   UNL     1      -9.441   5.553 130.041  0.00  0.00    +0.000 A 
ATOM     22  C   UNL     1      -8.466   4.555 130.202  0.00  0.00    +0.000 A 
ATOM     23  C   UNL     1      -7.229   4.856 130.799  0.00  0.00    +0.000 A 
ATOM     24  C   UNL     1      -6.862   6.185 130.809  0.00  0.00    +0.000 A 
ATOM     25  C   UNL     1      -7.896   7.115 131.024  0.00  0.00    +0.000 A 
ATOM     26  C   UNL     1      -9.192   6.810 130.585  0.00  0.00    +0.000 A 
BRANCH  24  27
ATOM     27  N   UNL     1      -5.498   6.543 130.879  0.00  0.00    +0.000 N 
ATOM     28  N   UNL     1      -5.087   7.161 129.815  0.00  0.00    +0.000 NA
ATOM     29  C   UNL     1      -4.010   7.810 130.108  0.00  0.00    +0.000 A 
ATOM     30  C   UNL     1      -3.639   7.469 131.368  0.00  0.00    +0.000 A 
ATOM     31  N   UNL     1      -4.668   6.800 131.944  0.00  0.00    +0.000 NA
ENDBRANCH  24  27
BRANCH  21  33
ATOM     32  C   UNL     1     -11.787   5.915 129.851  0.00  0.00    +0.000 C 
ATOM     33  O   UNL     1     -10.627   5.165 129.482  0.00  0.00    +0.000 OA
ENDBRANCH  21  33
ENDBRANCH   1  23
TORSDOF 4
ENDMDL
MODEL 8
REMARK VINA RESULT:      -8.6      4.032      7.070
REMARK  Name = Daridorexant
REMARK  7 active torsions:
REMARK  status: ('A' for Active; 'I' for Inactive)
REMARK    1  A    between atoms: C_1  and  O_2
REMARK    2  A    between atoms: O_2  and  C_3
REMARK    3  A    between atoms: C_5  and  C_6
REMARK    4  A    between atoms: C_12  and  C_13
REMARK    5  A    between atoms: C_12  and  C_14
REMARK    6  A    between atoms: C_23  and  C_24
REMARK    7  A    between atoms: C_25  and  N_28
REMARK                            x       y       z     vdW  Elec       q    Type
REMARK                         _______ _______ _______ _____ _____    ______ ____
ROOT
ATOM      1  C   UNL     1      -5.776   5.739 132.428  0.00  0.00    +0.000 C 
ATOM      2  O   UNL     1      -5.760   6.094 133.571  0.00  0.00    +0.000 OA
ATOM      3  N   UNL     1      -4.585   5.366 131.730  0.00  0.00    +0.000 N 
ATOM      4  C   UNL     1      -3.725   4.489 132.548  0.00  0.00    +0.000 C 
ATOM      5  C   UNL     1      -2.312   4.804 132.181  0.00  0.00    +0.000 C 
ATOM      6  C   UNL     1      -2.353   5.385 130.735  0.00  0.00    +0.000 C 
ATOM      7  C   UNL     1      -3.857   5.897 130.335  0.00  0.00    +0.000 C 
ATOM      8  C   UNL     1      -3.887   7.402 130.331  0.00  0.00    +0.000 C 
ENDROOT
BRANCH   7   9
ATOM      9  C   UNL     1      -4.277   5.337 128.692  0.00  0.00    +0.000 A 
ATOM     10  N   UNL     1      -5.471   4.799 128.572  0.00  0.00    +0.000 NA
ATOM     11  C   UNL     1      -5.550   4.180 127.421  0.00  0.00    +0.000 A 
ATOM     12  C   UNL     1      -5.020   4.962 126.407  0.00  0.00    +0.000 A 
ATOM     13  N   UNL     1      -3.763   5.201 127.291  0.00  0.00    +0.000 N 
ATOM     14  C   UNL     1      -5.454   4.367 125.158  0.00  0.00    +0.000 A 
ATOM     15  C   UNL     1      -5.693   2.949 125.119  0.00  0.00    +0.000 A 
ATOM     16  C   UNL     1      -5.421   2.180 126.242  0.00  0.00    +0.000 A 
ATOM     17 CL   UNL     1      -5.155   0.498 126.156  0.00  0.00    +0.000 Cl
ATOM     18  C   UNL     1      -5.339   2.816 127.453  0.00  0.00    +0.000 A 
ATOM     19  C   UNL     1      -4.797   2.374 128.771  0.00  0.00    +0.000 C 
ATOM     20  H   UNL     1      -2.939   4.636 127.120  0.00  0.00    +0.000 HD
ENDBRANCH   7   9
BRANCH   1  23
ATOM     21  C   UNL     1      -8.826   6.530 130.310  0.00  0.00    +0.000 A 
ATOM     22  C   UNL     1      -7.824   6.687 131.283  0.00  0.00    +0.000 A 
ATOM     23  C   UNL     1      -7.123   5.571 131.772  0.00  0.00    +0.000 A 
ATOM     24  C   UNL     1      -7.729   4.345 131.601  0.00  0.00    +0.000 A 
ATOM     25  C   UNL     1      -8.426   4.158 130.392  0.00  0.00    +0.000 A 
ATOM     26  C   UNL     1      -9.024   5.262 129.770  0.00  0.00    +0.000 A 
BRANCH  24  27
ATOM     27  N   UNL     1      -7.419   3.273 132.466  0.00  0.00    +0.000 N 
ATOM     28  N   UNL     1      -6.660   2.381 131.908  0.00  0.00    +0.000 NA
ATOM     29  C   UNL     1      -6.089   1.690 132.836  0.00  0.00    +0.000 A 
ATOM     30  C   UNL     1      -6.622   2.057 134.028  0.00  0.00    +0.000 A 
ATOM     31  N   UNL     1      -7.344   3.189 133.836  0.00  0.00    +0.000 NA
ENDBRANCH  24  27
BRANCH  21  33
ATOM     32  C   UNL     1     -10.448   7.515 128.872  0.00  0.00    +0.000 C 
ATOM     33  O   UNL     1      -9.433   7.672 129.867  0.00  0.00    +0.000 OA
ENDBRANCH  21  33
ENDBRANCH   1  23
TORSDOF 4
ENDMDL
MODEL 9
REMARK VINA RESULT:      -8.6      3.081      4.863
REMARK  Name = Daridorexant
REMARK  7 active torsions:
REMARK  status: ('A' for Active; 'I' for Inactive)
REMARK    1  A    between atoms: C_1  and  O_2
REMARK    2  A    between atoms: O_2  and  C_3
REMARK    3  A    between atoms: C_5  and  C_6
REMARK    4  A    between atoms: C_12  and  C_13
REMARK    5  A    between atoms: C_12  and  C_14
REMARK    6  A    between atoms: C_23  and  C_24
REMARK    7  A    between atoms: C_25  and  N_28
REMARK                            x       y       z     vdW  Elec       q    Type
REMARK                         _______ _______ _______ _____ _____    ______ ____
ROOT
ATOM      1  C   UNL     1      -6.833   2.733 129.378  0.00  0.00    +0.000 C 
ATOM      2  O   UNL     1      -6.512   3.689 130.023  0.00  0.00    +0.000 OA
ATOM      3  N   UNL     1      -6.248   2.443 128.105  0.00  0.00    +0.000 N 
ATOM      4  C   UNL     1      -4.781   2.602 128.130  0.00  0.00    +0.000 C 
ATOM      5  C   UNL     1      -4.375   3.082 126.775  0.00  0.00    +0.000 C 
ATOM      6  C   UNL     1      -5.485   2.605 125.789  0.00  0.00    +0.000 C 
ATOM      7  C   UNL     1      -6.868   2.221 126.580  0.00  0.00    +0.000 C 
ATOM      8  C   UNL     1      -7.899   3.289 126.330  0.00  0.00    +0.000 C 
ENDROOT
BRANCH   7   9
ATOM      9  C   UNL     1      -7.518   0.677 125.962  0.00  0.00    +0.000 A 
ATOM     10  N   UNL     1      -7.240  -0.380 126.691  0.00  0.00    +0.000 NA
ATOM     11  C   UNL     1      -7.513  -1.461 126.004  0.00  0.00    +0.000 A 
ATOM     12  C   UNL     1      -8.738  -1.341 125.370  0.00  0.00    +0.000 A 
ATOM     13  N   UNL     1      -8.293   0.052 124.842  0.00  0.00    +0.000 N 
ATOM     14  C   UNL     1      -9.109  -2.673 124.934  0.00  0.00    +0.000 A 
ATOM     15  C   UNL     1      -8.063  -3.609 124.620  0.00  0.00    +0.000 A 
ATOM     16  C   UNL     1      -6.739  -3.192 124.658  0.00  0.00    +0.000 A 
ATOM     17 CL   UNL     1      -5.499  -4.009 123.821  0.00  0.00    +0.000 Cl
ATOM     18  C   UNL     1      -6.441  -2.065 125.377  0.00  0.00    +0.000 A 
ATOM     19  C   UNL     1      -5.229  -1.194 125.399  0.00  0.00    +0.000 C 
ATOM     20  H   UNL     1      -7.933   0.118 123.896  0.00  0.00    +0.000 HD
ENDBRANCH   7   9
BRANCH   1  23
ATOM     21  C   UNL     1      -8.229  -0.547 130.684  0.00  0.00    +0.000 A 
ATOM     22  C   UNL     1      -7.656   0.376 129.792  0.00  0.00    +0.000 A 
ATOM     23  C   UNL     1      -7.793   1.758 130.011  0.00  0.00    +0.000 A 
ATOM     24  C   UNL     1      -8.828   2.147 130.835  0.00  0.00    +0.000 A 
ATOM     25  C   UNL     1      -9.091   1.316 131.940  0.00  0.00    +0.000 A 
ATOM     26  C   UNL     1      -8.834  -0.058 131.838  0.00  0.00    +0.000 A 
BRANCH  24  27
ATOM     27  N   UNL     1      -9.381   3.441 130.714  0.00  0.00    +0.000 N 
ATOM     28  N   UNL     1     -10.487   3.452 130.035  0.00  0.00    +0.000 NA
ATOM     29  C   UNL     1     -11.131   4.533 130.318  0.00  0.00    +0.000 A 
ATOM     30  C   UNL     1     -10.334   5.312 131.092  0.00  0.00    +0.000 A 
ATOM     31  N   UNL     1      -9.283   4.561 131.505  0.00  0.00    +0.000 NA
ENDBRANCH  24  27
BRANCH  21  33
ATOM     32  C   UNL     1      -6.749  -2.217 129.852  0.00  0.00    +0.000 C 
ATOM     33  O   UNL     1      -8.018  -1.871 130.413  0.00  0.00    +0.000 OA
ENDBRANCH  21  33
ENDBRANCH   1  23
TORSDOF 4
ENDMDL
