MODEL 1
REMARK VINA RESULT:      -8.1      0.000      0.000
REMARK  Name = Darolutamide
REMARK  10 active torsions:
REMARK  status: ('A' for Active; 'I' for Inactive)
REMARK    1  A    between atoms: C_1  and  C_2
REMARK    2  A    between atoms: C_2  and  C_3
REMARK    3  A    between atoms: C_2  and  N_18
REMARK    4  A    between atoms: C_3  and  N_4
REMARK    5  A    between atoms: C_7  and  C_9
REMARK    6  A    between atoms: C_12  and  C_13
REMARK    7  A    between atoms: C_19  and  C_21
REMARK    8  A    between atoms: C_24  and  C_26
REMARK    9  A    between atoms: C_26  and  C_27
REMARK   10  A    between atoms: C_26  and  O_28
REMARK                            x       y       z     vdW  Elec       q    Type
REMARK                         _______ _______ _______ _____ _____    ______ ____
ROOT
ATOM      1  C   UNL     1     -10.150  -0.065 122.513  0.00  0.00    +0.000 C 
ATOM      2  C   UNL     1      -9.177   0.078 123.695  0.00  0.00    +0.000 C 
ENDROOT
BRANCH   2   3
ATOM      3  N   UNL     1      -8.012   0.957 123.224  0.00  0.00    +0.000 N 
ATOM      4  C   UNL     1      -7.952   2.330 123.489  0.00  0.00    +0.000 C 
ATOM      5  O   UNL     1      -8.831   2.858 124.167  0.00  0.00    +0.000 OA
ATOM      6  H   UNL     1      -7.282   0.566 122.632  0.00  0.00    +0.000 HD
BRANCH   4   7
ATOM      7  C   UNL     1      -6.813   3.126 122.940  0.00  0.00    +0.000 A 
ATOM      8  N   UNL     1      -6.005   3.850 123.746  0.00  0.00    +0.000 NA
ATOM      9  N   UNL     1      -5.223   4.567 122.921  0.00  0.00    +0.000 N 
ATOM     10  C   UNL     1      -5.445   4.306 121.595  0.00  0.00    +0.000 A 
ATOM     11  C   UNL     1      -6.455   3.359 121.585  0.00  0.00    +0.000 A 
ATOM     12  H   UNL     1      -4.558   5.218 123.334  0.00  0.00    +0.000 HD
BRANCH  10  13
ATOM     13  C   UNL     1      -4.710   5.005 120.502  0.00  0.00    +0.000 C 
ATOM     14  C   UNL     1      -5.630   5.410 119.360  0.00  0.00    +0.000 C 
BRANCH  13  15
ATOM     15  O   UNL     1      -4.138   6.177 121.070  0.00  0.00    +0.000 OA
ATOM     16  H   UNL     1      -3.459   6.494 120.453  0.00  0.00    +0.000 HD
ENDBRANCH  13  15
ENDBRANCH  10  13
ENDBRANCH   4   7
ENDBRANCH   2   3
BRANCH   2  17
ATOM     17  C   UNL     1      -8.738  -1.357 124.301  0.00  0.00    +0.000 C 
BRANCH  17  18
ATOM     18  N   UNL     1      -8.549  -1.718 125.780  0.00  0.00    +0.000 N 
ATOM     19  C   UNL     1      -7.966  -2.971 126.065  0.00  0.00    +0.000 A 
ATOM     20  C   UNL     1      -8.485  -2.996 127.358  0.00  0.00    +0.000 A 
ATOM     21  C   UNL     1      -7.490  -2.204 127.912  0.00  0.00    +0.000 A 
ATOM     22  N   UNL     1      -7.950  -1.019 127.111  0.00  0.00    +0.000 NA
BRANCH  21  23
ATOM     23  C   UNL     1      -7.151  -2.747 129.461  0.00  0.00    +0.000 A 
ATOM     24  C   UNL     1      -6.000  -3.609 129.615  0.00  0.00    +0.000 A 
ATOM     25  C   UNL     1      -5.570  -4.257 130.823  0.00  0.00    +0.000 A 
ATOM     26  C   UNL     1      -6.187  -3.997 132.034  0.00  0.00    +0.000 A 
ATOM     27  C   UNL     1      -7.161  -2.993 132.005  0.00  0.00    +0.000 A 
ATOM     28 CL   UNL     1      -7.938  -2.573 133.513  0.00  0.00    +0.000 Cl
ATOM     29  C   UNL     1      -7.603  -2.338 130.755  0.00  0.00    +0.000 A 
BRANCH  26  30
ATOM     30  C   UNL     1      -5.828  -4.757 133.244  0.00  0.00    +0.000 C 
ATOM     31  N   UNL     1      -5.568  -5.343 134.180  0.00  0.00    +0.000 NA
ENDBRANCH  26  30
ENDBRANCH  21  23
ENDBRANCH  17  18
ENDBRANCH   2  17
TORSDOF 8
ENDMDL
MODEL 2
REMARK VINA RESULT:      -7.9      1.695      2.295
REMARK  Name = Darolutamide
REMARK  10 active torsions:
REMARK  status: ('A' for Active; 'I' for Inactive)
REMARK    1  A    between atoms: C_1  and  C_2
REMARK    2  A    between atoms: C_2  and  C_3
REMARK    3  A    between atoms: C_2  and  N_18
REMARK    4  A    between atoms: C_3  and  N_4
REMARK    5  A    between atoms: C_7  and  C_9
REMARK    6  A    between atoms: C_12  and  C_13
REMARK    7  A    between atoms: C_19  and  C_21
REMARK    8  A    between atoms: C_24  and  C_26
REMARK    9  A    between atoms: C_26  and  C_27
REMARK   10  A    between atoms: C_26  and  O_28
REMARK                            x       y       z     vdW  Elec       q    Type
REMARK                         _______ _______ _______ _____ _____    ______ ____
ROOT
ATOM      1  C   UNL     1      -7.385  -3.300 124.034  0.00  0.00    +0.000 C 
ATOM      2  C   UNL     1      -8.591  -2.355 124.159  0.00  0.00    +0.000 C 
ENDROOT
BRANCH   2   3
ATOM      3  N   UNL     1      -8.056  -0.920 124.081  0.00  0.00    +0.000 N 
ATOM      4  C   UNL     1      -8.786   0.122 123.496  0.00  0.00    +0.000 C 
ATOM      5  O   UNL     1      -9.918  -0.092 123.071  0.00  0.00    +0.000 OA
ATOM      6  H   UNL     1      -7.110  -0.708 124.390  0.00  0.00    +0.000 HD
BRANCH   4   7
ATOM      7  C   UNL     1      -8.167   1.478 123.403  0.00  0.00    +0.000 A 
ATOM      8  N   UNL     1      -8.763   2.482 122.722  0.00  0.00    +0.000 NA
ATOM      9  N   UNL     1      -7.865   3.481 122.693  0.00  0.00    +0.000 N 
ATOM     10  C   UNL     1      -6.712   3.198 123.376  0.00  0.00    +0.000 A 
ATOM     11  C   UNL     1      -6.895   1.915 123.864  0.00  0.00    +0.000 A 
ATOM     12  H   UNL     1      -8.106   4.330 122.185  0.00  0.00    +0.000 HD
BRANCH  10  13
ATOM     13  C   UNL     1      -5.568   4.150 123.454  0.00  0.00    +0.000 C 
ATOM     14  C   UNL     1      -5.080   4.575 122.077  0.00  0.00    +0.000 C 
BRANCH  13  15
ATOM     15  O   UNL     1      -6.031   5.300 124.153  0.00  0.00    +0.000 OA
ATOM     16  H   UNL     1      -6.289   5.010 125.044  0.00  0.00    +0.000 HD
ENDBRANCH  13  15
ENDBRANCH  10  13
ENDBRANCH   4   7
ENDBRANCH   2   3
BRANCH   2  17
ATOM     17  C   UNL     1      -9.481  -2.673 125.474  0.00  0.00    +0.000 C 
BRANCH  17  18
ATOM     18  N   UNL     1      -8.983  -2.795 126.920  0.00  0.00    +0.000 N 
ATOM     19  C   UNL     1      -8.820  -4.100 127.434  0.00  0.00    +0.000 A 
ATOM     20  C   UNL     1      -8.886  -3.661 128.755  0.00  0.00    +0.000 A 
ATOM     21  C   UNL     1      -7.558  -3.271 128.828  0.00  0.00    +0.000 A 
ATOM     22  N   UNL     1      -7.795  -2.176 127.828  0.00  0.00    +0.000 NA
BRANCH  21  23
ATOM     23  C   UNL     1      -6.969  -3.605 130.362  0.00  0.00    +0.000 A 
ATOM     24  C   UNL     1      -5.873  -4.544 130.451  0.00  0.00    +0.000 A 
ATOM     25  C   UNL     1      -5.266  -5.042 131.656  0.00  0.00    +0.000 A 
ATOM     26  C   UNL     1      -5.623  -4.542 132.896  0.00  0.00    +0.000 A 
ATOM     27  C   UNL     1      -6.512  -3.462 132.873  0.00  0.00    +0.000 A 
ATOM     28 CL   UNL     1      -6.957  -2.745 134.403  0.00  0.00    +0.000 Cl
ATOM     29  C   UNL     1      -7.137  -2.963 131.629  0.00  0.00    +0.000 A 
BRANCH  26  30
ATOM     30  C   UNL     1      -5.094  -5.143 134.133  0.00  0.00    +0.000 C 
ATOM     31  N   UNL     1      -4.702  -5.605 135.093  0.00  0.00    +0.000 NA
ENDBRANCH  26  30
ENDBRANCH  21  23
ENDBRANCH  17  18
ENDBRANCH   2  17
TORSDOF 8
ENDMDL
MODEL 3
REMARK VINA RESULT:      -7.7      6.143     10.416
REMARK  Name = Darolutamide
REMARK  10 active torsions:
REMARK  status: ('A' for Active; 'I' for Inactive)
REMARK    1  A    between atoms: C_1  and  C_2
REMARK    2  A    between atoms: C_2  and  C_3
REMARK    3  A    between atoms: C_2  and  N_18
REMARK    4  A    between atoms: C_3  and  N_4
REMARK    5  A    between atoms: C_7  and  C_9
REMARK    6  A    between atoms: C_12  and  C_13
REMARK    7  A    between atoms: C_19  and  C_21
REMARK    8  A    between atoms: C_24  and  C_26
REMARK    9  A    between atoms: C_26  and  C_27
REMARK   10  A    between atoms: C_26  and  O_28
REMARK                            x       y       z     vdW  Elec       q    Type
REMARK                         _______ _______ _______ _____ _____    ______ ____
ROOT
ATOM      1  C   UNL     1      -8.498   1.074 130.709  0.00  0.00    +0.000 C 
ATOM      2  C   UNL     1      -8.140   2.011 129.543  0.00  0.00    +0.000 C 
ENDROOT
BRANCH   2   3
ATOM      3  N   UNL     1      -9.229   3.089 129.472  0.00  0.00    +0.000 N 
ATOM      4  C   UNL     1      -9.047   4.374 129.995  0.00  0.00    +0.000 C 
ATOM      5  O   UNL     1      -7.966   4.685 130.486  0.00  0.00    +0.000 OA
ATOM      6  H   UNL     1     -10.150   2.862 129.104  0.00  0.00    +0.000 HD
BRANCH   4   7
ATOM      7  C   UNL     1     -10.182   5.346 129.941  0.00  0.00    +0.000 A 
ATOM      8  N   UNL     1     -11.468   4.933 129.987  0.00  0.00    +0.000 NA
ATOM      9  N   UNL     1     -12.207   6.027 129.737  0.00  0.00    +0.000 N 
ATOM     10  C   UNL     1     -11.460   7.164 129.579  0.00  0.00    +0.000 A 
ATOM     11  C   UNL     1     -10.148   6.751 129.730  0.00  0.00    +0.000 A 
ATOM     12  H   UNL     1     -13.218   5.923 129.687  0.00  0.00    +0.000 HD
BRANCH  10  13
ATOM     13  C   UNL     1     -12.068   8.490 129.269  0.00  0.00    +0.000 C 
ATOM     14  C   UNL     1     -13.067   8.409 128.125  0.00  0.00    +0.000 C 
BRANCH  13  15
ATOM     15  O   UNL     1     -12.747   8.920 130.443  0.00  0.00    +0.000 OA
ATOM     16  H   UNL     1     -12.103   9.400 130.989  0.00  0.00    +0.000 HD
ENDBRANCH  13  15
ENDBRANCH  10  13
ENDBRANCH   4   7
ENDBRANCH   2   3
BRANCH   2  17
ATOM     17  C   UNL     1      -7.900   1.202 128.162  0.00  0.00    +0.000 C 
BRANCH  17  18
ATOM     18  N   UNL     1      -8.002   1.757 126.735  0.00  0.00    +0.000 N 
ATOM     19  C   UNL     1      -7.112   2.795 126.387  0.00  0.00    +0.000 A 
ATOM     20  C   UNL     1      -7.917   3.223 125.332  0.00  0.00    +0.000 A 
ATOM     21  C   UNL     1      -7.456   2.279 124.427  0.00  0.00    +0.000 A 
ATOM     22  N   UNL     1      -8.072   1.169 125.229  0.00  0.00    +0.000 NA
BRANCH  21  23
ATOM     23  C   UNL     1      -7.378   2.970 122.902  0.00  0.00    +0.000 A 
ATOM     24  C   UNL     1      -6.059   3.198 122.354  0.00  0.00    +0.000 A 
ATOM     25  C   UNL     1      -5.748   3.850 121.111  0.00  0.00    +0.000 A 
ATOM     26  C   UNL     1      -6.747   4.225 120.230  0.00  0.00    +0.000 A 
ATOM     27  C   UNL     1      -8.039   3.824 120.585  0.00  0.00    +0.000 A 
ATOM     28 CL   UNL     1      -9.340   4.214 119.485  0.00  0.00    +0.000 Cl
ATOM     29  C   UNL     1      -8.351   3.162 121.870  0.00  0.00    +0.000 A 
BRANCH  26  30
ATOM     30  C   UNL     1      -6.433   5.004 119.019  0.00  0.00    +0.000 C 
ATOM     31  N   UNL     1      -6.195   5.619 118.096  0.00  0.00    +0.000 NA
ENDBRANCH  26  30
ENDBRANCH  21  23
ENDBRANCH  17  18
ENDBRANCH   2  17
TORSDOF 8
ENDMDL
MODEL 4
REMARK VINA RESULT:      -7.5      6.509      8.598
REMARK  Name = Darolutamide
REMARK  10 active torsions:
REMARK  status: ('A' for Active; 'I' for Inactive)
REMARK    1  A    between atoms: C_1  and  C_2
REMARK    2  A    between atoms: C_2  and  C_3
REMARK    3  A    between atoms: C_2  and  N_18
REMARK    4  A    between atoms: C_3  and  N_4
REMARK    5  A    between atoms: C_7  and  C_9
REMARK    6  A    between atoms: C_12  and  C_13
REMARK    7  A    between atoms: C_19  and  C_21
REMARK    8  A    between atoms: C_24  and  C_26
REMARK    9  A    between atoms: C_26  and  C_27
REMARK   10  A    between atoms: C_26  and  O_28
REMARK                            x       y       z     vdW  Elec       q    Type
REMARK                         _______ _______ _______ _____ _____    ______ ____
ROOT
ATOM      1  C   UNL     1      -8.791   3.977 134.209  0.00  0.00    +0.000 C 
ATOM      2  C   UNL     1      -8.694   3.719 132.697  0.00  0.00    +0.000 C 
ENDROOT
BRANCH   2   3
ATOM      3  N   UNL     1      -9.768   4.578 132.017  0.00  0.00    +0.000 N 
ATOM      4  C   UNL     1      -9.501   5.859 131.521  0.00  0.00    +0.000 C 
ATOM      5  O   UNL     1      -8.359   6.307 131.576  0.00  0.00    +0.000 OA
ATOM      6  H   UNL     1     -10.734   4.258 131.982  0.00  0.00    +0.000 HD
BRANCH   4   7
ATOM      7  C   UNL     1     -10.618   6.655 130.929  0.00  0.00    +0.000 A 
ATOM      8  N   UNL     1     -11.879   6.567 131.409  0.00  0.00    +0.000 NA
ATOM      9  N   UNL     1     -12.641   7.261 130.547  0.00  0.00    +0.000 N 
ATOM     10  C   UNL     1     -11.926   7.853 129.541  0.00  0.00    +0.000 A 
ATOM     11  C   UNL     1     -10.611   7.493 129.781  0.00  0.00    +0.000 A 
ATOM     12  H   UNL     1     -13.647   7.287 130.708  0.00  0.00    +0.000 HD
BRANCH  10  13
ATOM     13  C   UNL     1     -12.568   8.650 128.457  0.00  0.00    +0.000 C 
ATOM     14  C   UNL     1     -13.806   7.966 127.898  0.00  0.00    +0.000 C 
BRANCH  13  15
ATOM     15  O   UNL     1     -12.951   9.896 129.029  0.00  0.00    +0.000 OA
ATOM     16  H   UNL     1     -12.333  10.567 128.696  0.00  0.00    +0.000 HD
ENDBRANCH  13  15
ENDBRANCH  10  13
ENDBRANCH   4   7
ENDBRANCH   2   3
BRANCH   2  17
ATOM     17  C   UNL     1      -8.768   2.141 132.341  0.00  0.00    +0.000 C 
BRANCH  17  18
ATOM     18  N   UNL     1      -8.180   1.442 131.108  0.00  0.00    +0.000 N 
ATOM     19  C   UNL     1      -8.183   0.031 131.110  0.00  0.00    +0.000 A 
ATOM     20  C   UNL     1      -7.173  -0.040 130.152  0.00  0.00    +0.000 A 
ATOM     21  C   UNL     1      -8.013   0.141 129.064  0.00  0.00    +0.000 A 
ATOM     22  N   UNL     1      -8.319   1.546 129.499  0.00  0.00    +0.000 NA
BRANCH  21  23
ATOM     23  C   UNL     1      -7.469  -0.795 127.785  0.00  0.00    +0.000 A 
ATOM     24  C   UNL     1      -6.065  -0.699 127.454  0.00  0.00    +0.000 A 
ATOM     25  C   UNL     1      -5.397  -1.339 126.354  0.00  0.00    +0.000 A 
ATOM     26  C   UNL     1      -6.057  -2.247 125.546  0.00  0.00    +0.000 A 
ATOM     27  C   UNL     1      -7.358  -2.570 125.948  0.00  0.00    +0.000 A 
ATOM     28 CL   UNL     1      -8.227  -3.757 125.006  0.00  0.00    +0.000 Cl
ATOM     29  C   UNL     1      -8.039  -1.900 127.077  0.00  0.00    +0.000 A 
BRANCH  26  30
ATOM     30  C   UNL     1      -5.408  -2.802 124.346  0.00  0.00    +0.000 C 
ATOM     31  N   UNL     1      -4.924  -3.231 123.413  0.00  0.00    +0.000 NA
ENDBRANCH  26  30
ENDBRANCH  21  23
ENDBRANCH  17  18
ENDBRANCH   2  17
TORSDOF 8
ENDMDL
MODEL 5
REMARK VINA RESULT:      -7.4      6.942     10.153
REMARK  Name = Darolutamide
REMARK  10 active torsions:
REMARK  status: ('A' for Active; 'I' for Inactive)
REMARK    1  A    between atoms: C_1  and  C_2
REMARK    2  A    between atoms: C_2  and  C_3
REMARK    3  A    between atoms: C_2  and  N_18
REMARK    4  A    between atoms: C_3  and  N_4
REMARK    5  A    between atoms: C_7  and  C_9
REMARK    6  A    between atoms: C_12  and  C_13
REMARK    7  A    between atoms: C_19  and  C_21
REMARK    8  A    between atoms: C_24  and  C_26
REMARK    9  A    between atoms: C_26  and  C_27
REMARK   10  A    between atoms: C_26  and  O_28
REMARK                            x       y       z     vdW  Elec       q    Type
REMARK                         _______ _______ _______ _____ _____    ______ ____
ROOT
ATOM      1  C   UNL     1      -1.559   6.162 131.389  0.00  0.00    +0.000 C 
ATOM      2  C   UNL     1      -2.599   6.720 130.404  0.00  0.00    +0.000 C 
ENDROOT
BRANCH   2   3
ATOM      3  N   UNL     1      -3.983   6.298 130.914  0.00  0.00    +0.000 N 
ATOM      4  C   UNL     1      -5.129   7.073 130.704  0.00  0.00    +0.000 C 
ATOM      5  O   UNL     1      -5.052   8.107 130.046  0.00  0.00    +0.000 OA
ATOM      6  H   UNL     1      -4.084   5.466 131.492  0.00  0.00    +0.000 HD
BRANCH   4   7
ATOM      7  C   UNL     1      -6.428   6.621 131.288  0.00  0.00    +0.000 A 
ATOM      8  N   UNL     1      -6.485   5.611 132.185  0.00  0.00    +0.000 NA
ATOM      9  N   UNL     1      -7.793   5.354 132.355  0.00  0.00    +0.000 N 
ATOM     10  C   UNL     1      -8.610   6.192 131.644  0.00  0.00    +0.000 A 
ATOM     11  C   UNL     1      -7.748   7.035 130.963  0.00  0.00    +0.000 A 
ATOM     12  H   UNL     1      -8.056   4.589 132.973  0.00  0.00    +0.000 HD
BRANCH  10  13
ATOM     13  C   UNL     1     -10.096   6.073 131.661  0.00  0.00    +0.000 C 
ATOM     14  C   UNL     1     -10.605   5.089 130.619  0.00  0.00    +0.000 C 
BRANCH  13  15
ATOM     15  O   UNL     1     -10.460   5.604 132.954  0.00  0.00    +0.000 OA
ATOM     16  H   UNL     1     -10.657   4.657 132.872  0.00  0.00    +0.000 HD
ENDBRANCH  13  15
ENDBRANCH  10  13
ENDBRANCH   4   7
ENDBRANCH   2   3
BRANCH   2  17
ATOM     17  C   UNL     1      -2.283   6.293 128.875  0.00  0.00    +0.000 C 
BRANCH  17  18
ATOM     18  N   UNL     1      -3.236   5.595 127.895  0.00  0.00    +0.000 N 
ATOM     19  C   UNL     1      -3.331   4.190 127.985  0.00  0.00    +0.000 A 
ATOM     20  C   UNL     1      -3.824   4.073 126.686  0.00  0.00    +0.000 A 
ATOM     21  C   UNL     1      -5.138   4.364 127.020  0.00  0.00    +0.000 A 
ATOM     22  N   UNL     1      -4.762   5.772 127.385  0.00  0.00    +0.000 NA
BRANCH  21  23
ATOM     23  C   UNL     1      -6.166   3.435 126.077  0.00  0.00    +0.000 A 
ATOM     24  C   UNL     1      -7.392   4.062 125.634  0.00  0.00    +0.000 A 
ATOM     25  C   UNL     1      -8.455   3.439 124.893  0.00  0.00    +0.000 A 
ATOM     26  C   UNL     1      -8.330   2.147 124.412  0.00  0.00    +0.000 A 
ATOM     27  C   UNL     1      -7.076   1.557 124.600  0.00  0.00    +0.000 A 
ATOM     28 CL   UNL     1      -6.832  -0.051 123.964  0.00  0.00    +0.000 Cl
ATOM     29  C   UNL     1      -5.991   2.203 125.371  0.00  0.00    +0.000 A 
BRANCH  26  30
ATOM     30  C   UNL     1      -9.467   1.469 123.766  0.00  0.00    +0.000 C 
ATOM     31  N   UNL     1     -10.342   0.934 123.281  0.00  0.00    +0.000 NA
ENDBRANCH  26  30
ENDBRANCH  21  23
ENDBRANCH  17  18
ENDBRANCH   2  17
TORSDOF 8
ENDMDL
MODEL 6
REMARK VINA RESULT:      -7.4      7.112     10.022
REMARK  Name = Darolutamide
REMARK  10 active torsions:
REMARK  status: ('A' for Active; 'I' for Inactive)
REMARK    1  A    between atoms: C_1  and  C_2
REMARK    2  A    between atoms: C_2  and  C_3
REMARK    3  A    between atoms: C_2  and  N_18
REMARK    4  A    between atoms: C_3  and  N_4
REMARK    5  A    between atoms: C_7  and  C_9
REMARK    6  A    between atoms: C_12  and  C_13
REMARK    7  A    between atoms: C_19  and  C_21
REMARK    8  A    between atoms: C_24  and  C_26
REMARK    9  A    between atoms: C_26  and  C_27
REMARK   10  A    between atoms: C_26  and  O_28
REMARK                            x       y       z     vdW  Elec       q    Type
REMARK                         _______ _______ _______ _____ _____    ______ ____
ROOT
ATOM      1  C   UNL     1      -4.147   5.270 133.080  0.00  0.00    +0.000 C 
ATOM      2  C   UNL     1      -4.753   5.667 131.724  0.00  0.00    +0.000 C 
ENDROOT
BRANCH   2   3
ATOM      3  N   UNL     1      -6.279   5.624 131.876  0.00  0.00    +0.000 N 
ATOM      4  C   UNL     1      -7.115   6.609 131.336  0.00  0.00    +0.000 C 
ATOM      5  O   UNL     1      -6.631   7.521 130.670  0.00  0.00    +0.000 OA
ATOM      6  H   UNL     1      -6.717   4.906 132.448  0.00  0.00    +0.000 HD
BRANCH   4   7
ATOM      7  C   UNL     1      -8.586   6.527 131.583  0.00  0.00    +0.000 A 
ATOM      8  N   UNL     1      -9.080   6.133 132.778  0.00  0.00    +0.000 NA
ATOM      9  N   UNL     1     -10.405   6.002 132.594  0.00  0.00    +0.000 N 
ATOM     10  C   UNL     1     -10.817   6.346 131.334  0.00  0.00    +0.000 A 
ATOM     11  C   UNL     1      -9.659   6.711 130.669  0.00  0.00    +0.000 A 
ATOM     12  H   UNL     1     -10.968   5.670 133.375  0.00  0.00    +0.000 HD
BRANCH  10  13
ATOM     13  C   UNL     1     -12.240   6.253 130.899  0.00  0.00    +0.000 C 
ATOM     14  C   UNL     1     -12.966   7.584 131.022  0.00  0.00    +0.000 C 
BRANCH  13  15
ATOM     15  O   UNL     1     -12.231   5.859 129.531  0.00  0.00    +0.000 OA
ATOM     16  H   UNL     1     -11.321   5.964 129.208  0.00  0.00    +0.000 HD
ENDBRANCH  13  15
ENDBRANCH  10  13
ENDBRANCH   4   7
ENDBRANCH   2   3
BRANCH   2  17
ATOM     17  C   UNL     1      -4.171   4.770 130.509  0.00  0.00    +0.000 C 
BRANCH  17  18
ATOM     18  N   UNL     1      -4.901   4.375 129.218  0.00  0.00    +0.000 N 
ATOM     19  C   UNL     1      -5.106   2.996 128.995  0.00  0.00    +0.000 A 
ATOM     20  C   UNL     1      -5.277   3.175 127.623  0.00  0.00    +0.000 A 
ATOM     21  C   UNL     1      -6.611   3.544 127.707  0.00  0.00    +0.000 A 
ATOM     22  N   UNL     1      -6.244   4.809 128.428  0.00  0.00    +0.000 NA
BRANCH  21  23
ATOM     23  C   UNL     1      -7.439   2.924 126.387  0.00  0.00    +0.000 A 
ATOM     24  C   UNL     1      -8.375   1.853 126.647  0.00  0.00    +0.000 A 
ATOM     25  C   UNL     1      -9.128   1.117 125.669  0.00  0.00    +0.000 A 
ATOM     26  C   UNL     1      -9.108   1.475 124.332  0.00  0.00    +0.000 A 
ATOM     27  C   UNL     1      -8.408   2.649 124.038  0.00  0.00    +0.000 A 
ATOM     28 CL   UNL     1      -8.394   3.191 122.377  0.00  0.00    +0.000 Cl
ATOM     29  C   UNL     1      -7.629   3.395 125.050  0.00  0.00    +0.000 A 
BRANCH  26  30
ATOM     30  C   UNL     1      -9.778   0.643 123.318  0.00  0.00    +0.000 C 
ATOM     31  N   UNL     1     -10.291  -0.012 122.546  0.00  0.00    +0.000 NA
ENDBRANCH  26  30
ENDBRANCH  21  23
ENDBRANCH  17  18
ENDBRANCH   2  17
TORSDOF 8
ENDMDL
MODEL 7
REMARK VINA RESULT:      -7.3      4.880      5.929
REMARK  Name = Darolutamide
REMARK  10 active torsions:
REMARK  status: ('A' for Active; 'I' for Inactive)
REMARK    1  A    between atoms: C_1  and  C_2
REMARK    2  A    between atoms: C_2  and  C_3
REMARK    3  A    between atoms: C_2  and  N_18
REMARK    4  A    between atoms: C_3  and  N_4
REMARK    5  A    between atoms: C_7  and  C_9
REMARK    6  A    between atoms: C_12  and  C_13
REMARK    7  A    between atoms: C_19  and  C_21
REMARK    8  A    between atoms: C_24  and  C_26
REMARK    9  A    between atoms: C_26  and  C_27
REMARK   10  A    between atoms: C_26  and  O_28
REMARK                            x       y       z     vdW  Elec       q    Type
REMARK                         _______ _______ _______ _____ _____    ______ ____
ROOT
ATOM      1  C   UNL     1      -8.792  -1.480 123.420  0.00  0.00    +0.000 C 
ATOM      2  C   UNL     1      -8.411  -0.217 124.210  0.00  0.00    +0.000 C 
ENDROOT
BRANCH   2   3
ATOM      3  N   UNL     1      -7.885   0.811 123.202  0.00  0.00    +0.000 N 
ATOM      4  C   UNL     1      -8.258   2.160 123.242  0.00  0.00    +0.000 C 
ATOM      5  O   UNL     1      -8.991   2.562 124.141  0.00  0.00    +0.000 OA
ATOM      6  H   UNL     1      -7.303   0.513 122.422  0.00  0.00    +0.000 HD
BRANCH   4   7
ATOM      7  C   UNL     1      -7.749   3.085 122.184  0.00  0.00    +0.000 A 
ATOM      8  N   UNL     1      -8.544   3.511 121.178  0.00  0.00    +0.000 NA
ATOM      9  N   UNL     1      -7.732   4.165 120.329  0.00  0.00    +0.000 N 
ATOM     10  C   UNL     1      -6.436   4.235 120.762  0.00  0.00    +0.000 A 
ATOM     11  C   UNL     1      -6.428   3.563 121.972  0.00  0.00    +0.000 A 
ATOM     12  H   UNL     1      -8.133   4.537 119.471  0.00  0.00    +0.000 HD
BRANCH  10  13
ATOM     13  C   UNL     1      -5.357   4.891 119.969  0.00  0.00    +0.000 C 
ATOM     14  C   UNL     1      -5.903   5.622 118.752  0.00  0.00    +0.000 C 
BRANCH  13  15
ATOM     15  O   UNL     1      -4.726   5.835 120.828  0.00  0.00    +0.000 OA
ATOM     16  H   UNL     1      -5.284   6.629 120.843  0.00  0.00    +0.000 HD
ENDBRANCH  13  15
ENDBRANCH  10  13
ENDBRANCH   4   7
ENDBRANCH   2   3
BRANCH   2  17
ATOM     17  C   UNL     1      -7.399  -0.544 125.431  0.00  0.00    +0.000 C 
BRANCH  17  18
ATOM     18  N   UNL     1      -6.802   0.456 126.430  0.00  0.00    +0.000 N 
ATOM     19  C   UNL     1      -5.455   0.829 126.236  0.00  0.00    +0.000 A 
ATOM     20  C   UNL     1      -5.309   1.245 127.558  0.00  0.00    +0.000 A 
ATOM     21  C   UNL     1      -5.872   2.497 127.363  0.00  0.00    +0.000 A 
ATOM     22  N   UNL     1      -7.213   1.880 127.081  0.00  0.00    +0.000 NA
BRANCH  21  23
ATOM     23  C   UNL     1      -5.067   3.619 128.313  0.00  0.00    +0.000 A 
ATOM     24  C   UNL     1      -3.638   3.729 128.126  0.00  0.00    +0.000 A 
ATOM     25  C   UNL     1      -2.735   4.555 128.881  0.00  0.00    +0.000 A 
ATOM     26  C   UNL     1      -3.205   5.454 129.821  0.00  0.00    +0.000 A 
ATOM     27  C   UNL     1      -4.597   5.573 129.892  0.00  0.00    +0.000 A 
ATOM     28 CL   UNL     1      -5.255   6.735 131.019  0.00  0.00    +0.000 Cl
ATOM     29  C   UNL     1      -5.517   4.713 129.118  0.00  0.00    +0.000 A 
BRANCH  26  30
ATOM     30  C   UNL     1      -2.272   6.204 130.680  0.00  0.00    +0.000 C 
ATOM     31  N   UNL     1      -1.566   6.795 131.343  0.00  0.00    +0.000 NA
ENDBRANCH  26  30
ENDBRANCH  21  23
ENDBRANCH  17  18
ENDBRANCH   2  17
TORSDOF 8
ENDMDL
MODEL 8
REMARK VINA RESULT:      -7.3      1.742      2.065
REMARK  Name = Darolutamide
REMARK  10 active torsions:
REMARK  status: ('A' for Active; 'I' for Inactive)
REMARK    1  A    between atoms: C_1  and  C_2
REMARK    2  A    between atoms: C_2  and  C_3
REMARK    3  A    between atoms: C_2  and  N_18
REMARK    4  A    between atoms: C_3  and  N_4
REMARK    5  A    between atoms: C_7  and  C_9
REMARK    6  A    between atoms: C_12  and  C_13
REMARK    7  A    between atoms: C_19  and  C_21
REMARK    8  A    between atoms: C_24  and  C_26
REMARK    9  A    between atoms: C_26  and  C_27
REMARK   10  A    between atoms: C_26  and  O_28
REMARK                            x       y       z     vdW  Elec       q    Type
REMARK                         _______ _______ _______ _____ _____    ______ ____
ROOT
ATOM      1  C   UNL     1      -8.795  -1.721 124.537  0.00  0.00    +0.000 C 
ATOM      2  C   UNL     1      -7.874  -0.618 125.083  0.00  0.00    +0.000 C 
ENDROOT
BRANCH   2   3
ATOM      3  N   UNL     1      -7.642   0.387 123.947  0.00  0.00    +0.000 N 
ATOM      4  C   UNL     1      -7.830   1.763 124.113  0.00  0.00    +0.000 C 
ATOM      5  O   UNL     1      -8.143   2.207 125.215  0.00  0.00    +0.000 OA
ATOM      6  H   UNL     1      -7.415   0.058 123.011  0.00  0.00    +0.000 HD
BRANCH   4   7
ATOM      7  C   UNL     1      -7.643   2.668 122.938  0.00  0.00    +0.000 A 
ATOM      8  N   UNL     1      -8.693   3.273 122.339  0.00  0.00    +0.000 NA
ATOM      9  N   UNL     1      -8.193   3.851 121.233  0.00  0.00    +0.000 N 
ATOM     10  C   UNL     1      -6.839   3.697 121.104  0.00  0.00    +0.000 A 
ATOM     11  C   UNL     1      -6.458   2.954 122.208  0.00  0.00    +0.000 A 
ATOM     12  H   UNL     1      -8.837   4.334 120.610  0.00  0.00    +0.000 HD
BRANCH  10  13
ATOM     13  C   UNL     1      -6.075   4.233 119.941  0.00  0.00    +0.000 C 
ATOM     14  C   UNL     1      -6.987   4.635 118.792  0.00  0.00    +0.000 C 
BRANCH  13  15
ATOM     15  O   UNL     1      -5.377   5.386 120.399  0.00  0.00    +0.000 OA
ATOM     16  H   UNL     1      -4.882   5.742 119.643  0.00  0.00    +0.000 HD
ENDBRANCH  13  15
ENDBRANCH  10  13
ENDBRANCH   4   7
ENDBRANCH   2   3
BRANCH   2  17
ATOM     17  C   UNL     1      -6.521  -1.221 125.737  0.00  0.00    +0.000 C 
BRANCH  17  18
ATOM     18  N   UNL     1      -6.401  -2.015 127.045  0.00  0.00    +0.000 N 
ATOM     19  C   UNL     1      -5.730  -1.387 128.116  0.00  0.00    +0.000 A 
ATOM     20  C   UNL     1      -5.467  -2.600 128.751  0.00  0.00    +0.000 A 
ATOM     21  C   UNL     1      -6.712  -2.703 129.353  0.00  0.00    +0.000 A 
ATOM     22  N   UNL     1      -7.376  -2.866 128.017  0.00  0.00    +0.000 NA
BRANCH  21  23
ATOM     23  C   UNL     1      -6.534  -3.386 130.874  0.00  0.00    +0.000 A 
ATOM     24  C   UNL     1      -5.357  -4.197 131.093  0.00  0.00    +0.000 A 
ATOM     25  C   UNL     1      -5.039  -4.945 132.279  0.00  0.00    +0.000 A 
ATOM     26  C   UNL     1      -5.819  -4.847 133.417  0.00  0.00    +0.000 A 
ATOM     27  C   UNL     1      -6.846  -3.898 133.358  0.00  0.00    +0.000 A 
ATOM     28 CL   UNL     1      -7.832  -3.682 134.784  0.00  0.00    +0.000 Cl
ATOM     29  C   UNL     1      -7.171  -3.140 132.131  0.00  0.00    +0.000 A 
BRANCH  26  30
ATOM     30  C   UNL     1      -5.565  -5.709 134.584  0.00  0.00    +0.000 C 
ATOM     31  N   UNL     1      -5.377  -6.387 135.475  0.00  0.00    +0.000 NA
ENDBRANCH  26  30
ENDBRANCH  21  23
ENDBRANCH  17  18
ENDBRANCH   2  17
TORSDOF 8
ENDMDL
MODEL 9
REMARK VINA RESULT:      -7.3      6.509      8.739
REMARK  Name = Darolutamide
REMARK  10 active torsions:
REMARK  status: ('A' for Active; 'I' for Inactive)
REMARK    1  A    between atoms: C_1  and  C_2
REMARK    2  A    between atoms: C_2  and  C_3
REMARK    3  A    between atoms: C_2  and  N_18
REMARK    4  A    between atoms: C_3  and  N_4
REMARK    5  A    between atoms: C_7  and  C_9
REMARK    6  A    between atoms: C_12  and  C_13
REMARK    7  A    between atoms: C_19  and  C_21
REMARK    8  A    between atoms: C_24  and  C_26
REMARK    9  A    between atoms: C_26  and  C_27
REMARK   10  A    between atoms: C_26  and  O_28
REMARK                            x       y       z     vdW  Elec       q    Type
REMARK                         _______ _______ _______ _____ _____    ______ ____
ROOT
ATOM      1  C   UNL     1      -7.611   4.281 134.552  0.00  0.00    +0.000 C 
ATOM      2  C   UNL     1      -7.370   4.835 133.138  0.00  0.00    +0.000 C 
ENDROOT
BRANCH   2   3
ATOM      3  N   UNL     1      -8.735   5.238 132.567  0.00  0.00    +0.000 N 
ATOM      4  C   UNL     1      -8.882   6.272 131.635  0.00  0.00    +0.000 C 
ATOM      5  O   UNL     1      -7.888   6.856 131.211  0.00  0.00    +0.000 OA
ATOM      6  H   UNL     1      -9.585   4.803 132.917  0.00  0.00    +0.000 HD
BRANCH   4   7
ATOM      7  C   UNL     1     -10.255   6.644 131.175  0.00  0.00    +0.000 A 
ATOM      8  N   UNL     1     -11.332   6.499 131.979  0.00  0.00    +0.000 NA
ATOM      9  N   UNL     1     -12.398   6.750 131.201  0.00  0.00    +0.000 N 
ATOM     10  C   UNL     1     -12.067   7.108 129.922  0.00  0.00    +0.000 A 
ATOM     11  C   UNL     1     -10.683   7.069 129.889  0.00  0.00    +0.000 A 
ATOM     12  H   UNL     1     -13.325   6.655 131.610  0.00  0.00    +0.000 HD
BRANCH  10  13
ATOM     13  C   UNL     1     -13.089   7.407 128.878  0.00  0.00    +0.000 C 
ATOM     14  C   UNL     1     -13.108   8.879 128.498  0.00  0.00    +0.000 C 
BRANCH  13  15
ATOM     15  O   UNL     1     -12.746   6.640 127.729  0.00  0.00    +0.000 OA
ATOM     16  H   UNL     1     -11.840   6.315 127.860  0.00  0.00    +0.000 HD
ENDBRANCH  13  15
ENDBRANCH  10  13
ENDBRANCH   4   7
ENDBRANCH   2   3
BRANCH   2  17
ATOM     17  C   UNL     1      -6.529   3.805 132.215  0.00  0.00    +0.000 C 
BRANCH  17  18
ATOM     18  N   UNL     1      -7.093   2.703 131.308  0.00  0.00    +0.000 N 
ATOM     19  C   UNL     1      -6.895   2.854 129.919  0.00  0.00    +0.000 A 
ATOM     20  C   UNL     1      -7.946   1.993 129.607  0.00  0.00    +0.000 A 
ATOM     21  C   UNL     1      -7.211   0.828 129.769  0.00  0.00    +0.000 A 
ATOM     22  N   UNL     1      -7.074   1.086 131.242  0.00  0.00    +0.000 NA
BRANCH  21  23
ATOM     23  C   UNL     1      -7.702  -0.298 128.628  0.00  0.00    +0.000 A 
ATOM     24  C   UNL     1      -7.676   0.120 127.244  0.00  0.00    +0.000 A 
ATOM     25  C   UNL     1      -8.128  -0.639 126.110  0.00  0.00    +0.000 A 
ATOM     26  C   UNL     1      -8.536  -1.954 126.247  0.00  0.00    +0.000 A 
ATOM     27  C   UNL     1      -8.366  -2.504 127.522  0.00  0.00    +0.000 A 
ATOM     28 CL   UNL     1      -8.806  -4.180 127.748  0.00  0.00    +0.000 Cl
ATOM     29  C   UNL     1      -7.908  -1.712 128.684  0.00  0.00    +0.000 A 
BRANCH  26  30
ATOM     30  C   UNL     1      -9.117  -2.687 125.108  0.00  0.00    +0.000 C 
ATOM     31  N   UNL     1      -9.581  -3.247 124.237  0.00  0.00    +0.000 NA
ENDBRANCH  26  30
ENDBRANCH  21  23
ENDBRANCH  17  18
ENDBRANCH   2  17
TORSDOF 8
ENDMDL
