MODEL 1
REMARK VINA RESULT:      -9.7      0.000      0.000
REMARK  Name = Darunavir
REMARK  16 active torsions:
REMARK  status: ('A' for Active; 'I' for Inactive)
REMARK    1  A    between atoms: C_10  and  O_11
REMARK    2  A    between atoms: O_11  and  C_12
REMARK    3  A    between atoms: N_14  and  C_15
REMARK    4  A    between atoms: C_15  and  C_16
REMARK    5  A    between atoms: C_15  and  C_23
REMARK    6  A    between atoms: C_16  and  C_17
REMARK    7  A    between atoms: C_23  and  O_24
REMARK    8  A    between atoms: C_23  and  C_25
REMARK    9  A    between atoms: C_25  and  N_26
REMARK   10  A    between atoms: N_26  and  C_27
REMARK   11  A    between atoms: N_26  and  S_31
REMARK   12  A    between atoms: C_27  and  C_28
REMARK   13  A    between atoms: C_28  and  C_29
REMARK   14  A    between atoms: C_28  and  C_30
REMARK   15  A    between atoms: S_31  and  C_34
REMARK   16  A    between atoms: C_37  and  N_38
REMARK                            x       y       z     vdW  Elec       q    Type
REMARK                         _______ _______ _______ _____ _____    ______ ____
ROOT
ATOM      1  C   UNL     1      -7.796   1.131 130.122  0.00  0.00    +0.000 C 
ENDROOT
BRANCH   1   4
ATOM      2  C   UNL     1      -7.861   1.481 127.156  0.00  0.00    +0.000 C 
ATOM      3  O   UNL     1      -6.644   1.391 127.002  0.00  0.00    +0.000 OA
ATOM      4  N   UNL     1      -8.634   1.502 128.417  0.00  0.00    +0.000 N 
ATOM      5  H   UNL     1      -9.401   0.794 128.230  0.00  0.00    +0.000 HD
BRANCH   2   6
ATOM      6  O   UNL     1      -8.573   1.447 126.036  0.00  0.00    +0.000 OA
BRANCH   6  14
ATOM      7  C   UNL     1      -8.273   0.391 123.775  0.00  0.00    +0.000 C 
ATOM      8  C   UNL     1      -9.333   1.385 123.347  0.00  0.00    +0.000 C 
ATOM      9  C   UNL     1     -10.245   0.628 122.431  0.00  0.00    +0.000 C 
ATOM     10  O   UNL     1     -10.056  -0.759 122.682  0.00  0.00    +0.000 OA
ATOM     11  C   UNL     1      -8.823  -0.963 123.373  0.00  0.00    +0.000 C 
ATOM     12  O   UNL     1      -9.065  -1.707 124.574  0.00  0.00    +0.000 OA
ATOM     13  C   UNL     1      -9.142  -0.770 125.636  0.00  0.00    +0.000 C 
ATOM     14  C   UNL     1      -8.135   0.280 125.307  0.00  0.00    +0.000 C 
ENDBRANCH   6  14
ENDBRANCH   2   6
ENDBRANCH   1   4
BRANCH   1  15
ATOM     15  C   UNL     1      -8.507  -0.037 130.802  0.00  0.00    +0.000 C 
BRANCH  15  16
ATOM     16  C   UNL     1      -7.985  -1.481 130.526  0.00  0.00    +0.000 A 
ATOM     17  C   UNL     1      -7.927  -2.235 129.305  0.00  0.00    +0.000 A 
ATOM     18  C   UNL     1      -7.217  -3.386 129.065  0.00  0.00    +0.000 A 
ATOM     19  C   UNL     1      -6.557  -3.876 130.138  0.00  0.00    +0.000 A 
ATOM     20  C   UNL     1      -6.621  -3.191 131.357  0.00  0.00    +0.000 A 
ATOM     21  C   UNL     1      -7.238  -1.968 131.526  0.00  0.00    +0.000 A 
ENDBRANCH  15  16
ENDBRANCH   1  15
BRANCH   1  22
ATOM     22  C   UNL     1      -7.887   2.846 131.682  0.00  0.00    +0.000 C 
BRANCH  22  23
ATOM     23  O   UNL     1      -8.350   2.081 133.336  0.00  0.00    +0.000 OA
ATOM     24  H   UNL     1      -7.601   1.547 133.809  0.00  0.00    +0.000 HD
ENDBRANCH  22  23
BRANCH  22  25
ATOM     25  C   UNL     1      -9.260   3.531 132.031  0.00  0.00    +0.000 C 
BRANCH  25  26
ATOM     26  N   UNL     1      -9.132   4.738 131.299  0.00  0.00    +0.000 NA
BRANCH  26  27
ATOM     27  S   UNL     1      -9.997   4.603 129.925  0.00  0.00    +0.000 S 
ATOM     28  O   UNL     1      -9.014   4.469 128.871  0.00  0.00    +0.000 OA
ATOM     29  O   UNL     1     -10.990   3.589 130.189  0.00  0.00    +0.000 OA
BRANCH  27  30
ATOM     30  C   UNL     1     -10.720   6.204 129.888  0.00  0.00    +0.000 A 
ATOM     31  C   UNL     1     -11.847   6.492 130.636  0.00  0.00    +0.000 A 
ATOM     32  C   UNL     1     -12.612   7.611 130.286  0.00  0.00    +0.000 A 
ATOM     33  C   UNL     1     -12.147   8.575 129.394  0.00  0.00    +0.000 A 
ATOM     34  C   UNL     1     -10.973   8.295 128.710  0.00  0.00    +0.000 A 
ATOM     35  C   UNL     1     -10.252   7.126 128.961  0.00  0.00    +0.000 A 
BRANCH  33  36
ATOM     36  N   UNL     1     -12.840   9.755 129.196  0.00  0.00    +0.000 N 
ATOM     37  H   UNL     1     -12.915  10.445 129.931  0.00  0.00    +0.000 HD
ATOM     38  H   UNL     1     -13.153  10.029 128.274  0.00  0.00    +0.000 HD
ENDBRANCH  33  36
ENDBRANCH  27  30
ENDBRANCH  26  27
BRANCH  26  39
ATOM     39  C   UNL     1      -7.740   5.033 131.108  0.00  0.00    +0.000 C 
BRANCH  39  40
ATOM     40  C   UNL     1      -7.536   6.245 131.854  0.00  0.00    +0.000 C 
ATOM     41  C   UNL     1      -6.882   5.660 133.913  0.00  0.00    +0.000 C 
ATOM     42  C   UNL     1      -6.104   7.112 130.922  0.00  0.00    +0.000 C 
ENDBRANCH  39  40
ENDBRANCH  26  39
ENDBRANCH  25  26
ENDBRANCH  22  25
ENDBRANCH   1  22
TORSDOF 14
ENDMDL
MODEL 2
REMARK VINA RESULT:      -9.6      3.304      8.059
REMARK  Name = Darunavir
REMARK  16 active torsions:
REMARK  status: ('A' for Active; 'I' for Inactive)
REMARK    1  A    between atoms: C_10  and  O_11
REMARK    2  A    between atoms: O_11  and  C_12
REMARK    3  A    between atoms: N_14  and  C_15
REMARK    4  A    between atoms: C_15  and  C_16
REMARK    5  A    between atoms: C_15  and  C_23
REMARK    6  A    between atoms: C_16  and  C_17
REMARK    7  A    between atoms: C_23  and  O_24
REMARK    8  A    between atoms: C_23  and  C_25
REMARK    9  A    between atoms: C_25  and  N_26
REMARK   10  A    between atoms: N_26  and  C_27
REMARK   11  A    between atoms: N_26  and  S_31
REMARK   12  A    between atoms: C_27  and  C_28
REMARK   13  A    between atoms: C_28  and  C_29
REMARK   14  A    between atoms: C_28  and  C_30
REMARK   15  A    between atoms: S_31  and  C_34
REMARK   16  A    between atoms: C_37  and  N_38
REMARK                            x       y       z     vdW  Elec       q    Type
REMARK                         _______ _______ _______ _____ _____    ______ ____
ROOT
ATOM      1  C   UNL     1      -7.682   1.257 127.879  0.00  0.00    +0.000 C 
ENDROOT
BRANCH   1   4
ATOM      2  C   UNL     1      -7.342   4.154 128.528  0.00  0.00    +0.000 C 
ATOM      3  O   UNL     1      -7.039   4.493 127.386  0.00  0.00    +0.000 OA
ATOM      4  N   UNL     1      -7.580   2.791 129.056  0.00  0.00    +0.000 N 
ATOM      5  H   UNL     1      -8.493   2.903 129.582  0.00  0.00    +0.000 HD
BRANCH   2   6
ATOM      6  O   UNL     1      -7.590   5.154 129.365  0.00  0.00    +0.000 OA
BRANCH   6  14
ATOM      7  C   UNL     1     -10.037   5.163 129.936  0.00  0.00    +0.000 C 
ATOM      8  C   UNL     1     -10.057   6.446 129.130  0.00  0.00    +0.000 C 
ATOM      9  C   UNL     1     -10.935   7.387 129.896  0.00  0.00    +0.000 C 
ATOM     10  O   UNL     1     -11.015   6.912 131.235  0.00  0.00    +0.000 OA
ATOM     11  C   UNL     1     -10.608   5.543 131.288  0.00  0.00    +0.000 C 
ATOM     12  O   UNL     1      -9.564   5.391 132.258  0.00  0.00    +0.000 OA
ATOM     13  C   UNL     1      -8.334   5.402 131.552  0.00  0.00    +0.000 C 
ATOM     14  C   UNL     1      -8.610   4.685 130.273  0.00  0.00    +0.000 C 
ENDBRANCH   6  14
ENDBRANCH   2   6
ENDBRANCH   1   4
BRANCH   1  15
ATOM     15  C   UNL     1      -7.266  -0.002 128.638  0.00  0.00    +0.000 C 
BRANCH  15  16
ATOM     16  C   UNL     1      -7.958  -1.350 128.267  0.00  0.00    +0.000 A 
ATOM     17  C   UNL     1      -8.309  -1.898 126.986  0.00  0.00    +0.000 A 
ATOM     18  C   UNL     1      -8.664  -3.194 126.700  0.00  0.00    +0.000 A 
ATOM     19  C   UNL     1      -8.747  -4.008 127.775  0.00  0.00    +0.000 A 
ATOM     20  C   UNL     1      -8.451  -3.501 129.046  0.00  0.00    +0.000 A 
ATOM     21  C   UNL     1      -7.971  -2.228 129.279  0.00  0.00    +0.000 A 
ENDBRANCH  15  16
ENDBRANCH   1  15
BRANCH   1  22
ATOM     22  C   UNL     1      -6.274   1.308 126.036  0.00  0.00    +0.000 C 
BRANCH  22  23
ATOM     23  O   UNL     1      -4.855   2.475 126.441  0.00  0.00    +0.000 OA
ATOM     24  H   UNL     1      -4.798   3.330 125.863  0.00  0.00    +0.000 HD
ENDBRANCH  22  23
BRANCH  22  25
ATOM     25  C   UNL     1      -6.416   2.446 124.958  0.00  0.00    +0.000 C 
BRANCH  25  26
ATOM     26  N   UNL     1      -7.168   1.762 123.970  0.00  0.00    +0.000 NA
BRANCH  26  27
ATOM     27  S   UNL     1      -8.415   2.711 123.521  0.00  0.00    +0.000 S 
ATOM     28  O   UNL     1      -9.553   1.822 123.431  0.00  0.00    +0.000 OA
ATOM     29  O   UNL     1      -8.386   3.840 124.420  0.00  0.00    +0.000 OA
BRANCH  27  30
ATOM     30  C   UNL     1      -7.862   3.164 121.916  0.00  0.00    +0.000 A 
ATOM     31  C   UNL     1      -6.515   3.322 121.647  0.00  0.00    +0.000 A 
ATOM     32  C   UNL     1      -6.143   4.054 120.512  0.00  0.00    +0.000 A 
ATOM     33  C   UNL     1      -7.060   4.400 119.522  0.00  0.00    +0.000 A 
ATOM     34  C   UNL     1      -8.401   4.162 119.787  0.00  0.00    +0.000 A 
ATOM     35  C   UNL     1      -8.805   3.535 120.967  0.00  0.00    +0.000 A 
BRANCH  33  36
ATOM     36  N   UNL     1      -6.643   4.968 118.333  0.00  0.00    +0.000 N 
ATOM     37  H   UNL     1      -5.738   5.416 118.259  0.00  0.00    +0.000 HD
ATOM     38  H   UNL     1      -7.152   4.817 117.473  0.00  0.00    +0.000 HD
ENDBRANCH  33  36
ENDBRANCH  27  30
ENDBRANCH  26  27
BRANCH  26  39
ATOM     39  C   UNL     1      -7.543   0.469 124.468  0.00  0.00    +0.000 C 
BRANCH  39  40
ATOM     40  C   UNL     1      -7.119  -0.437 123.436  0.00  0.00    +0.000 C 
ATOM     41  C   UNL     1      -5.597  -1.808 124.336  0.00  0.00    +0.000 C 
ATOM     42  C   UNL     1      -8.714  -1.405 123.002  0.00  0.00    +0.000 C 
ENDBRANCH  39  40
ENDBRANCH  26  39
ENDBRANCH  25  26
ENDBRANCH  22  25
ENDBRANCH   1  22
TORSDOF 14
ENDMDL
MODEL 3
REMARK VINA RESULT:      -9.5      1.694      2.589
REMARK  Name = Darunavir
REMARK  16 active torsions:
REMARK  status: ('A' for Active; 'I' for Inactive)
REMARK    1  A    between atoms: C_10  and  O_11
REMARK    2  A    between atoms: O_11  and  C_12
REMARK    3  A    between atoms: N_14  and  C_15
REMARK    4  A    between atoms: C_15  and  C_16
REMARK    5  A    between atoms: C_15  and  C_23
REMARK    6  A    between atoms: C_16  and  C_17
REMARK    7  A    between atoms: C_23  and  O_24
REMARK    8  A    between atoms: C_23  and  C_25
REMARK    9  A    between atoms: C_25  and  N_26
REMARK   10  A    between atoms: N_26  and  C_27
REMARK   11  A    between atoms: N_26  and  S_31
REMARK   12  A    between atoms: C_27  and  C_28
REMARK   13  A    between atoms: C_28  and  C_29
REMARK   14  A    between atoms: C_28  and  C_30
REMARK   15  A    between atoms: S_31  and  C_34
REMARK   16  A    between atoms: C_37  and  N_38
REMARK                            x       y       z     vdW  Elec       q    Type
REMARK                         _______ _______ _______ _____ _____    ______ ____
ROOT
ATOM      1  C   UNL     1      -7.643   1.508 128.782  0.00  0.00    +0.000 C 
ENDROOT
BRANCH   1   4
ATOM      2  C   UNL     1      -8.244   1.994 125.896  0.00  0.00    +0.000 C 
ATOM      3  O   UNL     1      -8.478   3.193 126.027  0.00  0.00    +0.000 OA
ATOM      4  N   UNL     1      -7.950   0.989 126.942  0.00  0.00    +0.000 N 
ATOM      5  H   UNL     1      -7.093   0.498 126.557  0.00  0.00    +0.000 HD
BRANCH   2   6
ATOM      6  O   UNL     1      -8.138   1.575 124.640  0.00  0.00    +0.000 OA
BRANCH   6  14
ATOM      7  C   UNL     1      -8.207  -0.926 124.405  0.00  0.00    +0.000 C 
ATOM      8  C   UNL     1      -6.808  -0.753 123.852  0.00  0.00    +0.000 C 
ATOM      9  C   UNL     1      -6.722  -1.683 122.680  0.00  0.00    +0.000 C 
ATOM     10  O   UNL     1      -8.050  -1.990 122.274  0.00  0.00    +0.000 OA
ATOM     11  C   UNL     1      -8.964  -1.672 123.324  0.00  0.00    +0.000 C 
ATOM     12  O   UNL     1      -9.983  -0.797 122.825  0.00  0.00    +0.000 OA
ATOM     13  C   UNL     1      -9.608   0.524 123.179  0.00  0.00    +0.000 C 
ATOM     14  C   UNL     1      -8.976   0.405 124.526  0.00  0.00    +0.000 C 
ENDBRANCH   6  14
ENDBRANCH   2   6
ENDBRANCH   1   4
BRANCH   1  15
ATOM     15  C   UNL     1      -8.195   0.436 129.718  0.00  0.00    +0.000 C 
BRANCH  15  16
ATOM     16  C   UNL     1      -7.401  -0.899 129.863  0.00  0.00    +0.000 A 
ATOM     17  C   UNL     1      -7.865  -2.246 130.053  0.00  0.00    +0.000 A 
ATOM     18  C   UNL     1      -7.146  -3.407 129.902  0.00  0.00    +0.000 A 
ATOM     19  C   UNL     1      -5.841  -3.229 129.601  0.00  0.00    +0.000 A 
ATOM     20  C   UNL     1      -5.341  -1.931 129.446  0.00  0.00    +0.000 A 
ATOM     21  C   UNL     1      -6.122  -0.792 129.477  0.00  0.00    +0.000 A 
ENDBRANCH  15  16
ENDBRANCH   1  15
BRANCH   1  22
ATOM     22  C   UNL     1      -8.691   3.462 129.464  0.00  0.00    +0.000 C 
BRANCH  22  23
ATOM     23  O   UNL     1      -7.896   4.886 128.528  0.00  0.00    +0.000 OA
ATOM     24  H   UNL     1      -7.940   5.809 128.992  0.00  0.00    +0.000 HD
ENDBRANCH  22  23
BRANCH  22  25
ATOM     25  C   UNL     1      -8.064   4.345 130.605  0.00  0.00    +0.000 C 
BRANCH  25  26
ATOM     26  N   UNL     1      -9.233   4.690 131.327  0.00  0.00    +0.000 NA
BRANCH  26  27
ATOM     27  S   UNL     1      -9.235   6.302 131.567  0.00  0.00    +0.000 S 
ATOM     28  O   UNL     1      -9.735   6.483 132.914  0.00  0.00    +0.000 OA
ATOM     29  O   UNL     1      -7.927   6.756 131.161  0.00  0.00    +0.000 OA
BRANCH  27  30
ATOM     30  C   UNL     1     -10.459   6.761 130.393  0.00  0.00    +0.000 A 
ATOM     31  C   UNL     1     -10.175   7.667 129.388  0.00  0.00    +0.000 A 
ATOM     32  C   UNL     1     -11.242   8.300 128.740  0.00  0.00    +0.000 A 
ATOM     33  C   UNL     1     -12.558   7.868 128.887  0.00  0.00    +0.000 A 
ATOM     34  C   UNL     1     -12.806   6.903 129.852  0.00  0.00    +0.000 A 
ATOM     35  C   UNL     1     -11.766   6.338 130.593  0.00  0.00    +0.000 A 
BRANCH  33  36
ATOM     36  N   UNL     1     -13.571   8.394 128.108  0.00  0.00    +0.000 N 
ATOM     37  H   UNL     1     -14.540   8.163 128.287  0.00  0.00    +0.000 HD
ATOM     38  H   UNL     1     -13.392   9.138 127.447  0.00  0.00    +0.000 HD
ENDBRANCH  33  36
ENDBRANCH  27  30
ENDBRANCH  26  27
BRANCH  26  39
ATOM     39  C   UNL     1      -9.301   3.903 132.526  0.00  0.00    +0.000 C 
BRANCH  39  40
ATOM     40  C   UNL     1      -7.924   3.691 132.881  0.00  0.00    +0.000 C 
ATOM     41  C   UNL     1      -7.588   4.668 134.865  0.00  0.00    +0.000 C 
ATOM     42  C   UNL     1      -7.787   1.787 133.044  0.00  0.00    +0.000 C 
ENDBRANCH  39  40
ENDBRANCH  26  39
ENDBRANCH  25  26
ENDBRANCH  22  25
ENDBRANCH   1  22
TORSDOF 14
ENDMDL
MODEL 4
REMARK VINA RESULT:      -9.5      3.699      7.326
REMARK  Name = Darunavir
REMARK  16 active torsions:
REMARK  status: ('A' for Active; 'I' for Inactive)
REMARK    1  A    between atoms: C_10  and  O_11
REMARK    2  A    between atoms: O_11  and  C_12
REMARK    3  A    between atoms: N_14  and  C_15
REMARK    4  A    between atoms: C_15  and  C_16
REMARK    5  A    between atoms: C_15  and  C_23
REMARK    6  A    between atoms: C_16  and  C_17
REMARK    7  A    between atoms: C_23  and  O_24
REMARK    8  A    between atoms: C_23  and  C_25
REMARK    9  A    between atoms: C_25  and  N_26
REMARK   10  A    between atoms: N_26  and  C_27
REMARK   11  A    between atoms: N_26  and  S_31
REMARK   12  A    between atoms: C_27  and  C_28
REMARK   13  A    between atoms: C_28  and  C_29
REMARK   14  A    between atoms: C_28  and  C_30
REMARK   15  A    between atoms: S_31  and  C_34
REMARK   16  A    between atoms: C_37  and  N_38
REMARK                            x       y       z     vdW  Elec       q    Type
REMARK                         _______ _______ _______ _____ _____    ______ ____
ROOT
ATOM      1  C   UNL     1      -7.377   1.733 128.832  0.00  0.00    +0.000 C 
ENDROOT
BRANCH   1   4
ATOM      2  C   UNL     1      -8.445   4.521 128.726  0.00  0.00    +0.000 C 
ATOM      3  O   UNL     1      -7.565   4.953 127.984  0.00  0.00    +0.000 OA
ATOM      4  N   UNL     1      -8.562   3.178 129.337  0.00  0.00    +0.000 N 
ATOM      5  H   UNL     1      -9.566   2.913 129.123  0.00  0.00    +0.000 HD
BRANCH   2   6
ATOM      6  O   UNL     1      -9.476   5.337 128.911  0.00  0.00    +0.000 OA
BRANCH   6  14
ATOM      7  C   UNL     1     -11.370   5.323 130.563  0.00  0.00    +0.000 C 
ATOM      8  C   UNL     1     -12.102   6.099 129.488  0.00  0.00    +0.000 C 
ATOM      9  C   UNL     1     -12.850   7.177 130.211  0.00  0.00    +0.000 C 
ATOM     10  O   UNL     1     -12.243   7.344 131.487  0.00  0.00    +0.000 OA
ATOM     11  C   UNL     1     -11.447   6.199 131.797  0.00  0.00    +0.000 C 
ATOM     12  O   UNL     1     -10.113   6.615 132.118  0.00  0.00    +0.000 OA
ATOM     13  C   UNL     1      -9.332   6.448 130.946  0.00  0.00    +0.000 C 
ATOM     14  C   UNL     1      -9.854   5.210 130.298  0.00  0.00    +0.000 C 
ENDBRANCH   6  14
ENDBRANCH   2   6
ENDBRANCH   1   4
BRANCH   1  15
ATOM     15  C   UNL     1      -7.535   0.571 129.811  0.00  0.00    +0.000 C 
BRANCH  15  16
ATOM     16  C   UNL     1      -7.640  -0.874 129.232  0.00  0.00    +0.000 A 
ATOM     17  C   UNL     1      -7.974  -2.115 129.874  0.00  0.00    +0.000 A 
ATOM     18  C   UNL     1      -8.316  -3.302 129.273  0.00  0.00    +0.000 A 
ATOM     19  C   UNL     1      -8.260  -3.288 127.923  0.00  0.00    +0.000 A 
ATOM     20  C   UNL     1      -7.899  -2.109 127.261  0.00  0.00    +0.000 A 
ATOM     21  C   UNL     1      -7.690  -0.899 127.893  0.00  0.00    +0.000 A 
ENDBRANCH  15  16
ENDBRANCH   1  15
BRANCH   1  22
ATOM     22  C   UNL     1      -5.111   2.225 128.885  0.00  0.00    +0.000 C 
BRANCH  22  23
ATOM     23  O   UNL     1      -4.183   0.597 129.053  0.00  0.00    +0.000 OA
ATOM     24  H   UNL     1      -3.752   0.419 129.976  0.00  0.00    +0.000 HD
ENDBRANCH  22  23
BRANCH  22  25
ATOM     25  C   UNL     1      -4.361   2.370 130.261  0.00  0.00    +0.000 C 
BRANCH  25  26
ATOM     26  N   UNL     1      -3.844   3.684 130.128  0.00  0.00    +0.000 NA
BRANCH  26  27
ATOM     27  S   UNL     1      -4.662   4.666 131.139  0.00  0.00    +0.000 S 
ATOM     28  O   UNL     1      -5.411   5.557 130.278  0.00  0.00    +0.000 OA
ATOM     29  O   UNL     1      -5.303   3.793 132.093  0.00  0.00    +0.000 OA
BRANCH  27  30
ATOM     30  C   UNL     1      -3.306   5.513 131.867  0.00  0.00    +0.000 A 
ATOM     31  C   UNL     1      -3.326   6.887 132.019  0.00  0.00    +0.000 A 
ATOM     32  C   UNL     1      -2.110   7.553 132.219  0.00  0.00    +0.000 A 
ATOM     33  C   UNL     1      -0.935   6.872 132.525  0.00  0.00    +0.000 A 
ATOM     34  C   UNL     1      -0.962   5.487 132.438  0.00  0.00    +0.000 A 
ATOM     35  C   UNL     1      -2.139   4.805 132.127  0.00  0.00    +0.000 A 
BRANCH  33  36
ATOM     36  N   UNL     1       0.211   7.555 132.888  0.00  0.00    +0.000 N 
ATOM     37  H   UNL     1       0.203   8.560 133.004  0.00  0.00    +0.000 HD
ATOM     38  H   UNL     1       1.038   7.063 133.198  0.00  0.00    +0.000 HD
ENDBRANCH  33  36
ENDBRANCH  27  30
ENDBRANCH  26  27
BRANCH  26  39
ATOM     39  C   UNL     1      -3.886   4.072 128.746  0.00  0.00    +0.000 C 
BRANCH  39  40
ATOM     40  C   UNL     1      -2.518   4.383 128.432  0.00  0.00    +0.000 C 
ATOM     41  C   UNL     1      -2.000   3.289 126.550  0.00  0.00    +0.000 C 
ATOM     42  C   UNL     1      -2.545   6.273 128.118  0.00  0.00    +0.000 C 
ENDBRANCH  39  40
ENDBRANCH  26  39
ENDBRANCH  25  26
ENDBRANCH  22  25
ENDBRANCH   1  22
TORSDOF 14
ENDMDL
MODEL 5
REMARK VINA RESULT:      -9.5      3.033      8.263
REMARK  Name = Darunavir
REMARK  16 active torsions:
REMARK  status: ('A' for Active; 'I' for Inactive)
REMARK    1  A    between atoms: C_10  and  O_11
REMARK    2  A    between atoms: O_11  and  C_12
REMARK    3  A    between atoms: N_14  and  C_15
REMARK    4  A    between atoms: C_15  and  C_16
REMARK    5  A    between atoms: C_15  and  C_23
REMARK    6  A    between atoms: C_16  and  C_17
REMARK    7  A    between atoms: C_23  and  O_24
REMARK    8  A    between atoms: C_23  and  C_25
REMARK    9  A    between atoms: C_25  and  N_26
REMARK   10  A    between atoms: N_26  and  C_27
REMARK   11  A    between atoms: N_26  and  S_31
REMARK   12  A    between atoms: C_27  and  C_28
REMARK   13  A    between atoms: C_28  and  C_29
REMARK   14  A    between atoms: C_28  and  C_30
REMARK   15  A    between atoms: S_31  and  C_34
REMARK   16  A    between atoms: C_37  and  N_38
REMARK                            x       y       z     vdW  Elec       q    Type
REMARK                         _______ _______ _______ _____ _____    ______ ____
ROOT
ATOM      1  C   UNL     1      -6.760   1.815 129.491  0.00  0.00    +0.000 C 
ENDROOT
BRANCH   1   4
ATOM      2  C   UNL     1      -8.055   4.456 128.964  0.00  0.00    +0.000 C 
ATOM      3  O   UNL     1      -8.599   4.110 127.917  0.00  0.00    +0.000 OA
ATOM      4  N   UNL     1      -7.114   3.691 129.813  0.00  0.00    +0.000 N 
ATOM      5  H   UNL     1      -7.520   3.820 130.784  0.00  0.00    +0.000 HD
BRANCH   2   6
ATOM      6  O   UNL     1      -8.452   5.628 129.445  0.00  0.00    +0.000 OA
BRANCH   6  14
ATOM      7  C   UNL     1     -10.864   5.615 130.151  0.00  0.00    +0.000 C 
ATOM      8  C   UNL     1     -11.026   6.642 129.050  0.00  0.00    +0.000 C 
ATOM      9  C   UNL     1     -11.945   7.686 129.607  0.00  0.00    +0.000 C 
ATOM     10  O   UNL     1     -11.925   7.567 131.025  0.00  0.00    +0.000 OA
ATOM     11  C   UNL     1     -11.404   6.290 131.396  0.00  0.00    +0.000 C 
ATOM     12  O   UNL     1     -10.309   6.465 132.304  0.00  0.00    +0.000 OA
ATOM     13  C   UNL     1      -9.117   6.378 131.541  0.00  0.00    +0.000 C 
ATOM     14  C   UNL     1      -9.389   5.339 130.505  0.00  0.00    +0.000 C 
ENDBRANCH   6  14
ENDBRANCH   2   6
ENDBRANCH   1   4
BRANCH   1  15
ATOM     15  C   UNL     1      -5.257   1.555 129.558  0.00  0.00    +0.000 C 
BRANCH  15  16
ATOM     16  C   UNL     1      -4.321   2.386 128.627  0.00  0.00    +0.000 A 
ATOM     17  C   UNL     1      -4.245   2.446 127.193  0.00  0.00    +0.000 A 
ATOM     18  C   UNL     1      -3.598   3.386 126.429  0.00  0.00    +0.000 A 
ATOM     19  C   UNL     1      -2.911   4.312 127.133  0.00  0.00    +0.000 A 
ATOM     20  C   UNL     1      -2.927   4.264 128.532  0.00  0.00    +0.000 A 
ATOM     21  C   UNL     1      -3.695   3.383 129.267  0.00  0.00    +0.000 A 
ENDBRANCH  15  16
ENDBRANCH   1  15
BRANCH   1  22
ATOM     22  C   UNL     1      -7.388   1.017 127.404  0.00  0.00    +0.000 C 
BRANCH  22  23
ATOM     23  O   UNL     1      -9.152   1.588 127.089  0.00  0.00    +0.000 OA
ATOM     24  H   UNL     1      -9.255   2.402 126.460  0.00  0.00    +0.000 HD
ENDBRANCH  22  23
BRANCH  22  25
ATOM     25  C   UNL     1      -8.191  -0.329 127.277  0.00  0.00    +0.000 C 
BRANCH  25  26
ATOM     26  N   UNL     1      -7.493  -0.938 126.204  0.00  0.00    +0.000 NA
BRANCH  26  27
ATOM     27  S   UNL     1      -8.566  -1.319 125.038  0.00  0.00    +0.000 S 
ATOM     28  O   UNL     1      -8.056  -2.533 124.436  0.00  0.00    +0.000 OA
ATOM     29  O   UNL     1      -9.863  -1.256 125.669  0.00  0.00    +0.000 OA
BRANCH  27  30
ATOM     30  C   UNL     1      -8.316   0.049 123.965  0.00  0.00    +0.000 A 
ATOM     31  C   UNL     1      -7.052   0.569 123.760  0.00  0.00    +0.000 A 
ATOM     32  C   UNL     1      -6.940   1.865 123.242  0.00  0.00    +0.000 A 
ATOM     33  C   UNL     1      -8.028   2.538 122.691  0.00  0.00    +0.000 A 
ATOM     34  C   UNL     1      -9.279   1.958 122.846  0.00  0.00    +0.000 A 
ATOM     35  C   UNL     1      -9.427   0.715 123.464  0.00  0.00    +0.000 A 
BRANCH  33  36
ATOM     36  N   UNL     1      -7.861   3.741 122.031  0.00  0.00    +0.000 N 
ATOM     37  H   UNL     1      -7.147   4.398 122.317  0.00  0.00    +0.000 HD
ATOM     38  H   UNL     1      -8.333   3.929 121.157  0.00  0.00    +0.000 HD
ENDBRANCH  33  36
ENDBRANCH  27  30
ENDBRANCH  26  27
BRANCH  26  39
ATOM     39  C   UNL     1      -6.727  -2.045 126.703  0.00  0.00    +0.000 C 
BRANCH  39  40
ATOM     40  C   UNL     1      -7.264  -2.275 128.017  0.00  0.00    +0.000 C 
ATOM     41  C   UNL     1      -8.729  -3.958 127.853  0.00  0.00    +0.000 C 
ATOM     42  C   UNL     1      -5.738  -2.817 129.039  0.00  0.00    +0.000 C 
ENDBRANCH  39  40
ENDBRANCH  26  39
ENDBRANCH  25  26
ENDBRANCH  22  25
ENDBRANCH   1  22
TORSDOF 14
ENDMDL
MODEL 6
REMARK VINA RESULT:      -9.4      4.655     10.174
REMARK  Name = Darunavir
REMARK  16 active torsions:
REMARK  status: ('A' for Active; 'I' for Inactive)
REMARK    1  A    between atoms: C_10  and  O_11
REMARK    2  A    between atoms: O_11  and  C_12
REMARK    3  A    between atoms: N_14  and  C_15
REMARK    4  A    between atoms: C_15  and  C_16
REMARK    5  A    between atoms: C_15  and  C_23
REMARK    6  A    between atoms: C_16  and  C_17
REMARK    7  A    between atoms: C_23  and  O_24
REMARK    8  A    between atoms: C_23  and  C_25
REMARK    9  A    between atoms: C_25  and  N_26
REMARK   10  A    between atoms: N_26  and  C_27
REMARK   11  A    between atoms: N_26  and  S_31
REMARK   12  A    between atoms: C_27  and  C_28
REMARK   13  A    between atoms: C_28  and  C_29
REMARK   14  A    between atoms: C_28  and  C_30
REMARK   15  A    between atoms: S_31  and  C_34
REMARK   16  A    between atoms: C_37  and  N_38
REMARK                            x       y       z     vdW  Elec       q    Type
REMARK                         _______ _______ _______ _____ _____    ______ ____
ROOT
ATOM      1  C   UNL     1      -6.092   3.056 124.884  0.00  0.00    +0.000 C 
ENDROOT
BRANCH   1   4
ATOM      2  C   UNL     1      -5.015   4.419 127.315  0.00  0.00    +0.000 C 
ATOM      3  O   UNL     1      -4.502   3.411 127.795  0.00  0.00    +0.000 OA
ATOM      4  N   UNL     1      -5.856   4.542 126.103  0.00  0.00    +0.000 N 
ATOM      5  H   UNL     1      -5.411   5.359 125.594  0.00  0.00    +0.000 HD
BRANCH   2   6
ATOM      6  O   UNL     1      -4.678   5.559 127.908  0.00  0.00    +0.000 OA
BRANCH   6  14
ATOM      7  C   UNL     1      -3.457   5.448 130.101  0.00  0.00    +0.000 C 
ATOM      8  C   UNL     1      -4.584   6.334 130.591  0.00  0.00    +0.000 C 
ATOM      9  C   UNL     1      -3.934   7.364 131.464  0.00  0.00    +0.000 C 
ATOM     10  O   UNL     1      -2.551   7.402 131.132  0.00  0.00    +0.000 OA
ATOM     11  C   UNL     1      -2.190   6.214 130.425  0.00  0.00    +0.000 C 
ATOM     12  O   UNL     1      -1.567   6.566 129.183  0.00  0.00    +0.000 OA
ATOM     13  C   UNL     1      -2.564   6.483 128.178  0.00  0.00    +0.000 C 
ATOM     14  C   UNL     1      -3.415   5.321 128.565  0.00  0.00    +0.000 C 
ENDBRANCH   6  14
ENDBRANCH   2   6
ENDBRANCH   1   4
BRANCH   1  15
ATOM     15  C   UNL     1      -7.343   3.279 124.038  0.00  0.00    +0.000 C 
BRANCH  15  16
ATOM     16  C   UNL     1      -7.173   3.437 122.495  0.00  0.00    +0.000 A 
ATOM     17  C   UNL     1      -8.156   3.572 121.456  0.00  0.00    +0.000 A 
ATOM     18  C   UNL     1      -7.952   3.978 120.160  0.00  0.00    +0.000 A 
ATOM     19  C   UNL     1      -6.661   4.209 119.836  0.00  0.00    +0.000 A 
ATOM     20  C   UNL     1      -5.668   4.050 120.810  0.00  0.00    +0.000 A 
ATOM     21  C   UNL     1      -5.924   3.767 122.137  0.00  0.00    +0.000 A 
ENDBRANCH  15  16
ENDBRANCH   1  15
BRANCH   1  22
ATOM     22  C   UNL     1      -6.429   0.986 125.876  0.00  0.00    +0.000 C 
BRANCH  22  23
ATOM     23  O   UNL     1      -4.748   0.161 126.047  0.00  0.00    +0.000 OA
ATOM     24  H   UNL     1      -4.151   0.177 125.203  0.00  0.00    +0.000 HD
ENDBRANCH  22  23
BRANCH  22  25
ATOM     25  C   UNL     1      -6.564  -0.307 124.990  0.00  0.00    +0.000 C 
BRANCH  25  26
ATOM     26  N   UNL     1      -7.591  -0.987 125.691  0.00  0.00    +0.000 NA
BRANCH  26  27
ATOM     27  S   UNL     1      -7.122  -2.529 125.930  0.00  0.00    +0.000 S 
ATOM     28  O   UNL     1      -8.251  -3.336 125.518  0.00  0.00    +0.000 OA
ATOM     29  O   UNL     1      -5.824  -2.640 125.307  0.00  0.00    +0.000 OA
BRANCH  27  30
ATOM     30  C   UNL     1      -6.985  -2.515 127.681  0.00  0.00    +0.000 A 
ATOM     31  C   UNL     1      -5.755  -2.378 128.297  0.00  0.00    +0.000 A 
ATOM     32  C   UNL     1      -5.632  -2.767 129.636  0.00  0.00    +0.000 A 
ATOM     33  C   UNL     1      -6.743  -3.035 130.433  0.00  0.00    +0.000 A 
ATOM     34  C   UNL     1      -7.978  -3.094 129.803  0.00  0.00    +0.000 A 
ATOM     35  C   UNL     1      -8.107  -2.822 128.440  0.00  0.00    +0.000 A 
BRANCH  33  36
ATOM     36  N   UNL     1      -6.609  -3.247 131.792  0.00  0.00    +0.000 N 
ATOM     37  H   UNL     1      -5.840  -3.790 132.162  0.00  0.00    +0.000 HD
ATOM     38  H   UNL     1      -7.177  -2.742 132.459  0.00  0.00    +0.000 HD
ENDBRANCH  33  36
ENDBRANCH  27  30
ENDBRANCH  26  27
BRANCH  26  39
ATOM     39  C   UNL     1      -8.830  -0.837 124.981  0.00  0.00    +0.000 C 
BRANCH  39  40
ATOM     40  C   UNL     1      -8.430  -0.386 123.676  0.00  0.00    +0.000 C 
ATOM     41  C   UNL     1      -8.322  -2.187 122.352  0.00  0.00    +0.000 C 
ATOM     42  C   UNL     1      -9.869   0.755 123.132  0.00  0.00    +0.000 C 
ENDBRANCH  39  40
ENDBRANCH  26  39
ENDBRANCH  25  26
ENDBRANCH  22  25
ENDBRANCH   1  22
TORSDOF 14
ENDMDL
MODEL 7
REMARK VINA RESULT:      -9.4      4.957      8.122
REMARK  Name = Darunavir
REMARK  16 active torsions:
REMARK  status: ('A' for Active; 'I' for Inactive)
REMARK    1  A    between atoms: C_10  and  O_11
REMARK    2  A    between atoms: O_11  and  C_12
REMARK    3  A    between atoms: N_14  and  C_15
REMARK    4  A    between atoms: C_15  and  C_16
REMARK    5  A    between atoms: C_15  and  C_23
REMARK    6  A    between atoms: C_16  and  C_17
REMARK    7  A    between atoms: C_23  and  O_24
REMARK    8  A    between atoms: C_23  and  C_25
REMARK    9  A    between atoms: C_25  and  N_26
REMARK   10  A    between atoms: N_26  and  C_27
REMARK   11  A    between atoms: N_26  and  S_31
REMARK   12  A    between atoms: C_27  and  C_28
REMARK   13  A    between atoms: C_28  and  C_29
REMARK   14  A    between atoms: C_28  and  C_30
REMARK   15  A    between atoms: S_31  and  C_34
REMARK   16  A    between atoms: C_37  and  N_38
REMARK                            x       y       z     vdW  Elec       q    Type
REMARK                         _______ _______ _______ _____ _____    ______ ____
ROOT
ATOM      1  C   UNL     1      -8.566   3.445 131.991  0.00  0.00    +0.000 C 
ENDROOT
BRANCH   1   4
ATOM      2  C   UNL     1     -10.531   5.682 131.744  0.00  0.00    +0.000 C 
ATOM      3  O   UNL     1      -9.891   6.474 132.432  0.00  0.00    +0.000 OA
ATOM      4  N   UNL     1     -10.242   4.258 131.462  0.00  0.00    +0.000 N 
ATOM      5  H   UNL     1     -10.353   4.203 130.409  0.00  0.00    +0.000 HD
BRANCH   2   6
ATOM      6  O   UNL     1     -11.556   6.210 131.084  0.00  0.00    +0.000 OA
BRANCH   6  14
ATOM      7  C   UNL     1     -12.070   8.063 129.467  0.00  0.00    +0.000 C 
ATOM      8  C   UNL     1     -13.285   7.222 129.136  0.00  0.00    +0.000 C 
ATOM      9  C   UNL     1     -13.421   7.284 127.645  0.00  0.00    +0.000 C 
ATOM     10  O   UNL     1     -12.164   7.683 127.112  0.00  0.00    +0.000 OA
ATOM     11  C   UNL     1     -11.367   8.273 128.141  0.00  0.00    +0.000 C 
ATOM     12  O   UNL     1     -10.101   7.605 128.209  0.00  0.00    +0.000 OA
ATOM     13  C   UNL     1     -10.189   6.655 129.259  0.00  0.00    +0.000 C 
ATOM     14  C   UNL     1     -11.023   7.306 130.310  0.00  0.00    +0.000 C 
ENDBRANCH   6  14
ENDBRANCH   2   6
ENDBRANCH   1   4
BRANCH   1  15
ATOM     15  C   UNL     1      -8.573   3.184 133.496  0.00  0.00    +0.000 C 
BRANCH  15  16
ATOM     16  C   UNL     1      -7.680   4.083 134.405  0.00  0.00    +0.000 A 
ATOM     17  C   UNL     1      -8.000   5.273 135.145  0.00  0.00    +0.000 A 
ATOM     18  C   UNL     1      -7.257   5.866 136.137  0.00  0.00    +0.000 A 
ATOM     19  C   UNL     1      -6.065   5.278 136.379  0.00  0.00    +0.000 A 
ATOM     20  C   UNL     1      -5.699   4.140 135.651  0.00  0.00    +0.000 A 
ATOM     21  C   UNL     1      -6.528   3.495 134.754  0.00  0.00    +0.000 A 
ENDBRANCH  15  16
ENDBRANCH   1  15
BRANCH   1  22
ATOM     22  C   UNL     1      -6.669   4.733 131.640  0.00  0.00    +0.000 C 
BRANCH  22  23
ATOM     23  O   UNL     1      -7.125   6.521 132.005  0.00  0.00    +0.000 OA
ATOM     24  H   UNL     1      -7.903   6.660 132.671  0.00  0.00    +0.000 HD
ENDBRANCH  22  23
BRANCH  22  25
ATOM     25  C   UNL     1      -6.444   5.458 130.261  0.00  0.00    +0.000 C 
BRANCH  25  26
ATOM     26  N   UNL     1      -5.066   5.193 130.060  0.00  0.00    +0.000 NA
BRANCH  26  27
ATOM     27  S   UNL     1      -4.265   6.612 130.029  0.00  0.00    +0.000 S 
ATOM     28  O   UNL     1      -3.456   6.563 128.830  0.00  0.00    +0.000 OA
ATOM     29  O   UNL     1      -5.268   7.627 130.245  0.00  0.00    +0.000 OA
BRANCH  27  30
ATOM     30  C   UNL     1      -3.261   6.400 131.455  0.00  0.00    +0.000 A 
ATOM     31  C   UNL     1      -3.777   6.594 132.723  0.00  0.00    +0.000 A 
ATOM     32  C   UNL     1      -2.885   6.811 133.780  0.00  0.00    +0.000 A 
ATOM     33  C   UNL     1      -1.517   6.583 133.652  0.00  0.00    +0.000 A 
ATOM     34  C   UNL     1      -1.033   6.317 132.379  0.00  0.00    +0.000 A 
ATOM     35  C   UNL     1      -1.895   6.210 131.286  0.00  0.00    +0.000 A 
BRANCH  33  36
ATOM     36  N   UNL     1      -0.680   6.636 134.751  0.00  0.00    +0.000 N 
ATOM     37  H   UNL     1      -0.589   5.846 135.375  0.00  0.00    +0.000 HD
ATOM     38  H   UNL     1      -0.023   7.396 134.873  0.00  0.00    +0.000 HD
ENDBRANCH  33  36
ENDBRANCH  27  30
ENDBRANCH  26  27
BRANCH  26  39
ATOM     39  C   UNL     1      -4.905   4.385 128.885  0.00  0.00    +0.000 C 
BRANCH  39  40
ATOM     40  C   UNL     1      -3.955   3.380 129.281  0.00  0.00    +0.000 C 
ATOM     41  C   UNL     1      -5.099   1.499 129.679  0.00  0.00    +0.000 C 
ATOM     42  C   UNL     1      -2.847   3.171 127.733  0.00  0.00    +0.000 C 
ENDBRANCH  39  40
ENDBRANCH  26  39
ENDBRANCH  25  26
ENDBRANCH  22  25
ENDBRANCH   1  22
TORSDOF 14
ENDMDL
MODEL 8
REMARK VINA RESULT:      -9.3      4.296      7.437
REMARK  Name = Darunavir
REMARK  16 active torsions:
REMARK  status: ('A' for Active; 'I' for Inactive)
REMARK    1  A    between atoms: C_10  and  O_11
REMARK    2  A    between atoms: O_11  and  C_12
REMARK    3  A    between atoms: N_14  and  C_15
REMARK    4  A    between atoms: C_15  and  C_16
REMARK    5  A    between atoms: C_15  and  C_23
REMARK    6  A    between atoms: C_16  and  C_17
REMARK    7  A    between atoms: C_23  and  O_24
REMARK    8  A    between atoms: C_23  and  C_25
REMARK    9  A    between atoms: C_25  and  N_26
REMARK   10  A    between atoms: N_26  and  C_27
REMARK   11  A    between atoms: N_26  and  S_31
REMARK   12  A    between atoms: C_27  and  C_28
REMARK   13  A    between atoms: C_28  and  C_29
REMARK   14  A    between atoms: C_28  and  C_30
REMARK   15  A    between atoms: S_31  and  C_34
REMARK   16  A    between atoms: C_37  and  N_38
REMARK                            x       y       z     vdW  Elec       q    Type
REMARK                         _______ _______ _______ _____ _____    ______ ____
ROOT
ATOM      1  C   UNL     1      -8.609   3.573 132.607  0.00  0.00    +0.000 C 
ENDROOT
BRANCH   1   4
ATOM      2  C   UNL     1     -10.501   5.755 131.840  0.00  0.00    +0.000 C 
ATOM      3  O   UNL     1      -9.925   6.636 132.476  0.00  0.00    +0.000 OA
ATOM      4  N   UNL     1     -10.206   4.305 131.793  0.00  0.00    +0.000 N 
ATOM      5  H   UNL     1     -10.205   4.103 130.753  0.00  0.00    +0.000 HD
BRANCH   2   6
ATOM      6  O   UNL     1     -11.441   6.185 131.008  0.00  0.00    +0.000 OA
BRANCH   6  14
ATOM      7  C   UNL     1     -11.829   8.089 129.413  0.00  0.00    +0.000 C 
ATOM      8  C   UNL     1     -13.153   7.398 129.161  0.00  0.00    +0.000 C 
ATOM      9  C   UNL     1     -13.371   7.477 127.681  0.00  0.00    +0.000 C 
ATOM     10  O   UNL     1     -12.110   7.726 127.071  0.00  0.00    +0.000 OA
ATOM     11  C   UNL     1     -11.188   8.216 128.046  0.00  0.00    +0.000 C 
ATOM     12  O   UNL     1     -10.009   7.402 128.042  0.00  0.00    +0.000 OA
ATOM     13  C   UNL     1     -10.144   6.467 129.100  0.00  0.00    +0.000 C 
ATOM     14  C   UNL     1     -10.831   7.212 130.196  0.00  0.00    +0.000 C 
ENDBRANCH   6  14
ENDBRANCH   2   6
ENDBRANCH   1   4
BRANCH   1  15
ATOM     15  C   UNL     1      -8.770   2.066 132.793  0.00  0.00    +0.000 C 
BRANCH  15  16
ATOM     16  C   UNL     1      -8.173   1.120 131.705  0.00  0.00    +0.000 A 
ATOM     17  C   UNL     1      -8.421  -0.270 131.438  0.00  0.00    +0.000 A 
ATOM     18  C   UNL     1      -8.081  -0.979 130.312  0.00  0.00    +0.000 A 
ATOM     19  C   UNL     1      -7.377  -0.280 129.395  0.00  0.00    +0.000 A 
ATOM     20  C   UNL     1      -7.081   1.067 129.635  0.00  0.00    +0.000 A 
ATOM     21  C   UNL     1      -7.552   1.782 130.719  0.00  0.00    +0.000 A 
ENDBRANCH  15  16
ENDBRANCH   1  15
BRANCH   1  22
ATOM     22  C   UNL     1      -8.110   4.363 134.730  0.00  0.00    +0.000 C 
BRANCH  22  23
ATOM     23  O   UNL     1      -8.649   6.164 134.804  0.00  0.00    +0.000 OA
ATOM     24  H   UNL     1      -9.629   6.351 134.534  0.00  0.00    +0.000 HD
ENDBRANCH  22  23
BRANCH  22  25
ATOM     25  C   UNL     1      -6.766   5.138 134.996  0.00  0.00    +0.000 C 
BRANCH  25  26
ATOM     26  N   UNL     1      -5.920   4.502 134.053  0.00  0.00    +0.000 NA
BRANCH  26  27
ATOM     27  S   UNL     1      -4.862   3.561 134.859  0.00  0.00    +0.000 S 
ATOM     28  O   UNL     1      -3.556   4.086 134.524  0.00  0.00    +0.000 OA
ATOM     29  O   UNL     1      -5.348   3.508 136.217  0.00  0.00    +0.000 OA
BRANCH  27  30
ATOM     30  C   UNL     1      -5.144   2.040 134.025  0.00  0.00    +0.000 A 
ATOM     31  C   UNL     1      -5.867   1.025 134.624  0.00  0.00    +0.000 A 
ATOM     32  C   UNL     1      -5.733  -0.275 134.121  0.00  0.00    +0.000 A 
ATOM     33  C   UNL     1      -5.113  -0.536 132.901  0.00  0.00    +0.000 A 
ATOM     34  C   UNL     1      -4.457   0.519 132.283  0.00  0.00    +0.000 A 
ATOM     35  C   UNL     1      -4.481   1.804 132.828  0.00  0.00    +0.000 A 
BRANCH  33  36
ATOM     36  N   UNL     1      -5.144  -1.800 132.343  0.00  0.00    +0.000 N 
ATOM     37  H   UNL     1      -4.534  -2.045 131.574  0.00  0.00    +0.000 HD
ATOM     38  H   UNL     1      -5.655  -2.554 132.783  0.00  0.00    +0.000 HD
ENDBRANCH  33  36
ENDBRANCH  27  30
ENDBRANCH  26  27
BRANCH  26  39
ATOM     39  C   UNL     1      -5.319   5.496 133.208  0.00  0.00    +0.000 C 
BRANCH  39  40
ATOM     40  C   UNL     1      -5.758   5.140 131.886  0.00  0.00    +0.000 C 
ATOM     41  C   UNL     1      -6.891   6.886 131.066  0.00  0.00    +0.000 C 
ATOM     42  C   UNL     1      -4.123   4.893 130.919  0.00  0.00    +0.000 C 
ENDBRANCH  39  40
ENDBRANCH  26  39
ENDBRANCH  25  26
ENDBRANCH  22  25
ENDBRANCH   1  22
TORSDOF 14
ENDMDL
MODEL 9
REMARK VINA RESULT:      -9.2      2.929      8.101
REMARK  Name = Darunavir
REMARK  16 active torsions:
REMARK  status: ('A' for Active; 'I' for Inactive)
REMARK    1  A    between atoms: C_10  and  O_11
REMARK    2  A    between atoms: O_11  and  C_12
REMARK    3  A    between atoms: N_14  and  C_15
REMARK    4  A    between atoms: C_15  and  C_16
REMARK    5  A    between atoms: C_15  and  C_23
REMARK    6  A    between atoms: C_16  and  C_17
REMARK    7  A    between atoms: C_23  and  O_24
REMARK    8  A    between atoms: C_23  and  C_25
REMARK    9  A    between atoms: C_25  and  N_26
REMARK   10  A    between atoms: N_26  and  C_27
REMARK   11  A    between atoms: N_26  and  S_31
REMARK   12  A    between atoms: C_27  and  C_28
REMARK   13  A    between atoms: C_28  and  C_29
REMARK   14  A    between atoms: C_28  and  C_30
REMARK   15  A    between atoms: S_31  and  C_34
REMARK   16  A    between atoms: C_37  and  N_38
REMARK                            x       y       z     vdW  Elec       q    Type
REMARK                         _______ _______ _______ _____ _____    ______ ____
ROOT
ATOM      1  C   UNL     1      -8.067   1.306 128.782  0.00  0.00    +0.000 C 
ENDROOT
BRANCH   1   4
ATOM      2  C   UNL     1      -7.946   4.288 128.925  0.00  0.00    +0.000 C 
ATOM      3  O   UNL     1      -7.272   4.425 127.906  0.00  0.00    +0.000 OA
ATOM      4  N   UNL     1      -8.359   3.037 129.599  0.00  0.00    +0.000 N 
ATOM      5  H   UNL     1      -9.396   3.190 129.758  0.00  0.00    +0.000 HD
BRANCH   2   6
ATOM      6  O   UNL     1      -8.456   5.410 129.418  0.00  0.00    +0.000 OA
BRANCH   6  14
ATOM      7  C   UNL     1     -10.185   5.025 131.200  0.00  0.00    +0.000 C 
ATOM      8  C   UNL     1     -11.115   5.715 130.223  0.00  0.00    +0.000 C 
ATOM      9  C   UNL     1     -11.963   6.629 131.054  0.00  0.00    +0.000 C 
ATOM     10  O   UNL     1     -11.290   6.840 132.289  0.00  0.00    +0.000 OA
ATOM     11  C   UNL     1     -10.300   5.828 132.481  0.00  0.00    +0.000 C 
ATOM     12  O   UNL     1      -9.028   6.440 132.725  0.00  0.00    +0.000 OA
ATOM     13  C   UNL     1      -8.327   6.449 131.492  0.00  0.00    +0.000 C 
ATOM     14  C   UNL     1      -8.697   5.170 130.821  0.00  0.00    +0.000 C 
ENDBRANCH   6  14
ENDBRANCH   2   6
ENDBRANCH   1   4
BRANCH   1  15
ATOM     15  C   UNL     1      -6.706   0.758 129.208  0.00  0.00    +0.000 C 
BRANCH  15  16
ATOM     16  C   UNL     1      -6.627  -0.719 129.702  0.00  0.00    +0.000 A 
ATOM     17  C   UNL     1      -5.967  -1.287 130.846  0.00  0.00    +0.000 A 
ATOM     18  C   UNL     1      -6.152  -2.538 131.382  0.00  0.00    +0.000 A 
ATOM     19  C   UNL     1      -7.012  -3.325 130.698  0.00  0.00    +0.000 A 
ATOM     20  C   UNL     1      -7.645  -2.822 129.555  0.00  0.00    +0.000 A 
ATOM     21  C   UNL     1      -7.534  -1.516 129.121  0.00  0.00    +0.000 A 
ENDBRANCH  15  16
ENDBRANCH   1  15
BRANCH   1  22
ATOM     22  C   UNL     1      -7.993   1.289 126.463  0.00  0.00    +0.000 C 
BRANCH  22  23
ATOM     23  O   UNL     1      -8.815   2.869 125.860  0.00  0.00    +0.000 OA
ATOM     24  H   UNL     1      -8.624   3.717 126.420  0.00  0.00    +0.000 HD
ENDBRANCH  22  23
BRANCH  22  25
ATOM     25  C   UNL     1      -9.223   0.768 125.632  0.00  0.00    +0.000 C 
BRANCH  25  26
ATOM     26  N   UNL     1      -8.592   0.495 124.393  0.00  0.00    +0.000 NA
BRANCH  26  27
ATOM     27  S   UNL     1      -9.560   1.022 123.192  0.00  0.00    +0.000 S 
ATOM     28  O   UNL     1      -9.694  -0.104 122.293  0.00  0.00    +0.000 OA
ATOM     29  O   UNL     1     -10.696   1.626 123.847  0.00  0.00    +0.000 OA
BRANCH  27  30
ATOM     30  C   UNL     1      -8.507   2.242 122.495  0.00  0.00    +0.000 A 
ATOM     31  C   UNL     1      -8.960   3.088 121.500  0.00  0.00    +0.000 A 
ATOM     32  C   UNL     1      -8.016   3.751 120.706  0.00  0.00    +0.000 A 
ATOM     33  C   UNL     1      -6.665   3.794 121.044  0.00  0.00    +0.000 A 
ATOM     34  C   UNL     1      -6.248   2.991 122.096  0.00  0.00    +0.000 A 
ATOM     35  C   UNL     1      -7.159   2.230 122.830  0.00  0.00    +0.000 A 
BRANCH  33  36
ATOM     36  N   UNL     1      -5.782   4.595 120.345  0.00  0.00    +0.000 N 
ATOM     37  H   UNL     1      -5.077   5.137 120.827  0.00  0.00    +0.000 HD
ATOM     38  H   UNL     1      -5.710   4.541 119.338  0.00  0.00    +0.000 HD
ENDBRANCH  33  36
ENDBRANCH  27  30
ENDBRANCH  26  27
BRANCH  26  39
ATOM     39  C   UNL     1      -8.256  -0.899 124.328  0.00  0.00    +0.000 C 
BRANCH  39  40
ATOM     40  C   UNL     1      -6.823  -0.906 124.208  0.00  0.00    +0.000 C 
ATOM     41  C   UNL     1      -6.017  -2.115 125.909  0.00  0.00    +0.000 C 
ATOM     42  C   UNL     1      -6.514  -1.806 122.545  0.00  0.00    +0.000 C 
ENDBRANCH  39  40
ENDBRANCH  26  39
ENDBRANCH  25  26
ENDBRANCH  22  25
ENDBRANCH   1  22
TORSDOF 14
ENDMDL
