MODEL 1
REMARK VINA RESULT:      -9.1      0.000      0.000
REMARK  Name = Daunorubicin
REMARK  12 active torsions:
REMARK  status: ('A' for Active; 'I' for Inactive)
REMARK    1  A    between atoms: C_1  and  O_2
REMARK    2  A    between atoms: O_2  and  C_3
REMARK    3  A    between atoms: C_12  and  O_13
REMARK    4  A    between atoms: C_17  and  O_18
REMARK    5  A    between atoms: C_17  and  C_31
REMARK    6  A    between atoms: C_20  and  O_21
REMARK    7  A    between atoms: O_21  and  C_22
REMARK    8  A    between atoms: C_24  and  N_25
REMARK    9  A    between atoms: C_26  and  O_27
REMARK   10  A    between atoms: C_28  and  C_29
REMARK   11  A    between atoms: C_31  and  C_32
REMARK   12  A    between atoms: C_34  and  O_35
REMARK                            x       y       z     vdW  Elec       q    Type
REMARK                         _______ _______ _______ _____ _____    ______ ____
ROOT
ATOM      1  C   UNL     1      -7.472   1.231 123.948  0.00  0.00    +0.000 A 
ATOM      2  C   UNL     1      -6.952   0.076 123.340  0.00  0.00    +0.000 A 
ATOM      3  C   UNL     1      -6.166  -0.837 124.052  0.00  0.00    +0.000 A 
ATOM      4  C   UNL     1      -5.889  -0.605 125.391  0.00  0.00    +0.000 A 
ATOM      5  C   UNL     1      -6.409   0.533 126.015  0.00  0.00    +0.000 A 
ATOM      6  C   UNL     1      -7.222   1.433 125.310  0.00  0.00    +0.000 A 
ATOM      7  C   UNL     1      -7.900   2.464 126.088  0.00  0.00    +0.000 C 
ATOM      8  O   UNL     1      -8.939   3.020 125.713  0.00  0.00    +0.000 OA
ATOM      9  C   UNL     1      -7.446   2.812 127.420  0.00  0.00    +0.000 A 
ATOM     10  C   UNL     1      -7.940   3.969 128.011  0.00  0.00    +0.000 A 
ATOM     11  C   UNL     1      -7.706   4.197 129.362  0.00  0.00    +0.000 A 
ATOM     12  C   UNL     1      -6.929   3.297 130.116  0.00  0.00    +0.000 A 
ATOM     13  C   UNL     1      -6.649   3.578 131.576  0.00  0.00    +0.000 C 
ATOM     14  C   UNL     1      -7.609   4.599 132.171  0.00  0.00    +0.000 C 
ATOM     15  C   UNL     1      -7.599   5.823 131.271  0.00  0.00    +0.000 C 
ATOM     16  C   UNL     1      -8.290   5.433 129.976  0.00  0.00    +0.000 C 
ATOM     17  C   UNL     1      -6.382   2.177 129.483  0.00  0.00    +0.000 A 
ATOM     18  C   UNL     1      -6.642   1.926 128.133  0.00  0.00    +0.000 A 
ATOM     19  C   UNL     1      -6.122   0.726 127.447  0.00  0.00    +0.000 C 
ATOM     20  O   UNL     1      -5.441  -0.119 128.022  0.00  0.00    +0.000 OA
ENDROOT
BRANCH  14  21
ATOM     21  C   UNL     1      -7.163   5.007 133.569  0.00  0.00    +0.000 C 
ATOM     22  C   UNL     1      -8.048   4.568 134.706  0.00  0.00    +0.000 C 
ATOM     23  O   UNL     1      -6.153   5.685 133.757  0.00  0.00    +0.000 OA
ENDBRANCH  14  21
BRANCH   1  25
ATOM     24  C   UNL     1      -7.764   3.007 122.350  0.00  0.00    +0.000 C 
ATOM     25  O   UNL     1      -8.317   1.971 123.166  0.00  0.00    +0.000 OA
ENDBRANCH   1  25
BRANCH  10  26
ATOM     26  O   UNL     1      -8.648   4.922 127.317  0.00  0.00    +0.000 OA
ATOM     27  H   UNL     1      -8.960   5.611 127.946  0.00  0.00    +0.000 HD
ENDBRANCH  10  26
BRANCH  14  28
ATOM     28  O   UNL     1      -8.903   3.995 132.291  0.00  0.00    +0.000 OA
ATOM     29  H   UNL     1      -9.143   3.541 131.454  0.00  0.00    +0.000 HD
ENDBRANCH  14  28
BRANCH  17  30
ATOM     30  O   UNL     1      -5.607   1.301 130.182  0.00  0.00    +0.000 OA
ATOM     31  H   UNL     1      -4.822   1.018 129.693  0.00  0.00    +0.000 HD
ENDBRANCH  17  30
BRANCH  16  32
ATOM     32  O   UNL     1      -9.727   5.255 130.163  0.00  0.00    +0.000 OA
BRANCH  32  33
ATOM     33  C   UNL     1     -10.447   6.251 129.411  0.00  0.00    +0.000 C 
ATOM     34  C   UNL     1     -11.688   6.584 130.224  0.00  0.00    +0.000 C 
ATOM     35  C   UNL     1     -12.656   7.511 129.560  0.00  0.00    +0.000 C 
ATOM     36  C   UNL     1     -11.866   8.751 129.146  0.00  0.00    +0.000 C 
ATOM     37  C   UNL     1     -10.626   8.366 128.302  0.00  0.00    +0.000 C 
ATOM     38  C   UNL     1     -11.011   7.775 126.930  0.00  0.00    +0.000 C 
ATOM     39  O   UNL     1      -9.759   7.471 129.068  0.00  0.00    +0.000 OA
BRANCH  35  40
ATOM     40  N   UNL     1     -13.414   6.791 128.521  0.00  0.00    +0.000 NA
ATOM     41  H   UNL     1     -14.300   7.221 128.272  0.00  0.00    +0.000 HD
ATOM     42  H   UNL     1     -13.591   5.829 128.783  0.00  0.00    +0.000 HD
ENDBRANCH  35  40
BRANCH  36  43
ATOM     43  O   UNL     1     -12.726   9.686 128.508  0.00  0.00    +0.000 OA
ATOM     44  H   UNL     1     -12.177  10.286 127.982  0.00  0.00    +0.000 HD
ENDBRANCH  36  43
ENDBRANCH  32  33
ENDBRANCH  16  32
TORSDOF 9
ENDMDL
MODEL 2
REMARK VINA RESULT:      -8.9      2.464      3.176
REMARK  Name = Daunorubicin
REMARK  12 active torsions:
REMARK  status: ('A' for Active; 'I' for Inactive)
REMARK    1  A    between atoms: C_1  and  O_2
REMARK    2  A    between atoms: O_2  and  C_3
REMARK    3  A    between atoms: C_12  and  O_13
REMARK    4  A    between atoms: C_17  and  O_18
REMARK    5  A    between atoms: C_17  and  C_31
REMARK    6  A    between atoms: C_20  and  O_21
REMARK    7  A    between atoms: O_21  and  C_22
REMARK    8  A    between atoms: C_24  and  N_25
REMARK    9  A    between atoms: C_26  and  O_27
REMARK   10  A    between atoms: C_28  and  C_29
REMARK   11  A    between atoms: C_31  and  C_32
REMARK   12  A    between atoms: C_34  and  O_35
REMARK                            x       y       z     vdW  Elec       q    Type
REMARK                         _______ _______ _______ _____ _____    ______ ____
ROOT
ATOM      1  C   UNL     1      -9.130  -0.310 123.756  0.00  0.00    +0.000 A 
ATOM      2  C   UNL     1      -9.041  -1.388 122.859  0.00  0.00    +0.000 A 
ATOM      3  C   UNL     1      -8.470  -2.609 123.235  0.00  0.00    +0.000 A 
ATOM      4  C   UNL     1      -7.976  -2.768 124.521  0.00  0.00    +0.000 A 
ATOM      5  C   UNL     1      -8.068  -1.709 125.430  0.00  0.00    +0.000 A 
ATOM      6  C   UNL     1      -8.668  -0.495 125.063  0.00  0.00    +0.000 A 
ATOM      7  C   UNL     1      -8.921   0.468 126.130  0.00  0.00    +0.000 C 
ATOM      8  O   UNL     1      -9.794   1.341 126.059  0.00  0.00    +0.000 OA
ATOM      9  C   UNL     1      -8.228   0.374 127.399  0.00  0.00    +0.000 A 
ATOM     10  C   UNL     1      -8.293   1.452 128.275  0.00  0.00    +0.000 A 
ATOM     11  C   UNL     1      -7.840   1.297 129.580  0.00  0.00    +0.000 A 
ATOM     12  C   UNL     1      -7.269   0.080 130.000  0.00  0.00    +0.000 A 
ATOM     13  C   UNL     1      -6.744  -0.061 131.413  0.00  0.00    +0.000 C 
ATOM     14  C   UNL     1      -7.291   1.006 132.350  0.00  0.00    +0.000 C 
ATOM     15  C   UNL     1      -7.040   2.360 131.708  0.00  0.00    +0.000 C 
ATOM     16  C   UNL     1      -7.965   2.466 130.509  0.00  0.00    +0.000 C 
ATOM     17  C   UNL     1      -7.148  -0.966 129.082  0.00  0.00    +0.000 A 
ATOM     18  C   UNL     1      -7.632  -0.826 127.777  0.00  0.00    +0.000 A 
ATOM     19  C   UNL     1      -7.565  -1.929 126.798  0.00  0.00    +0.000 C 
ATOM     20  O   UNL     1      -7.091  -3.028 127.073  0.00  0.00    +0.000 OA
ENDROOT
BRANCH  14  21
ATOM     21  C   UNL     1      -6.580   0.956 133.696  0.00  0.00    +0.000 C 
ATOM     22  C   UNL     1      -6.037   2.263 134.213  0.00  0.00    +0.000 C 
ATOM     23  O   UNL     1      -6.431  -0.098 134.314  0.00  0.00    +0.000 OA
ENDBRANCH  14  21
BRANCH   1  25
ATOM     24  C   UNL     1      -9.073   1.882 122.761  0.00  0.00    +0.000 C 
ATOM     25  O   UNL     1      -9.815   0.781 123.291  0.00  0.00    +0.000 OA
ENDBRANCH   1  25
BRANCH  10  26
ATOM     26  O   UNL     1      -8.776   2.686 127.910  0.00  0.00    +0.000 OA
ATOM     27  H   UNL     1      -8.283   3.002 127.119  0.00  0.00    +0.000 HD
ENDBRANCH  10  26
BRANCH  14  28
ATOM     28  O   UNL     1      -8.679   0.740 132.587  0.00  0.00    +0.000 OA
ATOM     29  H   UNL     1      -8.933   1.046 133.484  0.00  0.00    +0.000 HD
ENDBRANCH  14  28
BRANCH  17  30
ATOM     30  O   UNL     1      -6.577  -2.146 129.453  0.00  0.00    +0.000 OA
ATOM     31  H   UNL     1      -6.803  -2.878 128.863  0.00  0.00    +0.000 HD
ENDBRANCH  17  30
BRANCH  16  32
ATOM     32  O   UNL     1      -9.360   2.622 130.916  0.00  0.00    +0.000 OA
BRANCH  32  33
ATOM     33  C   UNL     1      -9.731   4.013 130.872  0.00  0.00    +0.000 C 
ATOM     34  C   UNL     1     -11.148   4.059 130.325  0.00  0.00    +0.000 C 
ATOM     35  C   UNL     1     -11.690   5.429 130.069  0.00  0.00    +0.000 C 
ATOM     36  C   UNL     1     -11.529   6.216 131.369  0.00  0.00    +0.000 C 
ATOM     37  C   UNL     1     -10.066   6.162 131.875  0.00  0.00    +0.000 C 
ATOM     38  C   UNL     1      -9.093   6.909 130.940  0.00  0.00    +0.000 C 
ATOM     39  O   UNL     1      -9.666   4.772 132.096  0.00  0.00    +0.000 OA
BRANCH  35  40
ATOM     40  N   UNL     1     -11.097   5.987 128.841  0.00  0.00    +0.000 NA
ATOM     41  H   UNL     1     -11.166   5.382 128.028  0.00  0.00    +0.000 HD
ATOM     42  H   UNL     1     -10.124   6.234 128.971  0.00  0.00    +0.000 HD
ENDBRANCH  35  40
BRANCH  36  43
ATOM     43  O   UNL     1     -12.030   7.537 131.204  0.00  0.00    +0.000 OA
ATOM     44  H   UNL     1     -12.233   7.663 130.265  0.00  0.00    +0.000 HD
ENDBRANCH  36  43
ENDBRANCH  32  33
ENDBRANCH  16  32
TORSDOF 9
ENDMDL
MODEL 3
REMARK VINA RESULT:      -8.7      3.315      4.490
REMARK  Name = Daunorubicin
REMARK  12 active torsions:
REMARK  status: ('A' for Active; 'I' for Inactive)
REMARK    1  A    between atoms: C_1  and  O_2
REMARK    2  A    between atoms: O_2  and  C_3
REMARK    3  A    between atoms: C_12  and  O_13
REMARK    4  A    between atoms: C_17  and  O_18
REMARK    5  A    between atoms: C_17  and  C_31
REMARK    6  A    between atoms: C_20  and  O_21
REMARK    7  A    between atoms: O_21  and  C_22
REMARK    8  A    between atoms: C_24  and  N_25
REMARK    9  A    between atoms: C_26  and  O_27
REMARK   10  A    between atoms: C_28  and  C_29
REMARK   11  A    between atoms: C_31  and  C_32
REMARK   12  A    between atoms: C_34  and  O_35
REMARK                            x       y       z     vdW  Elec       q    Type
REMARK                         _______ _______ _______ _____ _____    ______ ____
ROOT
ATOM      1  C   UNL     1      -8.936  -0.816 123.751  0.00  0.00    +0.000 A 
ATOM      2  C   UNL     1      -9.306  -1.806 122.824  0.00  0.00    +0.000 A 
ATOM      3  C   UNL     1      -9.395  -3.155 123.189  0.00  0.00    +0.000 A 
ATOM      4  C   UNL     1      -9.114  -3.532 124.493  0.00  0.00    +0.000 A 
ATOM      5  C   UNL     1      -8.757  -2.558 125.431  0.00  0.00    +0.000 A 
ATOM      6  C   UNL     1      -8.697  -1.203 125.074  0.00  0.00    +0.000 A 
ATOM      7  C   UNL     1      -8.537  -0.238 126.157  0.00  0.00    +0.000 C 
ATOM      8  O   UNL     1      -8.895   0.942 126.069  0.00  0.00    +0.000 OA
ATOM      9  C   UNL     1      -8.048  -0.651 127.457  0.00  0.00    +0.000 A 
ATOM     10  C   UNL     1      -7.656   0.327 128.364  0.00  0.00    +0.000 A 
ATOM     11  C   UNL     1      -7.411  -0.028 129.685  0.00  0.00    +0.000 A 
ATOM     12  C   UNL     1      -7.500  -1.373 130.094  0.00  0.00    +0.000 A 
ATOM     13  C   UNL     1      -7.191  -1.750 131.526  0.00  0.00    +0.000 C 
ATOM     14  C   UNL     1      -7.233  -0.555 132.469  0.00  0.00    +0.000 C 
ATOM     15  C   UNL     1      -6.340   0.527 131.886  0.00  0.00    +0.000 C 
ATOM     16  C   UNL     1      -7.033   1.059 130.644  0.00  0.00    +0.000 C 
ATOM     17  C   UNL     1      -7.825  -2.349 129.149  0.00  0.00    +0.000 A 
ATOM     18  C   UNL     1      -8.106  -1.993 127.826  0.00  0.00    +0.000 A 
ATOM     19  C   UNL     1      -8.501  -2.994 126.815  0.00  0.00    +0.000 C 
ATOM     20  O   UNL     1      -8.612  -4.188 127.078  0.00  0.00    +0.000 OA
ENDROOT
BRANCH  14  21
ATOM     21  C   UNL     1      -6.713  -0.938 133.848  0.00  0.00    +0.000 C 
ATOM     22  C   UNL     1      -6.652  -2.413 134.153  0.00  0.00    +0.000 C 
ATOM     23  O   UNL     1      -6.388  -0.090 134.679  0.00  0.00    +0.000 OA
ENDBRANCH  14  21
BRANCH   1  25
ATOM     24  C   UNL     1     -10.133   0.858 122.502  0.00  0.00    +0.000 C 
ATOM     25  O   UNL     1      -9.003   0.470 123.287  0.00  0.00    +0.000 OA
ENDBRANCH   1  25
BRANCH  10  26
ATOM     26  O   UNL     1      -7.484   1.646 128.015  0.00  0.00    +0.000 OA
ATOM     27  H   UNL     1      -6.938   1.692 127.197  0.00  0.00    +0.000 HD
ENDBRANCH  10  26
BRANCH  14  28
ATOM     28  O   UNL     1      -8.597  -0.141 132.623  0.00  0.00    +0.000 OA
ATOM     29  H   UNL     1      -8.650   0.624 133.235  0.00  0.00    +0.000 HD
ENDBRANCH  14  28
BRANCH  17  30
ATOM     30  O   UNL     1      -7.896  -3.661 129.511  0.00  0.00    +0.000 OA
ATOM     31  H   UNL     1      -7.441  -4.249 128.892  0.00  0.00    +0.000 HD
ENDBRANCH  17  30
BRANCH  16  32
ATOM     32  O   UNL     1      -8.215   1.848 130.982  0.00  0.00    +0.000 OA
BRANCH  32  33
ATOM     33  C   UNL     1      -7.986   3.234 130.669  0.00  0.00    +0.000 C 
ATOM     34  C   UNL     1      -9.311   3.782 130.164  0.00  0.00    +0.000 C 
ATOM     35  C   UNL     1      -9.268   5.188 129.652  0.00  0.00    +0.000 C 
ATOM     36  C   UNL     1      -8.656   6.041 130.762  0.00  0.00    +0.000 C 
ATOM     37  C   UNL     1      -7.298   5.460 131.228  0.00  0.00    +0.000 C 
ATOM     38  C   UNL     1      -6.213   5.553 130.134  0.00  0.00    +0.000 C 
ATOM     39  O   UNL     1      -7.481   4.092 131.713  0.00  0.00    +0.000 OA
BRANCH  35  40
ATOM     40  N   UNL     1      -8.637   5.222 128.321  0.00  0.00    +0.000 NA
ATOM     41  H   UNL     1      -9.128   4.688 127.609  0.00  0.00    +0.000 HD
ATOM     42  H   UNL     1      -7.677   4.904 128.351  0.00  0.00    +0.000 HD
ENDBRANCH  35  40
BRANCH  36  43
ATOM     43  O   UNL     1      -8.586   7.400 130.348  0.00  0.00    +0.000 OA
ATOM     44  H   UNL     1      -8.667   7.957 131.137  0.00  0.00    +0.000 HD
ENDBRANCH  36  43
ENDBRANCH  32  33
ENDBRANCH  16  32
TORSDOF 9
ENDMDL
MODEL 4
REMARK VINA RESULT:      -8.7      3.624      8.449
REMARK  Name = Daunorubicin
REMARK  12 active torsions:
REMARK  status: ('A' for Active; 'I' for Inactive)
REMARK    1  A    between atoms: C_1  and  O_2
REMARK    2  A    between atoms: O_2  and  C_3
REMARK    3  A    between atoms: C_12  and  O_13
REMARK    4  A    between atoms: C_17  and  O_18
REMARK    5  A    between atoms: C_17  and  C_31
REMARK    6  A    between atoms: C_20  and  O_21
REMARK    7  A    between atoms: O_21  and  C_22
REMARK    8  A    between atoms: C_24  and  N_25
REMARK    9  A    between atoms: C_26  and  O_27
REMARK   10  A    between atoms: C_28  and  C_29
REMARK   11  A    between atoms: C_31  and  C_32
REMARK   12  A    between atoms: C_34  and  O_35
REMARK                            x       y       z     vdW  Elec       q    Type
REMARK                         _______ _______ _______ _____ _____    ______ ____
ROOT
ATOM      1  C   UNL     1      -9.925   5.352 130.160  0.00  0.00    +0.000 A 
ATOM      2  C   UNL     1     -10.201   6.375 131.084  0.00  0.00    +0.000 A 
ATOM      3  C   UNL     1      -9.962   6.211 132.453  0.00  0.00    +0.000 A 
ATOM      4  C   UNL     1      -9.440   5.013 132.919  0.00  0.00    +0.000 A 
ATOM      5  C   UNL     1      -9.149   3.990 132.012  0.00  0.00    +0.000 A 
ATOM      6  C   UNL     1      -9.360   4.164 130.636  0.00  0.00    +0.000 A 
ATOM      7  C   UNL     1      -8.823   3.138 129.747  0.00  0.00    +0.000 C 
ATOM      8  O   UNL     1      -8.545   3.351 128.562  0.00  0.00    +0.000 OA
ATOM      9  C   UNL     1      -8.475   1.825 130.250  0.00  0.00    +0.000 A 
ATOM     10  C   UNL     1      -8.228   0.806 129.337  0.00  0.00    +0.000 A 
ATOM     11  C   UNL     1      -7.668  -0.386 129.782  0.00  0.00    +0.000 A 
ATOM     12  C   UNL     1      -7.403  -0.586 131.150  0.00  0.00    +0.000 A 
ATOM     13  C   UNL     1      -6.828  -1.903 131.624  0.00  0.00    +0.000 C 
ATOM     14  C   UNL     1      -6.203  -2.710 130.495  0.00  0.00    +0.000 C 
ATOM     15  C   UNL     1      -7.231  -2.825 129.383  0.00  0.00    +0.000 C 
ATOM     16  C   UNL     1      -7.377  -1.446 128.763  0.00  0.00    +0.000 C 
ATOM     17  C   UNL     1      -7.725   0.425 132.059  0.00  0.00    +0.000 A 
ATOM     18  C   UNL     1      -8.258   1.638 131.613  0.00  0.00    +0.000 A 
ATOM     19  C   UNL     1      -8.562   2.745 132.541  0.00  0.00    +0.000 C 
ATOM     20  O   UNL     1      -8.359   2.667 133.750  0.00  0.00    +0.000 OA
ENDROOT
BRANCH  14  21
ATOM     21  C   UNL     1      -5.832  -4.108 130.973  0.00  0.00    +0.000 C 
ATOM     22  C   UNL     1      -5.285  -4.212 132.374  0.00  0.00    +0.000 C 
ATOM     23  O   UNL     1      -5.944  -5.095 130.246  0.00  0.00    +0.000 OA
ENDBRANCH  14  21
BRANCH   1  25
ATOM     24  C   UNL     1     -10.502   7.026 128.529  0.00  0.00    +0.000 C 
ATOM     25  O   UNL     1     -10.099   5.691 128.845  0.00  0.00    +0.000 OA
ENDBRANCH   1  25
BRANCH  10  26
ATOM     26  O   UNL     1      -8.528   0.910 127.999  0.00  0.00    +0.000 OA
ATOM     27  H   UNL     1      -9.005   0.099 127.713  0.00  0.00    +0.000 HD
ENDBRANCH  10  26
BRANCH  14  28
ATOM     28  O   UNL     1      -4.993  -2.061 130.084  0.00  0.00    +0.000 OA
ATOM     29  H   UNL     1      -4.363  -2.720 129.720  0.00  0.00    +0.000 HD
ENDBRANCH  14  28
BRANCH  17  30
ATOM     30  O   UNL     1      -7.500   0.250 133.391  0.00  0.00    +0.000 OA
ATOM     31  H   UNL     1      -8.224   0.577 133.943  0.00  0.00    +0.000 HD
ENDBRANCH  17  30
BRANCH  16  32
ATOM     32  O   UNL     1      -6.194  -1.073 127.992  0.00  0.00    +0.000 OA
BRANCH  32  33
ATOM     33  C   UNL     1      -6.280  -1.624 126.665  0.00  0.00    +0.000 C 
ATOM     34  C   UNL     1      -7.726  -1.457 126.226  0.00  0.00    +0.000 C 
ATOM     35  C   UNL     1      -8.073  -2.087 124.915  0.00  0.00    +0.000 C 
ATOM     36  C   UNL     1      -7.076  -1.549 123.890  0.00  0.00    +0.000 C 
ATOM     37  C   UNL     1      -5.618  -1.762 124.367  0.00  0.00    +0.000 C 
ATOM     38  C   UNL     1      -5.229  -3.254 124.420  0.00  0.00    +0.000 C 
ATOM     39  O   UNL     1      -5.408  -1.089 125.649  0.00  0.00    +0.000 OA
BRANCH  35  40
ATOM     40  N   UNL     1      -8.190  -3.548 125.070  0.00  0.00    +0.000 NA
ATOM     41  H   UNL     1      -7.423  -3.980 125.576  0.00  0.00    +0.000 HD
ATOM     42  H   UNL     1      -8.284  -4.016 124.177  0.00  0.00    +0.000 HD
ENDBRANCH  35  40
BRANCH  36  43
ATOM     43  O   UNL     1      -7.347  -2.103 122.609  0.00  0.00    +0.000 OA
ATOM     44  H   UNL     1      -6.909  -1.549 121.945  0.00  0.00    +0.000 HD
ENDBRANCH  36  43
ENDBRANCH  32  33
ENDBRANCH  16  32
TORSDOF 9
ENDMDL
MODEL 5
REMARK VINA RESULT:      -8.4      4.614      8.917
REMARK  Name = Daunorubicin
REMARK  12 active torsions:
REMARK  status: ('A' for Active; 'I' for Inactive)
REMARK    1  A    between atoms: C_1  and  O_2
REMARK    2  A    between atoms: O_2  and  C_3
REMARK    3  A    between atoms: C_12  and  O_13
REMARK    4  A    between atoms: C_17  and  O_18
REMARK    5  A    between atoms: C_17  and  C_31
REMARK    6  A    between atoms: C_20  and  O_21
REMARK    7  A    between atoms: O_21  and  C_22
REMARK    8  A    between atoms: C_24  and  N_25
REMARK    9  A    between atoms: C_26  and  O_27
REMARK   10  A    between atoms: C_28  and  C_29
REMARK   11  A    between atoms: C_31  and  C_32
REMARK   12  A    between atoms: C_34  and  O_35
REMARK                            x       y       z     vdW  Elec       q    Type
REMARK                         _______ _______ _______ _____ _____    ______ ____
ROOT
ATOM      1  C   UNL     1      -3.587   3.038 131.382  0.00  0.00    +0.000 A 
ATOM      2  C   UNL     1      -3.057   4.005 132.253  0.00  0.00    +0.000 A 
ATOM      3  C   UNL     1      -2.962   5.351 131.882  0.00  0.00    +0.000 A 
ATOM      4  C   UNL     1      -3.397   5.749 130.627  0.00  0.00    +0.000 A 
ATOM      5  C   UNL     1      -3.938   4.802 129.753  0.00  0.00    +0.000 A 
ATOM      6  C   UNL     1      -4.062   3.457 130.135  0.00  0.00    +0.000 A 
ATOM      7  C   UNL     1      -4.836   2.586 129.256  0.00  0.00    +0.000 C 
ATOM      8  O   UNL     1      -5.387   1.551 129.646  0.00  0.00    +0.000 OA
ATOM      9  C   UNL     1      -5.099   2.960 127.881  0.00  0.00    +0.000 A 
ATOM     10  C   UNL     1      -5.596   1.995 127.012  0.00  0.00    +0.000 A 
ATOM     11  C   UNL     1      -6.074   2.383 125.766  0.00  0.00    +0.000 A 
ATOM     12  C   UNL     1      -6.006   3.730 125.360  0.00  0.00    +0.000 A 
ATOM     13  C   UNL     1      -6.494   4.131 123.984  0.00  0.00    +0.000 C 
ATOM     14  C   UNL     1      -7.405   3.084 123.358  0.00  0.00    +0.000 C 
ATOM     15  C   UNL     1      -6.684   1.749 123.415  0.00  0.00    +0.000 C 
ATOM     16  C   UNL     1      -6.643   1.323 124.872  0.00  0.00    +0.000 C 
ATOM     17  C   UNL     1      -5.436   4.671 126.221  0.00  0.00    +0.000 A 
ATOM     18  C   UNL     1      -4.984   4.291 127.489  0.00  0.00    +0.000 A 
ATOM     19  C   UNL     1      -4.423   5.269 128.442  0.00  0.00    +0.000 C 
ATOM     20  O   UNL     1      -4.328   6.465 128.181  0.00  0.00    +0.000 OA
ENDROOT
BRANCH  14  21
ATOM     21  C   UNL     1      -7.698   3.427 121.903  0.00  0.00    +0.000 C 
ATOM     22  C   UNL     1      -6.511   3.786 121.048  0.00  0.00    +0.000 C 
ATOM     23  O   UNL     1      -8.846   3.439 121.457  0.00  0.00    +0.000 OA
ENDBRANCH  14  21
BRANCH   1  25
ATOM     24  C   UNL     1      -3.206   1.537 133.226  0.00  0.00    +0.000 C 
ATOM     25  O   UNL     1      -3.727   1.785 131.918  0.00  0.00    +0.000 OA
ENDBRANCH   1  25
BRANCH  10  26
ATOM     26  O   UNL     1      -5.629   0.656 127.319  0.00  0.00    +0.000 OA
ATOM     27  H   UNL     1      -4.757   0.391 127.690  0.00  0.00    +0.000 HD
ENDBRANCH  10  26
BRANCH  14  28
ATOM     28  O   UNL     1      -8.654   3.084 124.060  0.00  0.00    +0.000 OA
ATOM     29  H   UNL     1      -8.840   3.979 124.419  0.00  0.00    +0.000 HD
ENDBRANCH  14  28
BRANCH  17  30
ATOM     30  O   UNL     1      -5.334   5.976 125.845  0.00  0.00    +0.000 OA
ATOM     31  H   UNL     1      -4.502   6.177 125.396  0.00  0.00    +0.000 HD
ENDBRANCH  17  30
BRANCH  16  32
ATOM     32  O   UNL     1      -7.964   0.931 125.357  0.00  0.00    +0.000 OA
BRANCH  32  33
ATOM     33  C   UNL     1      -8.002  -0.491 125.581  0.00  0.00    +0.000 C 
ATOM     34  C   UNL     1      -8.827  -1.080 124.449  0.00  0.00    +0.000 C 
ATOM     35  C   UNL     1      -9.108  -2.545 124.557  0.00  0.00    +0.000 C 
ATOM     36  C   UNL     1      -7.759  -3.241 124.733  0.00  0.00    +0.000 C 
ATOM     37  C   UNL     1      -6.964  -2.625 125.911  0.00  0.00    +0.000 C 
ATOM     38  C   UNL     1      -7.631  -2.898 127.275  0.00  0.00    +0.000 C 
ATOM     39  O   UNL     1      -6.748  -1.197 125.676  0.00  0.00    +0.000 OA
BRANCH  35  40
ATOM     40  N   UNL     1     -10.152  -2.787 125.570  0.00  0.00    +0.000 NA
ATOM     41  H   UNL     1      -9.928  -3.517 126.239  0.00  0.00    +0.000 HD
ATOM     42  H   UNL     1     -11.044  -3.007 125.145  0.00  0.00    +0.000 HD
ENDBRANCH  35  40
BRANCH  36  43
ATOM     43  O   UNL     1      -7.946  -4.646 124.840  0.00  0.00    +0.000 OA
ATOM     44  H   UNL     1      -8.069  -4.860 125.777  0.00  0.00    +0.000 HD
ENDBRANCH  36  43
ENDBRANCH  32  33
ENDBRANCH  16  32
TORSDOF 9
ENDMDL
MODEL 6
REMARK VINA RESULT:      -8.2      4.397      7.373
REMARK  Name = Daunorubicin
REMARK  12 active torsions:
REMARK  status: ('A' for Active; 'I' for Inactive)
REMARK    1  A    between atoms: C_1  and  O_2
REMARK    2  A    between atoms: O_2  and  C_3
REMARK    3  A    between atoms: C_12  and  O_13
REMARK    4  A    between atoms: C_17  and  O_18
REMARK    5  A    between atoms: C_17  and  C_31
REMARK    6  A    between atoms: C_20  and  O_21
REMARK    7  A    between atoms: O_21  and  C_22
REMARK    8  A    between atoms: C_24  and  N_25
REMARK    9  A    between atoms: C_26  and  O_27
REMARK   10  A    between atoms: C_28  and  C_29
REMARK   11  A    between atoms: C_31  and  C_32
REMARK   12  A    between atoms: C_34  and  O_35
REMARK                            x       y       z     vdW  Elec       q    Type
REMARK                         _______ _______ _______ _____ _____    ______ ____
ROOT
ATOM      1  C   UNL     1      -7.336  -3.462 134.319  0.00  0.00    +0.000 A 
ATOM      2  C   UNL     1      -6.745  -4.638 134.813  0.00  0.00    +0.000 A 
ATOM      3  C   UNL     1      -5.914  -5.432 134.015  0.00  0.00    +0.000 A 
ATOM      4  C   UNL     1      -5.663  -5.059 132.703  0.00  0.00    +0.000 A 
ATOM      5  C   UNL     1      -6.234  -3.886 132.199  0.00  0.00    +0.000 A 
ATOM      6  C   UNL     1      -7.042  -3.073 133.008  0.00  0.00    +0.000 A 
ATOM      7  C   UNL     1      -7.410  -1.765 132.475  0.00  0.00    +0.000 C 
ATOM      8  O   UNL     1      -7.719  -0.807 133.193  0.00  0.00    +0.000 OA
ATOM      9  C   UNL     1      -7.316  -1.484 131.057  0.00  0.00    +0.000 A 
ATOM     10  C   UNL     1      -7.924  -0.336 130.563  0.00  0.00    +0.000 A 
ATOM     11  C   UNL     1      -7.651   0.074 129.264  0.00  0.00    +0.000 A 
ATOM     12  C   UNL     1      -6.813  -0.692 128.432  0.00  0.00    +0.000 A 
ATOM     13  C   UNL     1      -6.556  -0.254 127.007  0.00  0.00    +0.000 C 
ATOM     14  C   UNL     1      -6.902   1.210 126.772  0.00  0.00    +0.000 C 
ATOM     15  C   UNL     1      -8.321   1.435 127.265  0.00  0.00    +0.000 C 
ATOM     16  C   UNL     1      -8.291   1.340 128.780  0.00  0.00    +0.000 C 
ATOM     17  C   UNL     1      -6.269  -1.881 128.926  0.00  0.00    +0.000 A 
ATOM     18  C   UNL     1      -6.514  -2.281 130.243  0.00  0.00    +0.000 A 
ATOM     19  C   UNL     1      -5.915  -3.504 130.812  0.00  0.00    +0.000 C 
ATOM     20  O   UNL     1      -5.166  -4.233 130.167  0.00  0.00    +0.000 OA
ENDROOT
BRANCH  14  21
ATOM     21  C   UNL     1      -6.831   1.550 125.289  0.00  0.00    +0.000 C 
ATOM     22  C   UNL     1      -6.307   2.919 124.943  0.00  0.00    +0.000 C 
ATOM     23  O   UNL     1      -7.208   0.761 124.423  0.00  0.00    +0.000 OA
ENDBRANCH  14  21
BRANCH   1  25
ATOM     24  C   UNL     1      -8.373  -3.336 136.488  0.00  0.00    +0.000 C 
ATOM     25  O   UNL     1      -8.028  -2.725 135.242  0.00  0.00    +0.000 OA
ENDBRANCH   1  25
BRANCH  10  26
ATOM     26  O   UNL     1      -8.806   0.420 131.299  0.00  0.00    +0.000 OA
ATOM     27  H   UNL     1      -8.906   0.017 132.191  0.00  0.00    +0.000 HD
ENDBRANCH  10  26
BRANCH  14  28
ATOM     28  O   UNL     1      -5.933   2.023 127.446  0.00  0.00    +0.000 OA
ATOM     29  H   UNL     1      -5.744   2.830 126.921  0.00  0.00    +0.000 HD
ENDBRANCH  14  28
BRANCH  17  30
ATOM     30  O   UNL     1      -5.473  -2.655 128.136  0.00  0.00    +0.000 OA
ATOM     31  H   UNL     1      -5.851  -2.815 127.261  0.00  0.00    +0.000 HD
ENDBRANCH  17  30
BRANCH  16  32
ATOM     32  O   UNL     1      -7.619   2.489 129.379  0.00  0.00    +0.000 OA
BRANCH  32  33
ATOM     33  C   UNL     1      -8.587   3.351 130.008  0.00  0.00    +0.000 C 
ATOM     34  C   UNL     1      -7.951   3.834 131.302  0.00  0.00    +0.000 C 
ATOM     35  C   UNL     1      -8.843   4.645 132.188  0.00  0.00    +0.000 C 
ATOM     36  C   UNL     1      -9.392   5.786 131.333  0.00  0.00    +0.000 C 
ATOM     37  C   UNL     1     -10.050   5.247 130.039  0.00  0.00    +0.000 C 
ATOM     38  C   UNL     1     -11.330   4.434 130.327  0.00  0.00    +0.000 C 
ATOM     39  O   UNL     1      -9.073   4.485 129.262  0.00  0.00    +0.000 OA
BRANCH  35  40
ATOM     40  N   UNL     1      -9.805   3.767 132.877  0.00  0.00    +0.000 NA
ATOM     41  H   UNL     1     -10.448   4.252 133.497  0.00  0.00    +0.000 HD
ATOM     42  H   UNL     1      -9.340   3.041 133.408  0.00  0.00    +0.000 HD
ENDBRANCH  35  40
BRANCH  36  43
ATOM     43  O   UNL     1     -10.250   6.609 132.113  0.00  0.00    +0.000 OA
ATOM     44  H   UNL     1     -10.718   6.039 132.743  0.00  0.00    +0.000 HD
ENDBRANCH  36  43
ENDBRANCH  32  33
ENDBRANCH  16  32
TORSDOF 9
ENDMDL
MODEL 7
REMARK VINA RESULT:      -8.2      3.687      7.779
REMARK  Name = Daunorubicin
REMARK  12 active torsions:
REMARK  status: ('A' for Active; 'I' for Inactive)
REMARK    1  A    between atoms: C_1  and  O_2
REMARK    2  A    between atoms: O_2  and  C_3
REMARK    3  A    between atoms: C_12  and  O_13
REMARK    4  A    between atoms: C_17  and  O_18
REMARK    5  A    between atoms: C_17  and  C_31
REMARK    6  A    between atoms: C_20  and  O_21
REMARK    7  A    between atoms: O_21  and  C_22
REMARK    8  A    between atoms: C_24  and  N_25
REMARK    9  A    between atoms: C_26  and  O_27
REMARK   10  A    between atoms: C_28  and  C_29
REMARK   11  A    between atoms: C_31  and  C_32
REMARK   12  A    between atoms: C_34  and  O_35
REMARK                            x       y       z     vdW  Elec       q    Type
REMARK                         _______ _______ _______ _____ _____    ______ ____
ROOT
ATOM      1  C   UNL     1      -3.169   6.832 134.051  0.00  0.00    +0.000 A 
ATOM      2  C   UNL     1      -2.004   7.442 134.548  0.00  0.00    +0.000 A 
ATOM      3  C   UNL     1      -0.889   7.665 133.732  0.00  0.00    +0.000 A 
ATOM      4  C   UNL     1      -0.926   7.280 132.401  0.00  0.00    +0.000 A 
ATOM      5  C   UNL     1      -2.081   6.684 131.888  0.00  0.00    +0.000 A 
ATOM      6  C   UNL     1      -3.211   6.487 132.697  0.00  0.00    +0.000 A 
ATOM      7  C   UNL     1      -4.439   6.068 132.030  0.00  0.00    +0.000 C 
ATOM      8  O   UNL     1      -5.565   6.273 132.498  0.00  0.00    +0.000 OA
ATOM      9  C   UNL     1      -4.406   5.483 130.704  0.00  0.00    +0.000 A 
ATOM     10  C   UNL     1      -5.550   4.857 130.224  0.00  0.00    +0.000 A 
ATOM     11  C   UNL     1      -5.618   4.501 128.882  0.00  0.00    +0.000 A 
ATOM     12  C   UNL     1      -4.521   4.719 128.026  0.00  0.00    +0.000 A 
ATOM     13  C   UNL     1      -4.596   4.290 126.576  0.00  0.00    +0.000 C 
ATOM     14  C   UNL     1      -6.025   4.056 126.108  0.00  0.00    +0.000 C 
ATOM     15  C   UNL     1      -6.685   3.105 127.090  0.00  0.00    +0.000 C 
ATOM     16  C   UNL     1      -6.883   3.866 128.389  0.00  0.00    +0.000 C 
ATOM     17  C   UNL     1      -3.355   5.285 128.548  0.00  0.00    +0.000 A 
ATOM     18  C   UNL     1      -3.293   5.675 129.889  0.00  0.00    +0.000 A 
ATOM     19  C   UNL     1      -2.095   6.321 130.459  0.00  0.00    +0.000 C 
ATOM     20  O   UNL     1      -1.092   6.559 129.791  0.00  0.00    +0.000 OA
ENDROOT
BRANCH  14  21
ATOM     21  C   UNL     1      -6.041   3.427 124.720  0.00  0.00    +0.000 C 
ATOM     22  C   UNL     1      -5.496   4.272 123.598  0.00  0.00    +0.000 C 
ATOM     23  O   UNL     1      -6.501   2.303 124.522  0.00  0.00    +0.000 OA
ENDBRANCH  14  21
BRANCH   1  25
ATOM     24  C   UNL     1      -4.309   5.677 135.830  0.00  0.00    +0.000 C 
ATOM     25  O   UNL     1      -4.220   6.782 134.928  0.00  0.00    +0.000 OA
ENDBRANCH   1  25
BRANCH  10  26
ATOM     26  O   UNL     1      -6.629   4.553 131.020  0.00  0.00    +0.000 OA
ATOM     27  H   UNL     1      -7.264   4.006 130.504  0.00  0.00    +0.000 HD
ENDBRANCH  10  26
BRANCH  14  28
ATOM     28  O   UNL     1      -6.689   5.323 126.013  0.00  0.00    +0.000 OA
ATOM     29  H   UNL     1      -7.638   5.192 125.798  0.00  0.00    +0.000 HD
ENDBRANCH  14  28
BRANCH  17  30
ATOM     30  O   UNL     1      -2.270   5.486 127.749  0.00  0.00    +0.000 OA
ATOM     31  H   UNL     1      -2.420   6.158 127.071  0.00  0.00    +0.000 HD
ENDBRANCH  17  30
BRANCH  16  32
ATOM     32  O   UNL     1      -7.925   4.882 128.265  0.00  0.00    +0.000 OA
BRANCH  32  33
ATOM     33  C   UNL     1      -8.755   4.879 129.443  0.00  0.00    +0.000 C 
ATOM     34  C   UNL     1      -9.088   6.334 129.733  0.00  0.00    +0.000 C 
ATOM     35  C   UNL     1      -9.840   6.576 131.003  0.00  0.00    +0.000 C 
ATOM     36  C   UNL     1     -11.077   5.680 130.960  0.00  0.00    +0.000 C 
ATOM     37  C   UNL     1     -10.688   4.206 130.686  0.00  0.00    +0.000 C 
ATOM     38  C   UNL     1      -9.896   3.581 131.854  0.00  0.00    +0.000 C 
ATOM     39  O   UNL     1      -9.972   4.107 129.414  0.00  0.00    +0.000 OA
BRANCH  35  40
ATOM     40  N   UNL     1      -8.934   6.455 132.159  0.00  0.00    +0.000 NA
ATOM     41  H   UNL     1      -7.979   6.203 131.921  0.00  0.00    +0.000 HD
ATOM     42  H   UNL     1      -9.277   5.787 132.838  0.00  0.00    +0.000 HD
ENDBRANCH  35  40
BRANCH  36  43
ATOM     43  O   UNL     1     -11.849   5.860 132.140  0.00  0.00    +0.000 OA
ATOM     44  H   UNL     1     -12.774   5.664 131.925  0.00  0.00    +0.000 HD
ENDBRANCH  36  43
ENDBRANCH  32  33
ENDBRANCH  16  32
TORSDOF 9
ENDMDL
MODEL 8
REMARK VINA RESULT:      -8.2      4.538      8.387
REMARK  Name = Daunorubicin
REMARK  12 active torsions:
REMARK  status: ('A' for Active; 'I' for Inactive)
REMARK    1  A    between atoms: C_1  and  O_2
REMARK    2  A    between atoms: O_2  and  C_3
REMARK    3  A    between atoms: C_12  and  O_13
REMARK    4  A    between atoms: C_17  and  O_18
REMARK    5  A    between atoms: C_17  and  C_31
REMARK    6  A    between atoms: C_20  and  O_21
REMARK    7  A    between atoms: O_21  and  C_22
REMARK    8  A    between atoms: C_24  and  N_25
REMARK    9  A    between atoms: C_26  and  O_27
REMARK   10  A    between atoms: C_28  and  C_29
REMARK   11  A    between atoms: C_31  and  C_32
REMARK   12  A    between atoms: C_34  and  O_35
REMARK                            x       y       z     vdW  Elec       q    Type
REMARK                         _______ _______ _______ _____ _____    ______ ____
ROOT
ATOM      1  C   UNL     1      -6.053   0.831 133.613  0.00  0.00    +0.000 A 
ATOM      2  C   UNL     1      -5.828   0.184 134.840  0.00  0.00    +0.000 A 
ATOM      3  C   UNL     1      -6.025  -1.193 134.989  0.00  0.00    +0.000 A 
ATOM      4  C   UNL     1      -6.453  -1.946 133.906  0.00  0.00    +0.000 A 
ATOM      5  C   UNL     1      -6.670  -1.320 132.675  0.00  0.00    +0.000 A 
ATOM      6  C   UNL     1      -6.443   0.056 132.516  0.00  0.00    +0.000 A 
ATOM      7  C   UNL     1      -6.477   0.581 131.155  0.00  0.00    +0.000 C 
ATOM      8  O   UNL     1      -5.891   1.616 130.816  0.00  0.00    +0.000 OA
ATOM      9  C   UNL     1      -7.116  -0.159 130.086  0.00  0.00    +0.000 A 
ATOM     10  C   UNL     1      -7.363   0.489 128.881  0.00  0.00    +0.000 A 
ATOM     11  C   UNL     1      -7.753  -0.256 127.775  0.00  0.00    +0.000 A 
ATOM     12  C   UNL     1      -7.953  -1.646 127.882  0.00  0.00    +0.000 A 
ATOM     13  C   UNL     1      -8.416  -2.438 126.678  0.00  0.00    +0.000 C 
ATOM     14  C   UNL     1      -8.199  -1.694 125.368  0.00  0.00    +0.000 C 
ATOM     15  C   UNL     1      -8.827  -0.318 125.508  0.00  0.00    +0.000 C 
ATOM     16  C   UNL     1      -7.970   0.470 126.482  0.00  0.00    +0.000 C 
ATOM     17  C   UNL     1      -7.767  -2.266 129.120  0.00  0.00    +0.000 A 
ATOM     18  C   UNL     1      -7.343  -1.526 130.228  0.00  0.00    +0.000 A 
ATOM     19  C   UNL     1      -7.089  -2.158 131.538  0.00  0.00    +0.000 C 
ATOM     20  O   UNL     1      -7.229  -3.364 131.727  0.00  0.00    +0.000 OA
ENDROOT
BRANCH  14  21
ATOM     21  C   UNL     1      -8.867  -2.429 124.213  0.00  0.00    +0.000 C 
ATOM     22  C   UNL     1      -8.330  -2.138 122.836  0.00  0.00    +0.000 C 
ATOM     23  O   UNL     1      -9.812  -3.197 124.391  0.00  0.00    +0.000 OA
ENDBRANCH  14  21
BRANCH   1  25
ATOM     24  C   UNL     1      -6.478   3.083 134.351  0.00  0.00    +0.000 C 
ATOM     25  O   UNL     1      -5.708   2.156 133.581  0.00  0.00    +0.000 OA
ENDBRANCH   1  25
BRANCH  10  26
ATOM     26  O   UNL     1      -7.254   1.851 128.727  0.00  0.00    +0.000 OA
ATOM     27  H   UNL     1      -6.942   2.046 127.815  0.00  0.00    +0.000 HD
ENDBRANCH  10  26
BRANCH  14  28
ATOM     28  O   UNL     1      -6.793  -1.649 125.093  0.00  0.00    +0.000 OA
ATOM     29  H   UNL     1      -6.302  -1.356 125.891  0.00  0.00    +0.000 HD
ENDBRANCH  14  28
BRANCH  17  30
ATOM     30  O   UNL     1      -7.976  -3.605 129.258  0.00  0.00    +0.000 OA
ATOM     31  H   UNL     1      -7.177  -4.088 129.508  0.00  0.00    +0.000 HD
ENDBRANCH  17  30
BRANCH  16  32
ATOM     32  O   UNL     1      -6.679   0.827 125.899  0.00  0.00    +0.000 OA
BRANCH  32  33
ATOM     33  C   UNL     1      -6.865   1.809 124.862  0.00  0.00    +0.000 C 
ATOM     34  C   UNL     1      -5.830   2.894 125.111  0.00  0.00    +0.000 C 
ATOM     35  C   UNL     1      -5.931   4.091 124.219  0.00  0.00    +0.000 C 
ATOM     36  C   UNL     1      -5.913   3.571 122.782  0.00  0.00    +0.000 C 
ATOM     37  C   UNL     1      -6.998   2.487 122.568  0.00  0.00    +0.000 C 
ATOM     38  C   UNL     1      -8.427   3.058 122.671  0.00  0.00    +0.000 C 
ATOM     39  O   UNL     1      -6.779   1.372 123.490  0.00  0.00    +0.000 OA
BRANCH  35  40
ATOM     40  N   UNL     1      -7.060   4.940 124.637  0.00  0.00    +0.000 NA
ATOM     41  H   UNL     1      -7.464   4.691 125.535  0.00  0.00    +0.000 HD
ATOM     42  H   UNL     1      -7.802   4.947 123.947  0.00  0.00    +0.000 HD
ENDBRANCH  35  40
BRANCH  36  43
ATOM     43  O   UNL     1      -6.001   4.659 121.870  0.00  0.00    +0.000 OA
ATOM     44  H   UNL     1      -6.681   4.443 121.213  0.00  0.00    +0.000 HD
ENDBRANCH  36  43
ENDBRANCH  32  33
ENDBRANCH  16  32
TORSDOF 9
ENDMDL
MODEL 9
REMARK VINA RESULT:      -8.1      3.450      6.277
REMARK  Name = Daunorubicin
REMARK  12 active torsions:
REMARK  status: ('A' for Active; 'I' for Inactive)
REMARK    1  A    between atoms: C_1  and  O_2
REMARK    2  A    between atoms: O_2  and  C_3
REMARK    3  A    between atoms: C_12  and  O_13
REMARK    4  A    between atoms: C_17  and  O_18
REMARK    5  A    between atoms: C_17  and  C_31
REMARK    6  A    between atoms: C_20  and  O_21
REMARK    7  A    between atoms: O_21  and  C_22
REMARK    8  A    between atoms: C_24  and  N_25
REMARK    9  A    between atoms: C_26  and  O_27
REMARK   10  A    between atoms: C_28  and  C_29
REMARK   11  A    between atoms: C_31  and  C_32
REMARK   12  A    between atoms: C_34  and  O_35
REMARK                            x       y       z     vdW  Elec       q    Type
REMARK                         _______ _______ _______ _____ _____    ______ ____
ROOT
ATOM      1  C   UNL     1      -7.073  -2.937 132.158  0.00  0.00    +0.000 A 
ATOM      2  C   UNL     1      -6.449  -4.177 132.378  0.00  0.00    +0.000 A 
ATOM      3  C   UNL     1      -5.534  -4.709 131.462  0.00  0.00    +0.000 A 
ATOM      4  C   UNL     1      -5.230  -4.003 130.308  0.00  0.00    +0.000 A 
ATOM      5  C   UNL     1      -5.833  -2.763 130.080  0.00  0.00    +0.000 A 
ATOM      6  C   UNL     1      -6.727  -2.214 131.012  0.00  0.00    +0.000 A 
ATOM      7  C   UNL     1      -7.134  -0.828 130.805  0.00  0.00    +0.000 C 
ATOM      8  O   UNL     1      -7.533  -0.098 131.719  0.00  0.00    +0.000 OA
ATOM      9  C   UNL     1      -6.976  -0.190 129.513  0.00  0.00    +0.000 A 
ATOM     10  C   UNL     1      -7.616   1.023 129.287  0.00  0.00    +0.000 A 
ATOM     11  C   UNL     1      -7.293   1.763 128.155  0.00  0.00    +0.000 A 
ATOM     12  C   UNL     1      -6.369   1.267 127.215  0.00  0.00    +0.000 A 
ATOM     13  C   UNL     1      -6.056   2.065 125.968  0.00  0.00    +0.000 C 
ATOM     14  C   UNL     1      -6.466   3.526 126.090  0.00  0.00    +0.000 C 
ATOM     15  C   UNL     1      -7.920   3.565 126.526  0.00  0.00    +0.000 C 
ATOM     16  C   UNL     1      -7.971   3.086 127.966  0.00  0.00    +0.000 C 
ATOM     17  C   UNL     1      -5.792   0.012 127.427  0.00  0.00    +0.000 A 
ATOM     18  C   UNL     1      -6.088  -0.721 128.581  0.00  0.00    +0.000 A 
ATOM     19  C   UNL     1      -5.457  -2.026 128.860  0.00  0.00    +0.000 C 
ATOM     20  O   UNL     1      -4.636  -2.537 128.103  0.00  0.00    +0.000 OA
ENDROOT
BRANCH  14  21
ATOM     21  C   UNL     1      -6.330   4.237 124.749  0.00  0.00    +0.000 C 
ATOM     22  C   UNL     1      -6.506   3.384 123.520  0.00  0.00    +0.000 C 
ATOM     23  O   UNL     1      -6.063   5.436 124.674  0.00  0.00    +0.000 OA
ENDBRANCH  14  21
BRANCH   1  25
ATOM     24  C   UNL     1      -8.260  -3.416 134.197  0.00  0.00    +0.000 C 
ATOM     25  O   UNL     1      -7.854  -2.487 133.189  0.00  0.00    +0.000 OA
ENDBRANCH   1  25
BRANCH  10  26
ATOM     26  O   UNL     1      -8.576   1.532 130.129  0.00  0.00    +0.000 OA
ATOM     27  H   UNL     1      -8.858   0.828 130.756  0.00  0.00    +0.000 HD
ENDBRANCH  10  26
BRANCH  14  28
ATOM     28  O   UNL     1      -5.581   4.174 127.012  0.00  0.00    +0.000 OA
ATOM     29  H   UNL     1      -5.695   3.798 127.911  0.00  0.00    +0.000 HD
ENDBRANCH  14  28
BRANCH  17  30
ATOM     30  O   UNL     1      -4.912  -0.503 126.523  0.00  0.00    +0.000 OA
ATOM     31  H   UNL     1      -4.328   0.165 126.140  0.00  0.00    +0.000 HD
ENDBRANCH  17  30
BRANCH  16  32
ATOM     32  O   UNL     1      -7.395   4.067 128.881  0.00  0.00    +0.000 OA
BRANCH  32  33
ATOM     33  C   UNL     1      -8.412   4.561 129.773  0.00  0.00    +0.000 C 
ATOM     34  C   UNL     1      -7.867   4.383 131.181  0.00  0.00    +0.000 C 
ATOM     35  C   UNL     1      -8.824   4.713 132.283  0.00  0.00    +0.000 C 
ATOM     36  C   UNL     1      -9.330   6.129 132.017  0.00  0.00    +0.000 C 
ATOM     37  C   UNL     1      -9.897   6.258 130.581  0.00  0.00    +0.000 C 
ATOM     38  C   UNL     1     -11.183   5.428 130.381  0.00  0.00    +0.000 C 
ATOM     39  O   UNL     1      -8.862   5.920 129.604  0.00  0.00    +0.000 OA
BRANCH  35  40
ATOM     40  N   UNL     1      -9.818   3.635 132.430  0.00  0.00    +0.000 NA
ATOM     41  H   UNL     1     -10.177   3.271 131.552  0.00  0.00    +0.000 HD
ATOM     42  H   UNL     1     -10.604   3.922 133.000  0.00  0.00    +0.000 HD
ENDBRANCH  35  40
BRANCH  36  43
ATOM     43  O   UNL     1     -10.247   6.517 133.032  0.00  0.00    +0.000 OA
ATOM     44  H   UNL     1     -10.335   7.482 133.002  0.00  0.00    +0.000 HD
ENDBRANCH  36  43
ENDBRANCH  32  33
ENDBRANCH  16  32
TORSDOF 9
ENDMDL
