MODEL 1
REMARK VINA RESULT:      -6.8      0.000      0.000
REMARK  Name = Debrisoquine
REMARK  0 active torsions:
REMARK  status: ('A' for Active; 'I' for Inactive)
REMARK                            x       y       z     vdW  Elec       q    Type
REMARK                         _______ _______ _______ _____ _____    ______ ____
ROOT
ATOM      1  N   UNL     1     -12.725   6.917 126.333  0.00  0.00    +0.000 N 
ATOM      2  C   UNL     1     -11.511   7.002 126.925  0.00  0.00    +0.000 C 
ATOM      3  N   UNL     1     -10.430   6.912 126.225  0.00  0.00    +0.000 NA
ATOM      4  N   UNL     1     -11.528   7.205 128.278  0.00  0.00    +0.000 N 
ATOM      5  C   UNL     1     -12.464   6.457 129.139  0.00  0.00    +0.000 C 
ATOM      6  C   UNL     1     -12.397   6.875 130.612  0.00  0.00    +0.000 C 
ATOM      7  C   UNL     1     -10.991   6.706 131.111  0.00  0.00    +0.000 A 
ATOM      8  C   UNL     1     -10.694   6.173 132.369  0.00  0.00    +0.000 A 
ATOM      9  C   UNL     1      -9.365   6.005 132.756  0.00  0.00    +0.000 A 
ATOM     10  C   UNL     1      -8.335   6.379 131.895  0.00  0.00    +0.000 A 
ATOM     11  C   UNL     1      -8.630   6.939 130.648  0.00  0.00    +0.000 A 
ATOM     12  C   UNL     1      -9.961   7.103 130.244  0.00  0.00    +0.000 A 
ATOM     13  C   UNL     1     -10.329   7.773 128.934  0.00  0.00    +0.000 C 
ATOM     14  H   UNL     1     -12.747   7.081 125.334  0.00  0.00    +0.000 HD
ATOM     15  H   UNL     1     -13.465   7.417 126.810  0.00  0.00    +0.000 HD
ATOM     16  H   UNL     1     -10.666   6.724 125.252  0.00  0.00    +0.000 HD
ENDROOT
TORSDOF 0
ENDMDL
MODEL 2
REMARK VINA RESULT:      -6.4      8.801     10.179
REMARK  Name = Debrisoquine
REMARK  0 active torsions:
REMARK  status: ('A' for Active; 'I' for Inactive)
REMARK                            x       y       z     vdW  Elec       q    Type
REMARK                         _______ _______ _______ _____ _____    ______ ____
ROOT
ATOM      1  N   UNL     1      -9.241   0.173 124.207  0.00  0.00    +0.000 N 
ATOM      2  C   UNL     1      -9.374   0.908 123.079  0.00  0.00    +0.000 C 
ATOM      3  N   UNL     1     -10.267   0.604 122.197  0.00  0.00    +0.000 NA
ATOM      4  N   UNL     1      -8.525   1.975 122.967  0.00  0.00    +0.000 N 
ATOM      5  C   UNL     1      -7.100   1.843 123.324  0.00  0.00    +0.000 C 
ATOM      6  C   UNL     1      -6.324   3.159 123.214  0.00  0.00    +0.000 C 
ATOM      7  C   UNL     1      -6.457   3.697 121.818  0.00  0.00    +0.000 A 
ATOM      8  C   UNL     1      -5.386   4.261 121.120  0.00  0.00    +0.000 A 
ATOM      9  C   UNL     1      -5.567   4.705 119.811  0.00  0.00    +0.000 A 
ATOM     10  C   UNL     1      -6.818   4.600 119.205  0.00  0.00    +0.000 A 
ATOM     11  C   UNL     1      -7.899   4.064 119.912  0.00  0.00    +0.000 A 
ATOM     12  C   UNL     1      -7.726   3.604 121.224  0.00  0.00    +0.000 A 
ATOM     13  C   UNL     1      -8.884   3.085 122.055  0.00  0.00    +0.000 C 
ATOM     14  H   UNL     1     -10.033  -0.405 124.459  0.00  0.00    +0.000 HD
ATOM     15  H   UNL     1      -8.882   0.682 125.005  0.00  0.00    +0.000 HD
ATOM     16  H   UNL     1     -10.751  -0.248 122.478  0.00  0.00    +0.000 HD
ENDROOT
TORSDOF 0
ENDMDL
MODEL 3
REMARK VINA RESULT:      -5.9      2.820      4.563
REMARK  Name = Debrisoquine
REMARK  0 active torsions:
REMARK  status: ('A' for Active; 'I' for Inactive)
REMARK                            x       y       z     vdW  Elec       q    Type
REMARK                         _______ _______ _______ _____ _____    ______ ____
ROOT
ATOM      1  N   UNL     1      -6.970   5.863 132.615  0.00  0.00    +0.000 N 
ATOM      2  C   UNL     1      -7.397   6.480 131.490  0.00  0.00    +0.000 C 
ATOM      3  N   UNL     1      -6.578   7.161 130.761  0.00  0.00    +0.000 NA
ATOM      4  N   UNL     1      -8.722   6.308 131.189  0.00  0.00    +0.000 N 
ATOM      5  C   UNL     1      -9.749   6.402 132.244  0.00  0.00    +0.000 C 
ATOM      6  C   UNL     1     -11.164   6.100 131.738  0.00  0.00    +0.000 C 
ATOM      7  C   UNL     1     -11.496   7.035 130.611  0.00  0.00    +0.000 A 
ATOM      8  C   UNL     1     -12.746   7.646 130.480  0.00  0.00    +0.000 A 
ATOM      9  C   UNL     1     -12.977   8.536 129.432  0.00  0.00    +0.000 A 
ATOM     10  C   UNL     1     -11.967   8.805 128.509  0.00  0.00    +0.000 A 
ATOM     11  C   UNL     1     -10.726   8.172 128.621  0.00  0.00    +0.000 A 
ATOM     12  C   UNL     1     -10.479   7.284 129.676  0.00  0.00    +0.000 A 
ATOM     13  C   UNL     1      -9.175   6.517 129.796  0.00  0.00    +0.000 C 
ATOM     14  H   UNL     1      -5.972   5.711 132.689  0.00  0.00    +0.000 HD
ATOM     15  H   UNL     1      -7.493   5.035 132.870  0.00  0.00    +0.000 HD
ATOM     16  H   UNL     1      -5.660   7.179 131.201  0.00  0.00    +0.000 HD
ENDROOT
TORSDOF 0
ENDMDL
MODEL 4
REMARK VINA RESULT:      -5.9      2.784      4.874
REMARK  Name = Debrisoquine
REMARK  0 active torsions:
REMARK  status: ('A' for Active; 'I' for Inactive)
REMARK                            x       y       z     vdW  Elec       q    Type
REMARK                         _______ _______ _______ _____ _____    ______ ____
ROOT
ATOM      1  N   UNL     1      -8.531   3.346 132.008  0.00  0.00    +0.000 N 
ATOM      2  C   UNL     1      -9.720   3.678 131.454  0.00  0.00    +0.000 C 
ATOM      3  N   UNL     1     -10.632   2.783 131.269  0.00  0.00    +0.000 NA
ATOM      4  N   UNL     1      -9.875   5.000 131.137  0.00  0.00    +0.000 N 
ATOM      5  C   UNL     1      -8.783   5.750 130.488  0.00  0.00    +0.000 C 
ATOM      6  C   UNL     1      -9.106   7.235 130.286  0.00  0.00    +0.000 C 
ATOM      7  C   UNL     1     -10.368   7.361 129.481  0.00  0.00    +0.000 A 
ATOM      8  C   UNL     1     -10.519   8.301 128.457  0.00  0.00    +0.000 A 
ATOM      9  C   UNL     1     -11.703   8.340 127.721  0.00  0.00    +0.000 A 
ATOM     10  C   UNL     1     -12.737   7.452 128.015  0.00  0.00    +0.000 A 
ATOM     11  C   UNL     1     -12.598   6.531 129.058  0.00  0.00    +0.000 A 
ATOM     12  C   UNL     1     -11.410   6.476 129.797  0.00  0.00    +0.000 A 
ATOM     13  C   UNL     1     -11.242   5.547 130.984  0.00  0.00    +0.000 C 
ATOM     14  H   UNL     1      -8.507   2.476 132.525  0.00  0.00    +0.000 HD
ATOM     15  H   UNL     1      -8.076   4.095 132.515  0.00  0.00    +0.000 HD
ATOM     16  H   UNL     1     -10.277   1.869 131.544  0.00  0.00    +0.000 HD
ENDROOT
TORSDOF 0
ENDMDL
MODEL 5
REMARK VINA RESULT:      -5.7      8.113      9.360
REMARK  Name = Debrisoquine
REMARK  0 active torsions:
REMARK  status: ('A' for Active; 'I' for Inactive)
REMARK                            x       y       z     vdW  Elec       q    Type
REMARK                         _______ _______ _______ _____ _____    ______ ____
ROOT
ATOM      1  N   UNL     1      -8.275   4.044 124.842  0.00  0.00    +0.000 N 
ATOM      2  C   UNL     1      -8.349   3.008 123.975  0.00  0.00    +0.000 C 
ATOM      3  N   UNL     1      -8.637   3.210 122.732  0.00  0.00    +0.000 NA
ATOM      4  N   UNL     1      -8.081   1.775 124.504  0.00  0.00    +0.000 N 
ATOM      5  C   UNL     1      -8.635   1.383 125.814  0.00  0.00    +0.000 C 
ATOM      6  C   UNL     1      -8.162   0.003 126.282  0.00  0.00    +0.000 C 
ATOM      7  C   UNL     1      -8.521  -1.021 125.244  0.00  0.00    +0.000 A 
ATOM      8  C   UNL     1      -9.032  -2.281 125.570  0.00  0.00    +0.000 A 
ATOM      9  C   UNL     1      -9.383  -3.172 124.556  0.00  0.00    +0.000 A 
ATOM     10  C   UNL     1      -9.213  -2.810 123.221  0.00  0.00    +0.000 A 
ATOM     11  C   UNL     1      -8.675  -1.562 122.893  0.00  0.00    +0.000 A 
ATOM     12  C   UNL     1      -8.328  -0.655 123.903  0.00  0.00    +0.000 A 
ATOM     13  C   UNL     1      -7.673   0.678 123.598  0.00  0.00    +0.000 C 
ATOM     14  H   UNL     1      -8.157   4.962 124.432  0.00  0.00    +0.000 HD
ATOM     15  H   UNL     1      -7.645   3.900 125.622  0.00  0.00    +0.000 HD
ATOM     16  H   UNL     1      -8.833   4.198 122.581  0.00  0.00    +0.000 HD
ENDROOT
TORSDOF 0
ENDMDL
MODEL 6
REMARK VINA RESULT:      -5.5     10.271     11.315
REMARK  Name = Debrisoquine
REMARK  0 active torsions:
REMARK  status: ('A' for Active; 'I' for Inactive)
REMARK                            x       y       z     vdW  Elec       q    Type
REMARK                         _______ _______ _______ _____ _____    ______ ____
ROOT
ATOM      1  N   UNL     1      -5.996  -1.254 129.456  0.00  0.00    +0.000 N 
ATOM      2  C   UNL     1      -5.834  -1.163 128.116  0.00  0.00    +0.000 C 
ATOM      3  N   UNL     1      -5.053  -0.270 127.606  0.00  0.00    +0.000 NA
ATOM      4  N   UNL     1      -6.528  -2.080 127.374  0.00  0.00    +0.000 N 
ATOM      5  C   UNL     1      -7.931  -2.401 127.697  0.00  0.00    +0.000 C 
ATOM      6  C   UNL     1      -8.518  -3.507 126.813  0.00  0.00    +0.000 C 
ATOM      7  C   UNL     1      -8.401  -3.103 125.372  0.00  0.00    +0.000 A 
ATOM      8  C   UNL     1      -9.425  -3.310 124.444  0.00  0.00    +0.000 A 
ATOM      9  C   UNL     1      -9.268  -2.875 123.128  0.00  0.00    +0.000 A 
ATOM     10  C   UNL     1      -8.087  -2.246 122.738  0.00  0.00    +0.000 A 
ATOM     11  C   UNL     1      -7.049  -2.065 123.657  0.00  0.00    +0.000 A 
ATOM     12  C   UNL     1      -7.200  -2.488 124.984  0.00  0.00    +0.000 A 
ATOM     13  C   UNL     1      -6.076  -2.380 125.997  0.00  0.00    +0.000 C 
ATOM     14  H   UNL     1      -5.280  -0.818 130.023  0.00  0.00    +0.000 HD
ATOM     15  H   UNL     1      -6.226  -2.180 129.793  0.00  0.00    +0.000 HD
ATOM     16  H   UNL     1      -4.677   0.320 128.347  0.00  0.00    +0.000 HD
ENDROOT
TORSDOF 0
ENDMDL
MODEL 7
REMARK VINA RESULT:      -5.5      9.491     10.078
REMARK  Name = Debrisoquine
REMARK  0 active torsions:
REMARK  status: ('A' for Active; 'I' for Inactive)
REMARK                            x       y       z     vdW  Elec       q    Type
REMARK                         _______ _______ _______ _____ _____    ______ ____
ROOT
ATOM      1  N   UNL     1      -7.502   0.888 123.249  0.00  0.00    +0.000 N 
ATOM      2  C   UNL     1      -8.207  -0.145 123.764  0.00  0.00    +0.000 C 
ATOM      3  N   UNL     1      -9.419  -0.371 123.382  0.00  0.00    +0.000 NA
ATOM      4  N   UNL     1      -7.540  -0.916 124.678  0.00  0.00    +0.000 N 
ATOM      5  C   UNL     1      -6.711  -0.292 125.726  0.00  0.00    +0.000 C 
ATOM      6  C   UNL     1      -5.977  -1.310 126.604  0.00  0.00    +0.000 C 
ATOM      7  C   UNL     1      -6.979  -2.240 127.226  0.00  0.00    +0.000 A 
ATOM      8  C   UNL     1      -6.900  -2.654 128.559  0.00  0.00    +0.000 A 
ATOM      9  C   UNL     1      -7.885  -3.487 129.087  0.00  0.00    +0.000 A 
ATOM     10  C   UNL     1      -8.940  -3.917 128.282  0.00  0.00    +0.000 A 
ATOM     11  C   UNL     1      -9.005  -3.527 126.941  0.00  0.00    +0.000 A 
ATOM     12  C   UNL     1      -8.026  -2.682 126.403  0.00  0.00    +0.000 A 
ATOM     13  C   UNL     1      -8.014  -2.295 124.936  0.00  0.00    +0.000 C 
ATOM     14  H   UNL     1      -7.841   1.267 122.373  0.00  0.00    +0.000 HD
ATOM     15  H   UNL     1      -6.499   0.751 123.232  0.00  0.00    +0.000 HD
ATOM     16  H   UNL     1      -9.713   0.353 122.728  0.00  0.00    +0.000 HD
ENDROOT
TORSDOF 0
ENDMDL
MODEL 8
REMARK VINA RESULT:      -5.3      2.239      2.393
REMARK  Name = Debrisoquine
REMARK  0 active torsions:
REMARK  status: ('A' for Active; 'I' for Inactive)
REMARK                            x       y       z     vdW  Elec       q    Type
REMARK                         _______ _______ _______ _____ _____    ______ ____
ROOT
ATOM      1  N   UNL     1     -12.649   9.236 128.544  0.00  0.00    +0.000 N 
ATOM      2  C   UNL     1     -11.524   8.513 128.340  0.00  0.00    +0.000 C 
ATOM      3  N   UNL     1     -10.798   8.708 127.291  0.00  0.00    +0.000 NA
ATOM      4  N   UNL     1     -11.222   7.604 129.317  0.00  0.00    +0.000 N 
ATOM      5  C   UNL     1     -12.275   6.753 129.904  0.00  0.00    +0.000 C 
ATOM      6  C   UNL     1     -11.767   5.857 131.039  0.00  0.00    +0.000 C 
ATOM      7  C   UNL     1     -10.640   5.005 130.529  0.00  0.00    +0.000 A 
ATOM      8  C   UNL     1     -10.508   3.653 130.857  0.00  0.00    +0.000 A 
ATOM      9  C   UNL     1      -9.461   2.906 130.318  0.00  0.00    +0.000 A 
ATOM     10  C   UNL     1      -8.540   3.512 129.464  0.00  0.00    +0.000 A 
ATOM     11  C   UNL     1      -8.654   4.872 129.158  0.00  0.00    +0.000 A 
ATOM     12  C   UNL     1      -9.708   5.629 129.686  0.00  0.00    +0.000 A 
ATOM     13  C   UNL     1      -9.828   7.121 129.443  0.00  0.00    +0.000 C 
ATOM     14  H   UNL     1     -12.725  10.101 128.023  0.00  0.00    +0.000 HD
ATOM     15  H   UNL     1     -12.902   9.362 129.516  0.00  0.00    +0.000 HD
ATOM     16  H   UNL     1     -11.240   9.403 126.691  0.00  0.00    +0.000 HD
ENDROOT
TORSDOF 0
ENDMDL
MODEL 9
REMARK VINA RESULT:      -5.3      2.526      3.340
REMARK  Name = Debrisoquine
REMARK  0 active torsions:
REMARK  status: ('A' for Active; 'I' for Inactive)
REMARK                            x       y       z     vdW  Elec       q    Type
REMARK                         _______ _______ _______ _____ _____    ______ ____
ROOT
ATOM      1  N   UNL     1     -12.025   8.176 129.808  0.00  0.00    +0.000 N 
ATOM      2  C   UNL     1     -11.572   6.948 129.465  0.00  0.00    +0.000 C 
ATOM      3  N   UNL     1     -11.976   6.378 128.379  0.00  0.00    +0.000 NA
ATOM      4  N   UNL     1     -10.667   6.392 130.327  0.00  0.00    +0.000 N 
ATOM      5  C   UNL     1     -10.871   6.471 131.786  0.00  0.00    +0.000 C 
ATOM      6  C   UNL     1      -9.716   5.866 132.592  0.00  0.00    +0.000 C 
ATOM      7  C   UNL     1      -9.517   4.437 132.176  0.00  0.00    +0.000 A 
ATOM      8  C   UNL     1      -9.264   3.412 133.092  0.00  0.00    +0.000 A 
ATOM      9  C   UNL     1      -9.128   2.099 132.645  0.00  0.00    +0.000 A 
ATOM     10  C   UNL     1      -9.233   1.811 131.284  0.00  0.00    +0.000 A 
ATOM     11  C   UNL     1      -9.457   2.839 130.363  0.00  0.00    +0.000 A 
ATOM     12  C   UNL     1      -9.605   4.161 130.803  0.00  0.00    +0.000 A 
ATOM     13  C   UNL     1      -9.775   5.317 129.836  0.00  0.00    +0.000 C 
ATOM     14  H   UNL     1     -12.432   8.726 129.062  0.00  0.00    +0.000 HD
ATOM     15  H   UNL     1     -11.384   8.724 130.368  0.00  0.00    +0.000 HD
ATOM     16  H   UNL     1     -12.674   6.963 127.923  0.00  0.00    +0.000 HD
ENDROOT
TORSDOF 0
ENDMDL
