MODEL 1
REMARK VINA RESULT:      -4.9      0.000      0.000
REMARK  Name = Decamethonium
REMARK  17 active torsions:
REMARK  status: ('A' for Active; 'I' for Inactive)
REMARK    1  A    between atoms: C_1  and  N_2
REMARK    2  A    between atoms: N_2  and  C_3
REMARK    3  A    between atoms: N_2  and  C_4
REMARK    4  A    between atoms: N_2  and  C_5
REMARK    5  A    between atoms: C_5  and  C_6
REMARK    6  A    between atoms: C_6  and  C_7
REMARK    7  A    between atoms: C_7  and  C_8
REMARK    8  A    between atoms: C_8  and  C_9
REMARK    9  A    between atoms: C_9  and  C_10
REMARK   10  A    between atoms: C_10  and  C_11
REMARK   11  A    between atoms: C_11  and  C_12
REMARK   12  A    between atoms: C_12  and  C_13
REMARK   13  A    between atoms: C_13  and  C_14
REMARK   14  A    between atoms: C_14  and  N_15
REMARK   15  A    between atoms: N_15  and  C_16
REMARK   16  A    between atoms: N_15  and  C_17
REMARK   17  A    between atoms: N_15  and  C_18
REMARK                            x       y       z     vdW  Elec       q    Type
REMARK                         _______ _______ _______ _____ _____    ______ ____
ROOT
ATOM      1  C   UNL     1      -7.748  -3.174 124.847  0.00  0.00    +0.000 C 
ENDROOT
BRANCH   1   2
ATOM      2  C   UNL     1      -9.149  -3.568 124.441  0.00  0.00    +0.000 C 
BRANCH   2   3
ATOM      3  C   UNL     1      -9.428  -3.067 123.035  0.00  0.00    +0.000 C 
BRANCH   3   4
ATOM      4  C   UNL     1      -8.594  -1.824 122.807  0.00  0.00    +0.000 C 
BRANCH   4   5
ATOM      5  C   UNL     1      -9.462  -0.576 122.821  0.00  0.00    +0.000 C 
BRANCH   5   7
ATOM      6  C   UNL     1      -9.359   1.864 123.220  0.00  0.00    +0.000 C 
ATOM      7  N   UNL     1      -8.877   0.507 123.734  0.00  0.00    +0.000 N 
ATOM      8  C   UNL     1      -7.352   0.495 123.697  0.00  0.00    +0.000 C 
ATOM      9  C   UNL     1      -9.365   0.339 125.171  0.00  0.00    +0.000 C 
ENDBRANCH   5   7
ENDBRANCH   4   5
ENDBRANCH   3   4
ENDBRANCH   2   3
ENDBRANCH   1   2
BRANCH   1  10
ATOM     10  C   UNL     1      -7.736  -2.853 126.327  0.00  0.00    +0.000 C 
BRANCH  10  11
ATOM     11  C   UNL     1      -9.021  -3.350 126.947  0.00  0.00    +0.000 C 
BRANCH  11  12
ATOM     12  C   UNL     1      -8.775  -3.706 128.403  0.00  0.00    +0.000 C 
BRANCH  12  13
ATOM     13  C   UNL     1      -7.493  -3.027 128.839  0.00  0.00    +0.000 C 
BRANCH  13  14
ATOM     14  C   UNL     1      -7.192  -3.321 130.300  0.00  0.00    +0.000 C 
BRANCH  14  15
ATOM     15  N   UNL     1      -5.691  -3.507 130.540  0.00  0.00    +0.000 N 
ATOM     16  C   UNL     1      -4.887  -3.180 129.284  0.00  0.00    +0.000 C 
ATOM     17  C   UNL     1      -5.208  -2.651 131.707  0.00  0.00    +0.000 C 
ATOM     18  C   UNL     1      -5.452  -4.975 130.893  0.00  0.00    +0.000 C 
ENDBRANCH  14  15
ENDBRANCH  13  14
ENDBRANCH  12  13
ENDBRANCH  11  12
ENDBRANCH  10  11
ENDBRANCH   1  10
TORSDOF 11
ENDMDL
MODEL 2
REMARK VINA RESULT:      -4.8      0.918      6.970
REMARK  Name = Decamethonium
REMARK  17 active torsions:
REMARK  status: ('A' for Active; 'I' for Inactive)
REMARK    1  A    between atoms: C_1  and  N_2
REMARK    2  A    between atoms: N_2  and  C_3
REMARK    3  A    between atoms: N_2  and  C_4
REMARK    4  A    between atoms: N_2  and  C_5
REMARK    5  A    between atoms: C_5  and  C_6
REMARK    6  A    between atoms: C_6  and  C_7
REMARK    7  A    between atoms: C_7  and  C_8
REMARK    8  A    between atoms: C_8  and  C_9
REMARK    9  A    between atoms: C_9  and  C_10
REMARK   10  A    between atoms: C_10  and  C_11
REMARK   11  A    between atoms: C_11  and  C_12
REMARK   12  A    between atoms: C_12  and  C_13
REMARK   13  A    between atoms: C_13  and  C_14
REMARK   14  A    between atoms: C_14  and  N_15
REMARK   15  A    between atoms: N_15  and  C_16
REMARK   16  A    between atoms: N_15  and  C_17
REMARK   17  A    between atoms: N_15  and  C_18
REMARK                            x       y       z     vdW  Elec       q    Type
REMARK                         _______ _______ _______ _____ _____    ______ ____
ROOT
ATOM      1  C   UNL     1      -9.059  -3.347 125.875  0.00  0.00    +0.000 C 
ENDROOT
BRANCH   1   2
ATOM      2  C   UNL     1      -8.356  -2.831 127.110  0.00  0.00    +0.000 C 
BRANCH   2   3
ATOM      3  C   UNL     1      -8.732  -3.692 128.303  0.00  0.00    +0.000 C 
BRANCH   3   4
ATOM      4  C   UNL     1      -7.846  -3.295 129.464  0.00  0.00    +0.000 C 
BRANCH   4   5
ATOM      5  C   UNL     1      -6.546  -2.679 128.972  0.00  0.00    +0.000 C 
BRANCH   5   7
ATOM      6  C   UNL     1      -5.688  -4.473 130.445  0.00  0.00    +0.000 C 
ATOM      7  N   UNL     1      -5.355  -3.111 129.835  0.00  0.00    +0.000 N 
ATOM      8  C   UNL     1      -5.113  -2.124 130.973  0.00  0.00    +0.000 C 
ATOM      9  C   UNL     1      -4.090  -3.260 128.994  0.00  0.00    +0.000 C 
ENDBRANCH   5   7
ENDBRANCH   4   5
ENDBRANCH   3   4
ENDBRANCH   2   3
ENDBRANCH   1   2
BRANCH   1  10
ATOM     10  C   UNL     1      -8.031  -3.944 124.937  0.00  0.00    +0.000 C 
BRANCH  10  11
ATOM     11  C   UNL     1      -7.885  -3.045 123.732  0.00  0.00    +0.000 C 
BRANCH  11  12
ATOM     12  C   UNL     1      -9.260  -2.631 123.240  0.00  0.00    +0.000 C 
BRANCH  12  13
ATOM     13  C   UNL     1      -9.183  -1.181 122.806  0.00  0.00    +0.000 C 
BRANCH  13  14
ATOM     14  C   UNL     1      -8.207  -0.405 123.675  0.00  0.00    +0.000 C 
BRANCH  14  15
ATOM     15  N   UNL     1      -8.881   0.795 124.348  0.00  0.00    +0.000 N 
ATOM     16  C   UNL     1      -9.513   0.398 125.679  0.00  0.00    +0.000 C 
ATOM     17  C   UNL     1      -7.891   1.937 124.559  0.00  0.00    +0.000 C 
ATOM     18  C   UNL     1      -9.991   1.290 123.420  0.00  0.00    +0.000 C 
ENDBRANCH  14  15
ENDBRANCH  13  14
ENDBRANCH  12  13
ENDBRANCH  11  12
ENDBRANCH  10  11
ENDBRANCH   1  10
TORSDOF 11
ENDMDL
MODEL 3
REMARK VINA RESULT:      -4.8      1.409      2.468
REMARK  Name = Decamethonium
REMARK  17 active torsions:
REMARK  status: ('A' for Active; 'I' for Inactive)
REMARK    1  A    between atoms: C_1  and  N_2
REMARK    2  A    between atoms: N_2  and  C_3
REMARK    3  A    between atoms: N_2  and  C_4
REMARK    4  A    between atoms: N_2  and  C_5
REMARK    5  A    between atoms: C_5  and  C_6
REMARK    6  A    between atoms: C_6  and  C_7
REMARK    7  A    between atoms: C_7  and  C_8
REMARK    8  A    between atoms: C_8  and  C_9
REMARK    9  A    between atoms: C_9  and  C_10
REMARK   10  A    between atoms: C_10  and  C_11
REMARK   11  A    between atoms: C_11  and  C_12
REMARK   12  A    between atoms: C_12  and  C_13
REMARK   13  A    between atoms: C_13  and  C_14
REMARK   14  A    between atoms: C_14  and  N_15
REMARK   15  A    between atoms: N_15  and  C_16
REMARK   16  A    between atoms: N_15  and  C_17
REMARK   17  A    between atoms: N_15  and  C_18
REMARK                            x       y       z     vdW  Elec       q    Type
REMARK                         _______ _______ _______ _____ _____    ______ ____
ROOT
ATOM      1  C   UNL     1      -7.878  -4.009 124.757  0.00  0.00    +0.000 C 
ENDROOT
BRANCH   1   2
ATOM      2  C   UNL     1      -6.888  -3.204 123.948  0.00  0.00    +0.000 C 
BRANCH   2   3
ATOM      3  C   UNL     1      -5.789  -2.688 124.860  0.00  0.00    +0.000 C 
BRANCH   3   4
ATOM      4  C   UNL     1      -5.909  -1.181 124.930  0.00  0.00    +0.000 C 
BRANCH   4   5
ATOM      5  C   UNL     1      -6.661  -0.637 123.726  0.00  0.00    +0.000 C 
BRANCH   5   7
ATOM      6  C   UNL     1      -7.556   0.658 125.634  0.00  0.00    +0.000 C 
ATOM      7  N   UNL     1      -7.572   0.533 124.111  0.00  0.00    +0.000 N 
ATOM      8  C   UNL     1      -9.009   0.283 123.666  0.00  0.00    +0.000 C 
ATOM      9  C   UNL     1      -7.063   1.845 123.519  0.00  0.00    +0.000 C 
ENDBRANCH   5   7
ENDBRANCH   4   5
ENDBRANCH   3   4
ENDBRANCH   2   3
ENDBRANCH   1   2
BRANCH   1  10
ATOM     10  C   UNL     1      -9.122  -3.176 124.982  0.00  0.00    +0.000 C 
BRANCH  10  11
ATOM     11  C   UNL     1      -9.128  -2.677 126.408  0.00  0.00    +0.000 C 
BRANCH  11  12
ATOM     12  C   UNL     1      -9.046  -3.858 127.359  0.00  0.00    +0.000 C 
BRANCH  12  13
ATOM     13  C   UNL     1      -8.394  -3.381 128.640  0.00  0.00    +0.000 C 
BRANCH  13  14
ATOM     14  C   UNL     1      -7.272  -2.399 128.346  0.00  0.00    +0.000 C 
BRANCH  14  15
ATOM     15  N   UNL     1      -6.089  -2.592 129.300  0.00  0.00    +0.000 N 
ATOM     16  C   UNL     1      -6.222  -3.892 130.088  0.00  0.00    +0.000 C 
ATOM     17  C   UNL     1      -4.763  -2.571 128.545  0.00  0.00    +0.000 C 
ATOM     18  C   UNL     1      -6.092  -1.429 130.292  0.00  0.00    +0.000 C 
ENDBRANCH  14  15
ENDBRANCH  13  14
ENDBRANCH  12  13
ENDBRANCH  11  12
ENDBRANCH  10  11
ENDBRANCH   1  10
TORSDOF 11
ENDMDL
MODEL 4
REMARK VINA RESULT:      -4.8      0.797      1.807
REMARK  Name = Decamethonium
REMARK  17 active torsions:
REMARK  status: ('A' for Active; 'I' for Inactive)
REMARK    1  A    between atoms: C_1  and  N_2
REMARK    2  A    between atoms: N_2  and  C_3
REMARK    3  A    between atoms: N_2  and  C_4
REMARK    4  A    between atoms: N_2  and  C_5
REMARK    5  A    between atoms: C_5  and  C_6
REMARK    6  A    between atoms: C_6  and  C_7
REMARK    7  A    between atoms: C_7  and  C_8
REMARK    8  A    between atoms: C_8  and  C_9
REMARK    9  A    between atoms: C_9  and  C_10
REMARK   10  A    between atoms: C_10  and  C_11
REMARK   11  A    between atoms: C_11  and  C_12
REMARK   12  A    between atoms: C_12  and  C_13
REMARK   13  A    between atoms: C_13  and  C_14
REMARK   14  A    between atoms: C_14  and  N_15
REMARK   15  A    between atoms: N_15  and  C_16
REMARK   16  A    between atoms: N_15  and  C_17
REMARK   17  A    between atoms: N_15  and  C_18
REMARK                            x       y       z     vdW  Elec       q    Type
REMARK                         _______ _______ _______ _____ _____    ______ ____
ROOT
ATOM      1  C   UNL     1      -7.954  -2.995 125.842  0.00  0.00    +0.000 C 
ENDROOT
BRANCH   1   2
ATOM      2  C   UNL     1      -8.020  -3.800 124.565  0.00  0.00    +0.000 C 
BRANCH   2   3
ATOM      3  C   UNL     1      -9.082  -3.214 123.652  0.00  0.00    +0.000 C 
BRANCH   3   4
ATOM      4  C   UNL     1      -8.462  -2.060 122.893  0.00  0.00    +0.000 C 
BRANCH   4   5
ATOM      5  C   UNL     1      -9.391  -0.857 122.875  0.00  0.00    +0.000 C 
BRANCH   5   7
ATOM      6  C   UNL     1      -7.292   0.164 123.695  0.00  0.00    +0.000 C 
ATOM      7  N   UNL     1      -8.813   0.314 123.677  0.00  0.00    +0.000 N 
ATOM      8  C   UNL     1      -9.314   0.296 125.118  0.00  0.00    +0.000 C 
ATOM      9  C   UNL     1      -9.154   1.651 123.023  0.00  0.00    +0.000 C 
ENDBRANCH   5   7
ENDBRANCH   4   5
ENDBRANCH   3   4
ENDBRANCH   2   3
ENDBRANCH   1   2
BRANCH   1  10
ATOM     10  C   UNL     1      -9.186  -3.287 126.673  0.00  0.00    +0.000 C 
BRANCH  10  11
ATOM     11  C   UNL     1      -8.785  -4.107 127.877  0.00  0.00    +0.000 C 
BRANCH  11  12
ATOM     12  C   UNL     1      -8.442  -3.180 129.029  0.00  0.00    +0.000 C 
BRANCH  12  13
ATOM     13  C   UNL     1      -7.095  -3.599 129.581  0.00  0.00    +0.000 C 
BRANCH  13  14
ATOM     14  C   UNL     1      -6.837  -2.954 130.933  0.00  0.00    +0.000 C 
BRANCH  14  15
ATOM     15  N   UNL     1      -5.669  -3.624 131.663  0.00  0.00    +0.000 N 
ATOM     16  C   UNL     1      -5.868  -3.583 133.176  0.00  0.00    +0.000 C 
ATOM     17  C   UNL     1      -5.483  -5.066 131.200  0.00  0.00    +0.000 C 
ATOM     18  C   UNL     1      -4.398  -2.845 131.327  0.00  0.00    +0.000 C 
ENDBRANCH  14  15
ENDBRANCH  13  14
ENDBRANCH  12  13
ENDBRANCH  11  12
ENDBRANCH  10  11
ENDBRANCH   1  10
TORSDOF 11
ENDMDL
MODEL 5
REMARK VINA RESULT:      -4.8      1.163      2.114
REMARK  Name = Decamethonium
REMARK  17 active torsions:
REMARK  status: ('A' for Active; 'I' for Inactive)
REMARK    1  A    between atoms: C_1  and  N_2
REMARK    2  A    between atoms: N_2  and  C_3
REMARK    3  A    between atoms: N_2  and  C_4
REMARK    4  A    between atoms: N_2  and  C_5
REMARK    5  A    between atoms: C_5  and  C_6
REMARK    6  A    between atoms: C_6  and  C_7
REMARK    7  A    between atoms: C_7  and  C_8
REMARK    8  A    between atoms: C_8  and  C_9
REMARK    9  A    between atoms: C_9  and  C_10
REMARK   10  A    between atoms: C_10  and  C_11
REMARK   11  A    between atoms: C_11  and  C_12
REMARK   12  A    between atoms: C_12  and  C_13
REMARK   13  A    between atoms: C_13  and  C_14
REMARK   14  A    between atoms: C_14  and  N_15
REMARK   15  A    between atoms: N_15  and  C_16
REMARK   16  A    between atoms: N_15  and  C_17
REMARK   17  A    between atoms: N_15  and  C_18
REMARK                            x       y       z     vdW  Elec       q    Type
REMARK                         _______ _______ _______ _____ _____    ______ ____
ROOT
ATOM      1  C   UNL     1      -9.237  -3.388 123.885  0.00  0.00    +0.000 C 
ENDROOT
BRANCH   1   2
ATOM      2  C   UNL     1      -9.024  -1.965 123.424  0.00  0.00    +0.000 C 
BRANCH   2   3
ATOM      3  C   UNL     1      -7.645  -1.834 122.804  0.00  0.00    +0.000 C 
BRANCH   3   4
ATOM      4  C   UNL     1      -7.042  -0.528 123.277  0.00  0.00    +0.000 C 
BRANCH   4   5
ATOM      5  C   UNL     1      -7.994   0.207 124.206  0.00  0.00    +0.000 C 
BRANCH   5   7
ATOM      6  C   UNL     1      -7.004   2.114 122.980  0.00  0.00    +0.000 C 
ATOM      7  N   UNL     1      -8.247   1.643 123.733  0.00  0.00    +0.000 N 
ATOM      8  C   UNL     1      -8.475   2.580 124.915  0.00  0.00    +0.000 C 
ATOM      9  C   UNL     1      -9.437   1.707 122.779  0.00  0.00    +0.000 C 
ENDBRANCH   5   7
ENDBRANCH   4   5
ENDBRANCH   3   4
ENDBRANCH   2   3
ENDBRANCH   1   2
BRANCH   1  10
ATOM     10  C   UNL     1      -8.157  -3.749 124.883  0.00  0.00    +0.000 C 
BRANCH  10  11
ATOM     11  C   UNL     1      -8.341  -2.913 126.129  0.00  0.00    +0.000 C 
BRANCH  11  12
ATOM     12  C   UNL     1      -9.120  -3.709 127.161  0.00  0.00    +0.000 C 
BRANCH  12  13
ATOM     13  C   UNL     1      -8.383  -3.609 128.481  0.00  0.00    +0.000 C 
BRANCH  13  14
ATOM     14  C   UNL     1      -7.564  -2.330 128.550  0.00  0.00    +0.000 C 
BRANCH  14  15
ATOM     15  N   UNL     1      -6.284  -2.524 129.369  0.00  0.00    +0.000 N 
ATOM     16  C   UNL     1      -6.101  -1.398 130.383  0.00  0.00    +0.000 C 
ATOM     17  C   UNL     1      -6.284  -3.873 130.082  0.00  0.00    +0.000 C 
ATOM     18  C   UNL     1      -5.100  -2.494 128.402  0.00  0.00    +0.000 C 
ENDBRANCH  14  15
ENDBRANCH  13  14
ENDBRANCH  12  13
ENDBRANCH  11  12
ENDBRANCH  10  11
ENDBRANCH   1  10
TORSDOF 11
ENDMDL
MODEL 6
REMARK VINA RESULT:      -4.8      1.054      6.759
REMARK  Name = Decamethonium
REMARK  17 active torsions:
REMARK  status: ('A' for Active; 'I' for Inactive)
REMARK    1  A    between atoms: C_1  and  N_2
REMARK    2  A    between atoms: N_2  and  C_3
REMARK    3  A    between atoms: N_2  and  C_4
REMARK    4  A    between atoms: N_2  and  C_5
REMARK    5  A    between atoms: C_5  and  C_6
REMARK    6  A    between atoms: C_6  and  C_7
REMARK    7  A    between atoms: C_7  and  C_8
REMARK    8  A    between atoms: C_8  and  C_9
REMARK    9  A    between atoms: C_9  and  C_10
REMARK   10  A    between atoms: C_10  and  C_11
REMARK   11  A    between atoms: C_11  and  C_12
REMARK   12  A    between atoms: C_12  and  C_13
REMARK   13  A    between atoms: C_13  and  C_14
REMARK   14  A    between atoms: C_14  and  N_15
REMARK   15  A    between atoms: N_15  and  C_16
REMARK   16  A    between atoms: N_15  and  C_17
REMARK   17  A    between atoms: N_15  and  C_18
REMARK                            x       y       z     vdW  Elec       q    Type
REMARK                         _______ _______ _______ _____ _____    ______ ____
ROOT
ATOM      1  C   UNL     1      -9.365  -3.243 125.707  0.00  0.00    +0.000 C 
ENDROOT
BRANCH   1   2
ATOM      2  C   UNL     1      -8.417  -2.972 126.853  0.00  0.00    +0.000 C 
BRANCH   2   3
ATOM      3  C   UNL     1      -8.776  -3.861 128.029  0.00  0.00    +0.000 C 
BRANCH   3   4
ATOM      4  C   UNL     1      -8.315  -3.172 129.295  0.00  0.00    +0.000 C 
BRANCH   4   5
ATOM      5  C   UNL     1      -6.944  -3.673 129.720  0.00  0.00    +0.000 C 
BRANCH   5   7
ATOM      6  C   UNL     1      -6.678  -1.214 129.758  0.00  0.00    +0.000 C 
ATOM      7  N   UNL     1      -5.915  -2.538 129.757  0.00  0.00    +0.000 N 
ATOM      8  C   UNL     1      -5.014  -2.571 128.525  0.00  0.00    +0.000 C 
ATOM      9  C   UNL     1      -5.067  -2.603 131.025  0.00  0.00    +0.000 C 
ENDBRANCH   5   7
ENDBRANCH   4   5
ENDBRANCH   3   4
ENDBRANCH   2   3
ENDBRANCH   1   2
BRANCH   1  10
ATOM     10  C   UNL     1      -8.560  -3.444 124.440  0.00  0.00    +0.000 C 
BRANCH  10  11
ATOM     11  C   UNL     1      -7.096  -3.232 124.749  0.00  0.00    +0.000 C 
BRANCH  11  12
ATOM     12  C   UNL     1      -6.421  -2.562 123.566  0.00  0.00    +0.000 C 
BRANCH  12  13
ATOM     13  C   UNL     1      -7.431  -1.640 122.913  0.00  0.00    +0.000 C 
BRANCH  13  14
ATOM     14  C   UNL     1      -7.190  -0.195 123.319  0.00  0.00    +0.000 C 
BRANCH  14  15
ATOM     15  N   UNL     1      -8.505   0.536 123.607  0.00  0.00    +0.000 N 
ATOM     16  C   UNL     1      -8.383   2.028 123.308  0.00  0.00    +0.000 C 
ATOM     17  C   UNL     1      -9.657  -0.064 122.807  0.00  0.00    +0.000 C 
ATOM     18  C   UNL     1      -8.817   0.370 125.094  0.00  0.00    +0.000 C 
ENDBRANCH  14  15
ENDBRANCH  13  14
ENDBRANCH  12  13
ENDBRANCH  11  12
ENDBRANCH  10  11
ENDBRANCH   1  10
TORSDOF 11
ENDMDL
MODEL 7
REMARK VINA RESULT:      -4.5      1.715      3.956
REMARK  Name = Decamethonium
REMARK  17 active torsions:
REMARK  status: ('A' for Active; 'I' for Inactive)
REMARK    1  A    between atoms: C_1  and  N_2
REMARK    2  A    between atoms: N_2  and  C_3
REMARK    3  A    between atoms: N_2  and  C_4
REMARK    4  A    between atoms: N_2  and  C_5
REMARK    5  A    between atoms: C_5  and  C_6
REMARK    6  A    between atoms: C_6  and  C_7
REMARK    7  A    between atoms: C_7  and  C_8
REMARK    8  A    between atoms: C_8  and  C_9
REMARK    9  A    between atoms: C_9  and  C_10
REMARK   10  A    between atoms: C_10  and  C_11
REMARK   11  A    between atoms: C_11  and  C_12
REMARK   12  A    between atoms: C_12  and  C_13
REMARK   13  A    between atoms: C_13  and  C_14
REMARK   14  A    between atoms: C_14  and  N_15
REMARK   15  A    between atoms: N_15  and  C_16
REMARK   16  A    between atoms: N_15  and  C_17
REMARK   17  A    between atoms: N_15  and  C_18
REMARK                            x       y       z     vdW  Elec       q    Type
REMARK                         _______ _______ _______ _____ _____    ______ ____
ROOT
ATOM      1  C   UNL     1      -8.025  -2.716 129.248  0.00  0.00    +0.000 C 
ENDROOT
BRANCH   1   2
ATOM      2  C   UNL     1      -8.658  -3.934 128.616  0.00  0.00    +0.000 C 
BRANCH   2   3
ATOM      3  C   UNL     1      -9.076  -3.606 127.194  0.00  0.00    +0.000 C 
BRANCH   3   4
ATOM      4  C   UNL     1      -8.020  -2.704 126.592  0.00  0.00    +0.000 C 
BRANCH   4   5
ATOM      5  C   UNL     1      -8.599  -1.864 125.465  0.00  0.00    +0.000 C 
BRANCH   5   7
ATOM      6  C   UNL     1      -9.331  -3.147 123.479  0.00  0.00    +0.000 C 
ATOM      7  N   UNL     1      -8.157  -2.382 124.091  0.00  0.00    +0.000 N 
ATOM      8  C   UNL     1      -6.976  -3.340 124.218  0.00  0.00    +0.000 C 
ATOM      9  C   UNL     1      -7.797  -1.230 123.157  0.00  0.00    +0.000 C 
ENDBRANCH   5   7
ENDBRANCH   4   5
ENDBRANCH   3   4
ENDBRANCH   2   3
ENDBRANCH   1   2
BRANCH   1  10
ATOM     10  C   UNL     1      -7.220  -3.150 130.455  0.00  0.00    +0.000 C 
BRANCH  10  11
ATOM     11  C   UNL     1      -5.918  -3.756 129.985  0.00  0.00    +0.000 C 
BRANCH  11  12
ATOM     12  C   UNL     1      -5.662  -5.051 130.734  0.00  0.00    +0.000 C 
BRANCH  12  13
ATOM     13  C   UNL     1      -5.230  -4.698 132.142  0.00  0.00    +0.000 C 
BRANCH  13  14
ATOM     14  C   UNL     1      -3.859  -4.042 132.142  0.00  0.00    +0.000 C 
BRANCH  14  15
ATOM     15  N   UNL     1      -3.857  -2.737 132.943  0.00  0.00    +0.000 N 
ATOM     16  C   UNL     1      -5.228  -2.465 133.557  0.00  0.00    +0.000 C 
ATOM     17  C   UNL     1      -2.791  -2.760 134.035  0.00  0.00    +0.000 C 
ATOM     18  C   UNL     1      -3.530  -1.596 131.979  0.00  0.00    +0.000 C 
ENDBRANCH  14  15
ENDBRANCH  13  14
ENDBRANCH  12  13
ENDBRANCH  11  12
ENDBRANCH  10  11
ENDBRANCH   1  10
TORSDOF 11
ENDMDL
MODEL 8
REMARK VINA RESULT:      -4.4      0.986      7.483
REMARK  Name = Decamethonium
REMARK  17 active torsions:
REMARK  status: ('A' for Active; 'I' for Inactive)
REMARK    1  A    between atoms: C_1  and  N_2
REMARK    2  A    between atoms: N_2  and  C_3
REMARK    3  A    between atoms: N_2  and  C_4
REMARK    4  A    between atoms: N_2  and  C_5
REMARK    5  A    between atoms: C_5  and  C_6
REMARK    6  A    between atoms: C_6  and  C_7
REMARK    7  A    between atoms: C_7  and  C_8
REMARK    8  A    between atoms: C_8  and  C_9
REMARK    9  A    between atoms: C_9  and  C_10
REMARK   10  A    between atoms: C_10  and  C_11
REMARK   11  A    between atoms: C_11  and  C_12
REMARK   12  A    between atoms: C_12  and  C_13
REMARK   13  A    between atoms: C_13  and  C_14
REMARK   14  A    between atoms: C_14  and  N_15
REMARK   15  A    between atoms: N_15  and  C_16
REMARK   16  A    between atoms: N_15  and  C_17
REMARK   17  A    between atoms: N_15  and  C_18
REMARK                            x       y       z     vdW  Elec       q    Type
REMARK                         _______ _______ _______ _____ _____    ______ ____
ROOT
ATOM      1  C   UNL     1      -8.888  -3.976 127.678  0.00  0.00    +0.000 C 
ENDROOT
BRANCH   1   2
ATOM      2  C   UNL     1      -8.605  -3.447 129.065  0.00  0.00    +0.000 C 
BRANCH   2   3
ATOM      3  C   UNL     1      -7.695  -2.237 128.969  0.00  0.00    +0.000 C 
BRANCH   3   4
ATOM      4  C   UNL     1      -7.088  -1.998 130.335  0.00  0.00    +0.000 C 
BRANCH   4   5
ATOM      5  C   UNL     1      -5.641  -2.464 130.377  0.00  0.00    +0.000 C 
BRANCH   5   7
ATOM      6  C   UNL     1      -5.555  -4.910 130.739  0.00  0.00    +0.000 C 
ATOM      7  N   UNL     1      -5.430  -3.554 131.434  0.00  0.00    +0.000 N 
ATOM      8  C   UNL     1      -6.493  -3.477 132.526  0.00  0.00    +0.000 C 
ATOM      9  C   UNL     1      -4.038  -3.461 132.052  0.00  0.00    +0.000 C 
ENDBRANCH   5   7
ENDBRANCH   4   5
ENDBRANCH   3   4
ENDBRANCH   2   3
ENDBRANCH   1   2
BRANCH   1  10
ATOM     10  C   UNL     1      -8.264  -3.045 126.659  0.00  0.00    +0.000 C 
BRANCH  10  11
ATOM     11  C   UNL     1      -8.877  -3.318 125.305  0.00  0.00    +0.000 C 
BRANCH  11  12
ATOM     12  C   UNL     1      -7.774  -3.496 124.277  0.00  0.00    +0.000 C 
BRANCH  12  13
ATOM     13  C   UNL     1      -7.744  -2.259 123.404  0.00  0.00    +0.000 C 
BRANCH  13  14
ATOM     14  C   UNL     1      -9.098  -1.568 123.395  0.00  0.00    +0.000 C 
BRANCH  14  15
ATOM     15  N   UNL     1      -8.970  -0.071 123.692  0.00  0.00    +0.000 N 
ATOM     16  C   UNL     1      -9.871   0.753 122.776  0.00  0.00    +0.000 C 
ATOM     17  C   UNL     1      -9.294   0.231 125.152  0.00  0.00    +0.000 C 
ATOM     18  C   UNL     1      -7.520   0.336 123.430  0.00  0.00    +0.000 C 
ENDBRANCH  14  15
ENDBRANCH  13  14
ENDBRANCH  12  13
ENDBRANCH  11  12
ENDBRANCH  10  11
ENDBRANCH   1  10
TORSDOF 11
ENDMDL
MODEL 9
REMARK VINA RESULT:      -4.3      2.544      4.148
REMARK  Name = Decamethonium
REMARK  17 active torsions:
REMARK  status: ('A' for Active; 'I' for Inactive)
REMARK    1  A    between atoms: C_1  and  N_2
REMARK    2  A    between atoms: N_2  and  C_3
REMARK    3  A    between atoms: N_2  and  C_4
REMARK    4  A    between atoms: N_2  and  C_5
REMARK    5  A    between atoms: C_5  and  C_6
REMARK    6  A    between atoms: C_6  and  C_7
REMARK    7  A    between atoms: C_7  and  C_8
REMARK    8  A    between atoms: C_8  and  C_9
REMARK    9  A    between atoms: C_9  and  C_10
REMARK   10  A    between atoms: C_10  and  C_11
REMARK   11  A    between atoms: C_11  and  C_12
REMARK   12  A    between atoms: C_12  and  C_13
REMARK   13  A    between atoms: C_13  and  C_14
REMARK   14  A    between atoms: C_14  and  N_15
REMARK   15  A    between atoms: N_15  and  C_16
REMARK   16  A    between atoms: N_15  and  C_17
REMARK   17  A    between atoms: N_15  and  C_18
REMARK                            x       y       z     vdW  Elec       q    Type
REMARK                         _______ _______ _______ _____ _____    ______ ____
ROOT
ATOM      1  C   UNL     1      -8.537  -3.709 128.620  0.00  0.00    +0.000 C 
ENDROOT
BRANCH   1   2
ATOM      2  C   UNL     1      -8.243  -2.798 127.451  0.00  0.00    +0.000 C 
BRANCH   2   3
ATOM      3  C   UNL     1      -8.835  -3.392 126.185  0.00  0.00    +0.000 C 
BRANCH   3   4
ATOM      4  C   UNL     1      -8.239  -2.660 125.002  0.00  0.00    +0.000 C 
BRANCH   4   5
ATOM      5  C   UNL     1      -7.134  -3.478 124.354  0.00  0.00    +0.000 C 
BRANCH   5   7
ATOM      6  C   UNL     1      -5.654  -1.579 124.928  0.00  0.00    +0.000 C 
ATOM      7  N   UNL     1      -6.004  -2.584 123.830  0.00  0.00    +0.000 N 
ATOM      8  C   UNL     1      -6.444  -1.808 122.592  0.00  0.00    +0.000 C 
ATOM      9  C   UNL     1      -4.754  -3.403 123.517  0.00  0.00    +0.000 C 
ENDBRANCH   5   7
ENDBRANCH   4   5
ENDBRANCH   3   4
ENDBRANCH   2   3
ENDBRANCH   1   2
BRANCH   1  10
ATOM     10  C   UNL     1      -7.770  -3.218 129.831  0.00  0.00    +0.000 C 
BRANCH  10  11
ATOM     11  C   UNL     1      -6.303  -3.529 129.641  0.00  0.00    +0.000 C 
BRANCH  11  12
ATOM     12  C   UNL     1      -5.879  -4.594 130.636  0.00  0.00    +0.000 C 
BRANCH  12  13
ATOM     13  C   UNL     1      -5.858  -3.964 132.014  0.00  0.00    +0.000 C 
BRANCH  13  14
ATOM     14  C   UNL     1      -5.719  -5.024 133.094  0.00  0.00    +0.000 C 
BRANCH  14  15
ATOM     15  N   UNL     1      -6.343  -4.568 134.416  0.00  0.00    +0.000 N 
ATOM     16  C   UNL     1      -6.844  -5.758 135.230  0.00  0.00    +0.000 C 
ATOM     17  C   UNL     1      -5.352  -3.752 135.241  0.00  0.00    +0.000 C 
ATOM     18  C   UNL     1      -7.539  -3.675 134.086  0.00  0.00    +0.000 C 
ENDBRANCH  14  15
ENDBRANCH  13  14
ENDBRANCH  12  13
ENDBRANCH  11  12
ENDBRANCH  10  11
ENDBRANCH   1  10
TORSDOF 11
ENDMDL
