MODEL 1
REMARK VINA RESULT:      -6.2      0.000      0.000
REMARK  Name = Decitabine
REMARK  4 active torsions:
REMARK  status: ('A' for Active; 'I' for Inactive)
REMARK    1  A    between atoms: N_6  and  C1*_9
REMARK    2  A    between atoms: C3*_11  and  O3*_12
REMARK    3  A    between atoms: C4*_13  and  C5*_14
REMARK    4  A    between atoms: C5*_14  and  O5*_15
REMARK                            x       y       z     vdW  Elec       q    Type
REMARK                         _______ _______ _______ _____ _____    ______ ____
ROOT
ATOM      1  N   UNL     1      -7.668   5.806 133.018  0.00  0.00    +0.000 N 
ATOM      2  C   UNL     1      -8.695   6.098 132.194  0.00  0.00    +0.000 A 
ATOM      3  N   UNL     1      -9.898   6.056 132.651  0.00  0.00    +0.000 NA
ATOM      4  C   UNL     1     -10.946   6.361 131.833  0.00  0.00    +0.000 A 
ATOM      5  O   UNL     1     -12.098   6.350 132.268  0.00  0.00    +0.000 OA
ATOM      6  N   UNL     1     -10.680   6.703 130.531  0.00  0.00    +0.000 N 
ATOM      7  C   UNL     1      -9.384   6.706 130.141  0.00  0.00    +0.000 A 
ATOM      8  N   UNL     1      -8.397   6.427 130.914  0.00  0.00    +0.000 NA
ATOM      9  H   UNL     1      -7.866   5.538 133.971  0.00  0.00    +0.000 HD
ATOM     10  H   UNL     1      -6.719   5.813 132.680  0.00  0.00    +0.000 HD
ENDROOT
BRANCH   6  11
ATOM     11  C1* UNL     1     -11.769   7.079 129.645  0.00  0.00    +0.000 C 
ATOM     12  C2* UNL     1     -11.823   8.564 129.302  0.00  0.00    +0.000 C 
ATOM     13  C3* UNL     1     -12.465   8.566 127.934  0.00  0.00    +0.000 C 
ATOM     14  C4* UNL     1     -11.967   7.263 127.312  0.00  0.00    +0.000 C 
ATOM     15  O4* UNL     1     -11.646   6.369 128.398  0.00  0.00    +0.000 OA
BRANCH  13  16
ATOM     16  O3* UNL     1     -13.887   8.574 128.063  0.00  0.00    +0.000 OA
ATOM     17  H3* UNL     1     -14.300   8.449 127.191  0.00  0.00    +0.000 HD
ENDBRANCH  13  16
BRANCH  14  18
ATOM     18  C5* UNL     1     -10.709   7.467 126.464  0.00  0.00    +0.000 C 
BRANCH  18  19
ATOM     19  O5* UNL     1      -9.791   6.395 126.625  0.00  0.00    +0.000 OA
ATOM     20  H5* UNL     1      -8.930   6.771 126.883  0.00  0.00    +0.000 HD
ENDBRANCH  18  19
ENDBRANCH  14  18
ENDBRANCH   6  11
TORSDOF 4
ENDMDL
MODEL 2
REMARK VINA RESULT:      -5.9      7.932     10.171
REMARK  Name = Decitabine
REMARK  4 active torsions:
REMARK  status: ('A' for Active; 'I' for Inactive)
REMARK    1  A    between atoms: N_6  and  C1*_9
REMARK    2  A    between atoms: C3*_11  and  O3*_12
REMARK    3  A    between atoms: C4*_13  and  C5*_14
REMARK    4  A    between atoms: C5*_14  and  O5*_15
REMARK                            x       y       z     vdW  Elec       q    Type
REMARK                         _______ _______ _______ _____ _____    ______ ____
ROOT
ATOM      1  N   UNL     1      -5.626   5.645 118.548  0.00  0.00    +0.000 N 
ATOM      2  C   UNL     1      -6.193   4.925 119.538  0.00  0.00    +0.000 A 
ATOM      3  N   UNL     1      -7.440   4.612 119.450  0.00  0.00    +0.000 NA
ATOM      4  C   UNL     1      -8.024   3.873 120.436  0.00  0.00    +0.000 A 
ATOM      5  O   UNL     1      -9.209   3.547 120.348  0.00  0.00    +0.000 OA
ATOM      6  N   UNL     1      -7.257   3.487 121.506  0.00  0.00    +0.000 N 
ATOM      7  C   UNL     1      -5.960   3.877 121.513  0.00  0.00    +0.000 A 
ATOM      8  N   UNL     1      -5.407   4.564 120.580  0.00  0.00    +0.000 NA
ATOM      9  H   UNL     1      -6.195   5.943 117.770  0.00  0.00    +0.000 HD
ATOM     10  H   UNL     1      -4.658   5.919 118.602  0.00  0.00    +0.000 HD
ENDROOT
BRANCH   6  11
ATOM     11  C1* UNL     1      -7.836   2.661 122.551  0.00  0.00    +0.000 C 
ATOM     12  C2* UNL     1      -6.818   1.995 123.470  0.00  0.00    +0.000 C 
ATOM     13  C3* UNL     1      -7.580   1.857 124.768  0.00  0.00    +0.000 C 
ATOM     14  C4* UNL     1      -8.497   3.079 124.766  0.00  0.00    +0.000 C 
ATOM     15  O4* UNL     1      -8.688   3.465 123.388  0.00  0.00    +0.000 OA
BRANCH  13  16
ATOM     16  O3* UNL     1      -8.330   0.641 124.765  0.00  0.00    +0.000 OA
ATOM     17  H3* UNL     1      -8.293   0.231 123.884  0.00  0.00    +0.000 HD
ENDBRANCH  13  16
BRANCH  14  18
ATOM     18  C5* UNL     1      -7.889   4.263 125.521  0.00  0.00    +0.000 C 
BRANCH  18  19
ATOM     19  O5* UNL     1      -8.789   5.361 125.582  0.00  0.00    +0.000 OA
ATOM     20  H5* UNL     1      -8.326   6.108 126.004  0.00  0.00    +0.000 HD
ENDBRANCH  18  19
ENDBRANCH  14  18
ENDBRANCH   6  11
TORSDOF 4
ENDMDL
MODEL 3
REMARK VINA RESULT:      -5.8      2.542      5.272
REMARK  Name = Decitabine
REMARK  4 active torsions:
REMARK  status: ('A' for Active; 'I' for Inactive)
REMARK    1  A    between atoms: N_6  and  C1*_9
REMARK    2  A    between atoms: C3*_11  and  O3*_12
REMARK    3  A    between atoms: C4*_13  and  C5*_14
REMARK    4  A    between atoms: C5*_14  and  O5*_15
REMARK                            x       y       z     vdW  Elec       q    Type
REMARK                         _______ _______ _______ _____ _____    ______ ____
ROOT
ATOM      1  N   UNL     1     -13.704  10.594 128.806  0.00  0.00    +0.000 N 
ATOM      2  C   UNL     1     -13.121   9.389 128.968  0.00  0.00    +0.000 A 
ATOM      3  N   UNL     1     -12.988   8.614 127.947  0.00  0.00    +0.000 NA
ATOM      4  C   UNL     1     -12.388   7.398 128.092  0.00  0.00    +0.000 A 
ATOM      5  O   UNL     1     -12.233   6.661 127.117  0.00  0.00    +0.000 OA
ATOM      6  N   UNL     1     -11.944   7.033 129.338  0.00  0.00    +0.000 N 
ATOM      7  C   UNL     1     -12.141   7.910 130.350  0.00  0.00    +0.000 A 
ATOM      8  N   UNL     1     -12.698   9.059 130.212  0.00  0.00    +0.000 NA
ATOM      9  H   UNL     1     -14.046  10.855 127.893  0.00  0.00    +0.000 HD
ATOM     10  H   UNL     1     -13.838  11.210 129.592  0.00  0.00    +0.000 HD
ENDROOT
BRANCH   6  11
ATOM     11  C1* UNL     1     -11.259   5.765 129.519  0.00  0.00    +0.000 C 
ATOM     12  C2* UNL     1      -9.783   5.780 129.136  0.00  0.00    +0.000 C 
ATOM     13  C3* UNL     1      -9.193   4.720 130.038  0.00  0.00    +0.000 C 
ATOM     14  C4* UNL     1     -10.053   4.815 131.297  0.00  0.00    +0.000 C 
ATOM     15  O4* UNL     1     -11.325   5.371 130.902  0.00  0.00    +0.000 OA
BRANCH  13  16
ATOM     16  O3* UNL     1      -9.309   3.437 129.421  0.00  0.00    +0.000 OA
ATOM     17  H3* UNL     1      -8.599   2.852 129.736  0.00  0.00    +0.000 HD
ENDBRANCH  13  16
BRANCH  14  18
ATOM     18  C5* UNL     1      -9.433   5.728 132.357  0.00  0.00    +0.000 C 
BRANCH  18  19
ATOM     19  O5* UNL     1     -10.420   6.504 133.021  0.00  0.00    +0.000 OA
ATOM     20  H5* UNL     1     -10.404   6.269 133.966  0.00  0.00    +0.000 HD
ENDBRANCH  18  19
ENDBRANCH  14  18
ENDBRANCH   6  11
TORSDOF 4
ENDMDL
MODEL 4
REMARK VINA RESULT:      -5.8      2.558      5.163
REMARK  Name = Decitabine
REMARK  4 active torsions:
REMARK  status: ('A' for Active; 'I' for Inactive)
REMARK    1  A    between atoms: N_6  and  C1*_9
REMARK    2  A    between atoms: C3*_11  and  O3*_12
REMARK    3  A    between atoms: C4*_13  and  C5*_14
REMARK    4  A    between atoms: C5*_14  and  O5*_15
REMARK                            x       y       z     vdW  Elec       q    Type
REMARK                         _______ _______ _______ _____ _____    ______ ____
ROOT
ATOM      1  N   UNL     1     -12.904   7.497 127.038  0.00  0.00    +0.000 N 
ATOM      2  C   UNL     1     -12.360   7.116 128.212  0.00  0.00    +0.000 A 
ATOM      3  N   UNL     1     -13.029   7.288 129.299  0.00  0.00    +0.000 NA
ATOM      4  C   UNL     1     -12.498   6.896 130.492  0.00  0.00    +0.000 A 
ATOM      5  O   UNL     1     -13.142   7.033 131.533  0.00  0.00    +0.000 OA
ATOM      6  N   UNL     1     -11.250   6.328 130.496  0.00  0.00    +0.000 N 
ATOM      7  C   UNL     1     -10.620   6.201 129.304  0.00  0.00    +0.000 A 
ATOM      8  N   UNL     1     -11.124   6.562 128.179  0.00  0.00    +0.000 NA
ATOM      9  H   UNL     1     -13.815   7.930 127.037  0.00  0.00    +0.000 HD
ATOM     10  H   UNL     1     -12.393   7.390 126.176  0.00  0.00    +0.000 HD
ENDROOT
BRANCH   6  11
ATOM     11  C1* UNL     1     -10.673   5.856 131.744  0.00  0.00    +0.000 C 
ATOM     12  C2* UNL     1     -10.076   4.455 131.677  0.00  0.00    +0.000 C 
ATOM     13  C3* UNL     1      -8.989   4.506 132.727  0.00  0.00    +0.000 C 
ATOM     14  C4* UNL     1      -8.518   5.958 132.672  0.00  0.00    +0.000 C 
ATOM     15  O4* UNL     1      -9.613   6.741 132.152  0.00  0.00    +0.000 OA
BRANCH  13  16
ATOM     16  O3* UNL     1      -9.534   4.181 134.007  0.00  0.00    +0.000 OA
ATOM     17  H3* UNL     1      -8.930   3.585 134.482  0.00  0.00    +0.000 HD
ENDBRANCH  13  16
BRANCH  14  18
ATOM     18  C5* UNL     1      -7.310   6.142 131.750  0.00  0.00    +0.000 C 
BRANCH  18  19
ATOM     19  O5* UNL     1      -7.522   7.190 130.814  0.00  0.00    +0.000 OA
ATOM     20  H5* UNL     1      -8.045   6.832 130.074  0.00  0.00    +0.000 HD
ENDBRANCH  18  19
ENDBRANCH  14  18
ENDBRANCH   6  11
TORSDOF 4
ENDMDL
MODEL 5
REMARK VINA RESULT:      -5.8      8.622     10.670
REMARK  Name = Decitabine
REMARK  4 active torsions:
REMARK  status: ('A' for Active; 'I' for Inactive)
REMARK    1  A    between atoms: N_6  and  C1*_9
REMARK    2  A    between atoms: C3*_11  and  O3*_12
REMARK    3  A    between atoms: C4*_13  and  C5*_14
REMARK    4  A    between atoms: C5*_14  and  O5*_15
REMARK                            x       y       z     vdW  Elec       q    Type
REMARK                         _______ _______ _______ _____ _____    ______ ____
ROOT
ATOM      1  N   UNL     1      -5.855   6.195 117.968  0.00  0.00    +0.000 N 
ATOM      2  C   UNL     1      -5.849   5.493 119.120  0.00  0.00    +0.000 A 
ATOM      3  N   UNL     1      -4.942   5.741 120.001  0.00  0.00    +0.000 NA
ATOM      4  C   UNL     1      -4.931   5.050 121.176  0.00  0.00    +0.000 A 
ATOM      5  O   UNL     1      -4.084   5.298 122.035  0.00  0.00    +0.000 OA
ATOM      6  N   UNL     1      -5.896   4.097 121.383  0.00  0.00    +0.000 N 
ATOM      7  C   UNL     1      -6.798   3.900 120.393  0.00  0.00    +0.000 A 
ATOM      8  N   UNL     1      -6.814   4.557 119.289  0.00  0.00    +0.000 NA
ATOM      9  H   UNL     1      -5.134   6.884 117.810  0.00  0.00    +0.000 HD
ATOM     10  H   UNL     1      -6.542   6.006 117.255  0.00  0.00    +0.000 HD
ENDROOT
BRANCH   6  11
ATOM     11  C1* UNL     1      -5.942   3.374 122.642  0.00  0.00    +0.000 C 
ATOM     12  C2* UNL     1      -6.480   4.182 123.818  0.00  0.00    +0.000 C 
ATOM     13  C3* UNL     1      -7.087   3.118 124.704  0.00  0.00    +0.000 C 
ATOM     14  C4* UNL     1      -7.585   2.075 123.705  0.00  0.00    +0.000 C 
ATOM     15  O4* UNL     1      -6.792   2.220 122.508  0.00  0.00    +0.000 OA
BRANCH  13  16
ATOM     16  O3* UNL     1      -6.088   2.578 125.570  0.00  0.00    +0.000 OA
ATOM     17  H3* UNL     1      -6.328   1.671 125.827  0.00  0.00    +0.000 HD
ENDBRANCH  13  16
BRANCH  14  18
ATOM     18  C5* UNL     1      -9.057   2.278 123.339  0.00  0.00    +0.000 C 
BRANCH  18  19
ATOM     19  O5* UNL     1      -9.887   2.286 124.492  0.00  0.00    +0.000 OA
ATOM     20  H5* UNL     1      -9.493   2.896 125.143  0.00  0.00    +0.000 HD
ENDBRANCH  18  19
ENDBRANCH  14  18
ENDBRANCH   6  11
TORSDOF 4
ENDMDL
MODEL 6
REMARK VINA RESULT:      -5.7      2.675      4.633
REMARK  Name = Decitabine
REMARK  4 active torsions:
REMARK  status: ('A' for Active; 'I' for Inactive)
REMARK    1  A    between atoms: N_6  and  C1*_9
REMARK    2  A    between atoms: C3*_11  and  O3*_12
REMARK    3  A    between atoms: C4*_13  and  C5*_14
REMARK    4  A    between atoms: C5*_14  and  O5*_15
REMARK                            x       y       z     vdW  Elec       q    Type
REMARK                         _______ _______ _______ _____ _____    ______ ____
ROOT
ATOM      1  N   UNL     1     -13.182  10.109 128.691  0.00  0.00    +0.000 N 
ATOM      2  C   UNL     1     -12.586   9.045 129.266  0.00  0.00    +0.000 A 
ATOM      3  N   UNL     1     -13.104   8.535 130.329  0.00  0.00    +0.000 NA
ATOM      4  C   UNL     1     -12.520   7.451 130.915  0.00  0.00    +0.000 A 
ATOM      5  O   UNL     1     -13.024   6.939 131.916  0.00  0.00    +0.000 OA
ATOM      6  N   UNL     1     -11.382   6.936 130.349  0.00  0.00    +0.000 N 
ATOM      7  C   UNL     1     -10.907   7.550 129.240  0.00  0.00    +0.000 A 
ATOM      8  N   UNL     1     -11.461   8.565 128.683  0.00  0.00    +0.000 NA
ATOM      9  H   UNL     1     -14.010  10.498 129.118  0.00  0.00    +0.000 HD
ATOM     10  H   UNL     1     -12.786  10.539 127.870  0.00  0.00    +0.000 HD
ENDROOT
BRANCH   6  11
ATOM     11  C1* UNL     1     -10.761   5.753 130.920  0.00  0.00    +0.000 C 
ATOM     12  C2* UNL     1     -11.249   4.433 130.334  0.00  0.00    +0.000 C 
ATOM     13  C3* UNL     1     -10.051   3.528 130.504  0.00  0.00    +0.000 C 
ATOM     14  C4* UNL     1      -8.868   4.483 130.351  0.00  0.00    +0.000 C 
ATOM     15  O4* UNL     1      -9.337   5.802 130.704  0.00  0.00    +0.000 OA
BRANCH  13  16
ATOM     16  O3* UNL     1     -10.073   2.928 131.800  0.00  0.00    +0.000 OA
ATOM     17  H3* UNL     1     -10.524   3.517 132.429  0.00  0.00    +0.000 HD
ENDBRANCH  13  16
BRANCH  14  18
ATOM     18  C5* UNL     1      -8.337   4.526 128.916  0.00  0.00    +0.000 C 
BRANCH  18  19
ATOM     19  O5* UNL     1      -8.601   3.314 128.225  0.00  0.00    +0.000 OA
ATOM     20  H5* UNL     1      -8.409   3.456 127.280  0.00  0.00    +0.000 HD
ENDBRANCH  18  19
ENDBRANCH  14  18
ENDBRANCH   6  11
TORSDOF 4
ENDMDL
MODEL 7
REMARK VINA RESULT:      -5.5      2.644      5.236
REMARK  Name = Decitabine
REMARK  4 active torsions:
REMARK  status: ('A' for Active; 'I' for Inactive)
REMARK    1  A    between atoms: N_6  and  C1*_9
REMARK    2  A    between atoms: C3*_11  and  O3*_12
REMARK    3  A    between atoms: C4*_13  and  C5*_14
REMARK    4  A    between atoms: C5*_14  and  O5*_15
REMARK                            x       y       z     vdW  Elec       q    Type
REMARK                         _______ _______ _______ _____ _____    ______ ____
ROOT
ATOM      1  N   UNL     1     -13.600   9.624 128.467  0.00  0.00    +0.000 N 
ATOM      2  C   UNL     1     -12.572   8.790 128.725  0.00  0.00    +0.000 A 
ATOM      3  N   UNL     1     -11.805   8.421 127.758  0.00  0.00    +0.000 NA
ATOM      4  C   UNL     1     -10.754   7.589 128.005  0.00  0.00    +0.000 A 
ATOM      5  O   UNL     1     -10.000   7.252 127.092  0.00  0.00    +0.000 OA
ATOM      6  N   UNL     1     -10.548   7.161 129.292  0.00  0.00    +0.000 N 
ATOM      7  C   UNL     1     -11.416   7.593 130.237  0.00  0.00    +0.000 A 
ATOM      8  N   UNL     1     -12.400   8.384 130.006  0.00  0.00    +0.000 NA
ATOM      9  H   UNL     1     -13.761   9.925 127.517  0.00  0.00    +0.000 HD
ATOM     10  H   UNL     1     -14.225   9.912 129.202  0.00  0.00    +0.000 HD
ENDROOT
BRANCH   6  11
ATOM     11  C1* UNL     1      -9.411   6.311 129.599  0.00  0.00    +0.000 C 
ATOM     12  C2* UNL     1      -9.011   6.291 131.071  0.00  0.00    +0.000 C 
ATOM     13  C3* UNL     1      -8.400   4.918 131.232  0.00  0.00    +0.000 C 
ATOM     14  C4* UNL     1      -9.197   4.063 130.248  0.00  0.00    +0.000 C 
ATOM     15  O4* UNL     1      -9.710   4.951 129.232  0.00  0.00    +0.000 OA
BRANCH  13  16
ATOM     16  O3* UNL     1      -7.015   4.958 130.887  0.00  0.00    +0.000 OA
ATOM     17  H3* UNL     1      -6.714   4.072 130.622  0.00  0.00    +0.000 HD
ENDBRANCH  13  16
BRANCH  14  18
ATOM     18  C5* UNL     1     -10.380   3.358 130.916  0.00  0.00    +0.000 C 
BRANCH  18  19
ATOM     19  O5* UNL     1     -11.612   3.704 130.298  0.00  0.00    +0.000 OA
ATOM     20  H5* UNL     1     -12.236   3.972 130.997  0.00  0.00    +0.000 HD
ENDBRANCH  18  19
ENDBRANCH  14  18
ENDBRANCH   6  11
TORSDOF 4
ENDMDL
MODEL 8
REMARK VINA RESULT:      -5.5      2.487      3.052
REMARK  Name = Decitabine
REMARK  4 active torsions:
REMARK  status: ('A' for Active; 'I' for Inactive)
REMARK    1  A    between atoms: N_6  and  C1*_9
REMARK    2  A    between atoms: C3*_11  and  O3*_12
REMARK    3  A    between atoms: C4*_13  and  C5*_14
REMARK    4  A    between atoms: C5*_14  and  O5*_15
REMARK                            x       y       z     vdW  Elec       q    Type
REMARK                         _______ _______ _______ _____ _____    ______ ____
ROOT
ATOM      1  N   UNL     1      -6.476   3.072 129.022  0.00  0.00    +0.000 N 
ATOM      2  C   UNL     1      -7.661   3.621 129.356  0.00  0.00    +0.000 A 
ATOM      3  N   UNL     1      -8.492   2.938 130.065  0.00  0.00    +0.000 NA
ATOM      4  C   UNL     1      -9.689   3.485 130.422  0.00  0.00    +0.000 A 
ATOM      5  O   UNL     1     -10.478   2.849 131.122  0.00  0.00    +0.000 OA
ATOM      6  N   UNL     1      -9.975   4.760 130.004  0.00  0.00    +0.000 N 
ATOM      7  C   UNL     1      -9.044   5.392 129.252  0.00  0.00    +0.000 A 
ATOM      8  N   UNL     1      -7.913   4.880 128.923  0.00  0.00    +0.000 NA
ATOM      9  H   UNL     1      -6.273   2.128 129.315  0.00  0.00    +0.000 HD
ATOM     10  H   UNL     1      -5.817   3.578 128.452  0.00  0.00    +0.000 HD
ENDROOT
BRANCH   6  11
ATOM     11  C1* UNL     1     -11.222   5.390 130.405  0.00  0.00    +0.000 C 
ATOM     12  C2* UNL     1     -11.076   6.823 130.905  0.00  0.00    +0.000 C 
ATOM     13  C3* UNL     1     -12.413   7.436 130.556  0.00  0.00    +0.000 C 
ATOM     14  C4* UNL     1     -12.809   6.702 129.276  0.00  0.00    +0.000 C 
ATOM     15  O4* UNL     1     -12.126   5.431 129.285  0.00  0.00    +0.000 OA
BRANCH  13  16
ATOM     16  O3* UNL     1     -13.349   7.194 131.608  0.00  0.00    +0.000 OA
ATOM     17  H3* UNL     1     -13.432   7.987 132.165  0.00  0.00    +0.000 HD
ENDBRANCH  13  16
BRANCH  14  18
ATOM     18  C5* UNL     1     -12.394   7.466 128.016  0.00  0.00    +0.000 C 
BRANCH  18  19
ATOM     19  O5* UNL     1     -11.690   6.632 127.107  0.00  0.00    +0.000 OA
ATOM     20  H5* UNL     1     -11.140   7.201 126.539  0.00  0.00    +0.000 HD
ENDBRANCH  18  19
ENDBRANCH  14  18
ENDBRANCH   6  11
TORSDOF 4
ENDMDL
MODEL 9
REMARK VINA RESULT:      -5.0      3.638      5.815
REMARK  Name = Decitabine
REMARK  4 active torsions:
REMARK  status: ('A' for Active; 'I' for Inactive)
REMARK    1  A    between atoms: N_6  and  C1*_9
REMARK    2  A    between atoms: C3*_11  and  O3*_12
REMARK    3  A    between atoms: C4*_13  and  C5*_14
REMARK    4  A    between atoms: C5*_14  and  O5*_15
REMARK                            x       y       z     vdW  Elec       q    Type
REMARK                         _______ _______ _______ _____ _____    ______ ____
ROOT
ATOM      1  N   UNL     1     -12.810   7.142 130.091  0.00  0.00    +0.000 N 
ATOM      2  C   UNL     1     -11.835   6.347 130.579  0.00  0.00    +0.000 A 
ATOM      3  N   UNL     1     -11.143   6.750 131.588  0.00  0.00    +0.000 NA
ATOM      4  C   UNL     1     -10.163   5.952 132.100  0.00  0.00    +0.000 A 
ATOM      5  O   UNL     1      -9.514   6.317 133.081  0.00  0.00    +0.000 OA
ATOM      6  N   UNL     1      -9.940   4.732 131.513  0.00  0.00    +0.000 N 
ATOM      7  C   UNL     1     -10.710   4.404 130.449  0.00  0.00    +0.000 A 
ATOM      8  N   UNL     1     -11.639   5.151 129.972  0.00  0.00    +0.000 NA
ATOM      9  H   UNL     1     -12.962   8.046 130.513  0.00  0.00    +0.000 HD
ATOM     10  H   UNL     1     -13.352   6.858 129.291  0.00  0.00    +0.000 HD
ENDROOT
BRANCH   6  11
ATOM     11  C1* UNL     1      -8.935   3.838 132.062  0.00  0.00    +0.000 C 
ATOM     12  C2* UNL     1      -9.494   2.576 132.709  0.00  0.00    +0.000 C 
ATOM     13  C3* UNL     1      -8.375   1.579 132.518  0.00  0.00    +0.000 C 
ATOM     14  C4* UNL     1      -7.748   2.007 131.192  0.00  0.00    +0.000 C 
ATOM     15  O4* UNL     1      -8.045   3.408 131.015  0.00  0.00    +0.000 OA
BRANCH  13  16
ATOM     16  O3* UNL     1      -7.442   1.682 133.594  0.00  0.00    +0.000 OA
ATOM     17  H3* UNL     1      -7.163   0.794 133.877  0.00  0.00    +0.000 HD
ENDBRANCH  13  16
BRANCH  14  18
ATOM     18  C5* UNL     1      -8.323   1.236 130.001  0.00  0.00    +0.000 C 
BRANCH  18  19
ATOM     19  O5* UNL     1      -8.583   2.094 128.900  0.00  0.00    +0.000 OA
ATOM     20  H5* UNL     1      -8.837   1.540 128.139  0.00  0.00    +0.000 HD
ENDBRANCH  18  19
ENDBRANCH  14  18
ENDBRANCH   6  11
TORSDOF 4
ENDMDL
